MODEL 1
REMARK VINA RESULT:      -8.0      0.000      0.000
REMARK  Name = 
REMARK  10 active torsions:
REMARK  status: ('A' for Active; 'I' for Inactive)
REMARK    1  A    between atoms: C_1  and  O_2
REMARK    2  A    between atoms: O_2  and  C_3
REMARK    3  A    between atoms: C_6  and  O_7
REMARK    4  A    between atoms: O_7  and  C_8
REMARK    5  A    between atoms: C_9  and  C_10
REMARK    6  A    between atoms: C_11  and  C_12
REMARK    7  A    between atoms: C_12  and  O_14
REMARK    8  A    between atoms: O_14  and  C_15
REMARK    9  A    between atoms: C_15  and  C_16
REMARK   10  A    between atoms: N_18  and  C_19
REMARK                            x       y       z     vdW  Elec       q    Type
REMARK                         _______ _______ _______ _____ _____    ______ ____
ROOT
ATOM      1  C   UNL     1       7.989   7.555  18.027  0.00  0.00    +0.000 C 
ATOM      2  O   UNL     1       8.241   6.789  18.946  0.00  0.00    +0.000 OA
ENDROOT
BRANCH   1   4
ATOM      3  C   UNL     1       9.155   9.515  18.833  0.00  0.00    +0.000 C 
ATOM      4  C   UNL     1       8.176   9.020  18.062  0.00  0.00    +0.000 C 
BRANCH   3   9
ATOM      5  C   UNL     1      10.708  12.780  17.841  0.00  0.00    +0.000 A 
ATOM      6  C   UNL     1      10.563  13.562  18.978  0.00  0.00    +0.000 A 
ATOM      7  C   UNL     1       9.944  13.046  20.118  0.00  0.00    +0.000 A 
ATOM      8  C   UNL     1       9.478  11.723  20.149  0.00  0.00    +0.000 A 
ATOM      9  C   UNL     1       9.607  10.917  18.998  0.00  0.00    +0.000 A 
ATOM     10  C   UNL     1      10.220  11.474  17.852  0.00  0.00    +0.000 A 
BRANCH   5  12
ATOM     11  C   UNL     1      11.337  14.816  16.785  0.00  0.00    +0.000 C 
ATOM     12  O   UNL     1      11.342  13.394  16.797  0.00  0.00    +0.000 OA
ENDBRANCH   5  12
BRANCH   8  13
ATOM     13  O   UNL     1       8.861  11.194  21.254  0.00  0.00    +0.000 OA
ATOM     14  C   UNL     1       8.374  12.125  22.216  0.00  0.00    +0.000 C 
ENDBRANCH   8  13
ENDBRANCH   3   9
ENDBRANCH   1   4
BRANCH   1  15
ATOM     15  O   UNL     1       7.623   7.196  16.776  0.00  0.00    +0.000 OA
BRANCH  15  16
ATOM     16  C   UNL     1       6.213   7.011  16.620  0.00  0.00    +0.000 C 
BRANCH  16  17
ATOM     17  C   UNL     1       5.891   5.530  16.801  0.00  0.00    +0.000 C 
ATOM     18  O   UNL     1       6.703   4.653  16.532  0.00  0.00    +0.000 OA
ATOM     19  N   UNL     1       4.646   5.273  17.325  0.00  0.00    +0.000 N 
ATOM     20  H   UNL     1       4.139   6.068  17.722  0.00  0.00    +0.000 HD
BRANCH  19  21
ATOM     21  C   UNL     1       4.222   3.926  17.732  0.00  0.00    +0.000 C 
ATOM     22  C   UNL     1       4.538   3.716  19.219  0.00  0.00    +0.000 C 
ATOM     23  C   UNL     1       4.173   2.349  19.798  0.00  0.00    +0.000 C 
ATOM     24  C   UNL     1       2.689   2.005  19.962  0.00  0.00    +0.000 C 
ATOM     25  C   UNL     1       1.770   3.166  20.338  0.00  0.00    +0.000 C 
ATOM     26  C   UNL     1       0.959   3.722  19.168  0.00  0.00    +0.000 C 
ATOM     27  C   UNL     1       1.718   4.500  18.091  0.00  0.00    +0.000 C 
ATOM     28  C   UNL     1       2.765   3.707  17.305  0.00  0.00    +0.000 C 
ENDBRANCH  19  21
ENDBRANCH  16  17
ENDBRANCH  15  16
ENDBRANCH   1  15
TORSDOF 8
ENDMDL
MODEL 2
REMARK VINA RESULT:      -7.9      1.430      2.970
REMARK  Name = 
REMARK  10 active torsions:
REMARK  status: ('A' for Active; 'I' for Inactive)
REMARK    1  A    between atoms: C_1  and  O_2
REMARK    2  A    between atoms: O_2  and  C_3
REMARK    3  A    between atoms: C_6  and  O_7
REMARK    4  A    between atoms: O_7  and  C_8
REMARK    5  A    between atoms: C_9  and  C_10
REMARK    6  A    between atoms: C_11  and  C_12
REMARK    7  A    between atoms: C_12  and  O_14
REMARK    8  A    between atoms: O_14  and  C_15
REMARK    9  A    between atoms: C_15  and  C_16
REMARK   10  A    between atoms: N_18  and  C_19
REMARK                            x       y       z     vdW  Elec       q    Type
REMARK                         _______ _______ _______ _____ _____    ______ ____
ROOT
ATOM      1  C   UNL     1       8.152   8.156  18.158  0.00  0.00    +0.000 C 
ATOM      2  O   UNL     1       8.578   7.258  18.871  0.00  0.00    +0.000 OA
ENDROOT
BRANCH   1   4
ATOM      3  C   UNL     1       9.138   9.977  19.408  0.00  0.00    +0.000 C 
ATOM      4  C   UNL     1       8.471   9.590  18.310  0.00  0.00    +0.000 C 
BRANCH   3   9
ATOM      5  C   UNL     1       9.579  13.035  21.532  0.00  0.00    +0.000 A 
ATOM      6  C   UNL     1      10.435  13.827  20.780  0.00  0.00    +0.000 A 
ATOM      7  C   UNL     1      10.904  13.384  19.542  0.00  0.00    +0.000 A 
ATOM      8  C   UNL     1      10.505  12.144  19.021  0.00  0.00    +0.000 A 
ATOM      9  C   UNL     1       9.645  11.320  19.778  0.00  0.00    +0.000 A 
ATOM     10  C   UNL     1       9.201  11.787  21.036  0.00  0.00    +0.000 A 
BRANCH   5  12
ATOM     11  C   UNL     1       8.260  12.834  23.501  0.00  0.00    +0.000 C 
ATOM     12  O   UNL     1       9.179  13.585  22.718  0.00  0.00    +0.000 OA
ENDBRANCH   5  12
BRANCH   8  13
ATOM     13  O   UNL     1      10.956  11.682  17.810  0.00  0.00    +0.000 OA
ATOM     14  C   UNL     1      11.734  12.591  17.036  0.00  0.00    +0.000 C 
ENDBRANCH   8  13
ENDBRANCH   3   9
ENDBRANCH   1   4
BRANCH   1  15
ATOM     15  O   UNL     1       7.424   7.992  17.030  0.00  0.00    +0.000 OA
BRANCH  15  16
ATOM     16  C   UNL     1       7.234   6.623  16.662  0.00  0.00    +0.000 C 
BRANCH  16  17
ATOM     17  C   UNL     1       5.742   6.378  16.445  0.00  0.00    +0.000 C 
ATOM     18  O   UNL     1       5.171   6.730  15.421  0.00  0.00    +0.000 OA
ATOM     19  N   UNL     1       5.118   5.701  17.466  0.00  0.00    +0.000 N 
ATOM     20  H   UNL     1       5.722   5.259  18.163  0.00  0.00    +0.000 HD
BRANCH  19  21
ATOM     21  C   UNL     1       3.733   5.222  17.366  0.00  0.00    +0.000 C 
ATOM     22  C   UNL     1       3.675   3.735  17.745  0.00  0.00    +0.000 C 
ATOM     23  C   UNL     1       2.297   3.076  17.674  0.00  0.00    +0.000 C 
ATOM     24  C   UNL     1       1.245   3.483  18.709  0.00  0.00    +0.000 C 
ATOM     25  C   UNL     1       1.770   3.804  20.108  0.00  0.00    +0.000 C 
ATOM     26  C   UNL     1       1.866   5.300  20.409  0.00  0.00    +0.000 C 
ATOM     27  C   UNL     1       2.948   6.097  19.678  0.00  0.00    +0.000 C 
ATOM     28  C   UNL     1       2.815   6.164  18.154  0.00  0.00    +0.000 C 
ENDBRANCH  19  21
ENDBRANCH  16  17
ENDBRANCH  15  16
ENDBRANCH   1  15
TORSDOF 8
ENDMDL
MODEL 3
REMARK VINA RESULT:      -7.9      1.221      2.887
REMARK  Name = 
REMARK  10 active torsions:
REMARK  status: ('A' for Active; 'I' for Inactive)
REMARK    1  A    between atoms: C_1  and  O_2
REMARK    2  A    between atoms: O_2  and  C_3
REMARK    3  A    between atoms: C_6  and  O_7
REMARK    4  A    between atoms: O_7  and  C_8
REMARK    5  A    between atoms: C_9  and  C_10
REMARK    6  A    between atoms: C_11  and  C_12
REMARK    7  A    between atoms: C_12  and  O_14
REMARK    8  A    between atoms: O_14  and  C_15
REMARK    9  A    between atoms: C_15  and  C_16
REMARK   10  A    between atoms: N_18  and  C_19
REMARK                            x       y       z     vdW  Elec       q    Type
REMARK                         _______ _______ _______ _____ _____    ______ ____
ROOT
ATOM      1  C   UNL     1       7.938   7.595  17.956  0.00  0.00    +0.000 C 
ATOM      2  O   UNL     1       7.869   7.752  16.745  0.00  0.00    +0.000 OA
ENDROOT
BRANCH   1   4
ATOM      3  C   UNL     1       8.901   9.760  18.442  0.00  0.00    +0.000 C 
ATOM      4  C   UNL     1       8.508   8.566  18.911  0.00  0.00    +0.000 C 
BRANCH   3   9
ATOM      5  C   UNL     1       9.477  12.024  21.373  0.00  0.00    +0.000 A 
ATOM      6  C   UNL     1      10.286  13.024  20.852  0.00  0.00    +0.000 A 
ATOM      7  C   UNL     1      10.678  12.991  19.512  0.00  0.00    +0.000 A 
ATOM      8  C   UNL     1      10.245  11.964  18.660  0.00  0.00    +0.000 A 
ATOM      9  C   UNL     1       9.432  10.933  19.176  0.00  0.00    +0.000 A 
ATOM     10  C   UNL     1       9.068  10.983  20.541  0.00  0.00    +0.000 A 
BRANCH   5  12
ATOM     11  C   UNL     1       8.716  13.465  23.105  0.00  0.00    +0.000 C 
ATOM     12  O   UNL     1       9.153  12.177  22.692  0.00  0.00    +0.000 OA
ENDBRANCH   5  12
BRANCH   8  13
ATOM     13  O   UNL     1      10.619  11.905  17.341  0.00  0.00    +0.000 OA
ATOM     14  C   UNL     1      11.433  12.974  16.864  0.00  0.00    +0.000 C 
ENDBRANCH   8  13
ENDBRANCH   3   9
ENDBRANCH   1   4
BRANCH   1  15
ATOM     15  O   UNL     1       7.394   6.572  18.653  0.00  0.00    +0.000 OA
BRANCH  15  16
ATOM     16  C   UNL     1       7.454   5.315  17.973  0.00  0.00    +0.000 C 
BRANCH  16  17
ATOM     17  C   UNL     1       6.078   5.011  17.385  0.00  0.00    +0.000 C 
ATOM     18  O   UNL     1       5.896   4.920  16.177  0.00  0.00    +0.000 OA
ATOM     19  N   UNL     1       5.088   4.808  18.317  0.00  0.00    +0.000 N 
ATOM     20  H   UNL     1       5.386   4.684  19.287  0.00  0.00    +0.000 HD
BRANCH  19  21
ATOM     21  C   UNL     1       3.744   4.337  17.953  0.00  0.00    +0.000 C 
ATOM     22  C   UNL     1       3.592   2.863  18.352  0.00  0.00    +0.000 C 
ATOM     23  C   UNL     1       2.249   2.212  18.024  0.00  0.00    +0.000 C 
ATOM     24  C   UNL     1       1.015   2.656  18.816  0.00  0.00    +0.000 C 
ATOM     25  C   UNL     1       1.254   3.013  20.282  0.00  0.00    +0.000 C 
ATOM     26  C   UNL     1       1.307   4.516  20.557  0.00  0.00    +0.000 C 
ATOM     27  C   UNL     1       2.524   5.284  20.037  0.00  0.00    +0.000 C 
ATOM     28  C   UNL     1       2.700   5.309  18.516  0.00  0.00    +0.000 C 
ENDBRANCH  19  21
ENDBRANCH  16  17
ENDBRANCH  15  16
ENDBRANCH   1  15
TORSDOF 8
ENDMDL
MODEL 4
REMARK VINA RESULT:      -7.8      1.300      1.629
REMARK  Name = 
REMARK  10 active torsions:
REMARK  status: ('A' for Active; 'I' for Inactive)
REMARK    1  A    between atoms: C_1  and  O_2
REMARK    2  A    between atoms: O_2  and  C_3
REMARK    3  A    between atoms: C_6  and  O_7
REMARK    4  A    between atoms: O_7  and  C_8
REMARK    5  A    between atoms: C_9  and  C_10
REMARK    6  A    between atoms: C_11  and  C_12
REMARK    7  A    between atoms: C_12  and  O_14
REMARK    8  A    between atoms: O_14  and  C_15
REMARK    9  A    between atoms: C_15  and  C_16
REMARK   10  A    between atoms: N_18  and  C_19
REMARK                            x       y       z     vdW  Elec       q    Type
REMARK                         _______ _______ _______ _____ _____    ______ ____
ROOT
ATOM      1  C   UNL     1       7.577   7.507  17.992  0.00  0.00    +0.000 C 
ATOM      2  O   UNL     1       6.836   7.805  17.066  0.00  0.00    +0.000 OA
ENDROOT
BRANCH   1   4
ATOM      3  C   UNL     1       8.629   9.662  18.309  0.00  0.00    +0.000 C 
ATOM      4  C   UNL     1       8.693   8.335  18.493  0.00  0.00    +0.000 C 
BRANCH   3   9
ATOM      5  C   UNL     1      11.267  12.307  17.998  0.00  0.00    +0.000 A 
ATOM      6  C   UNL     1      11.410  12.771  19.299  0.00  0.00    +0.000 A 
ATOM      7  C   UNL     1      10.639  12.233  20.330  0.00  0.00    +0.000 A 
ATOM      8  C   UNL     1       9.725  11.198  20.083  0.00  0.00    +0.000 A 
ATOM      9  C   UNL     1       9.558  10.723  18.766  0.00  0.00    +0.000 A 
ATOM     10  C   UNL     1      10.338  11.301  17.738  0.00  0.00    +0.000 A 
BRANCH   5  12
ATOM     11  C   UNL     1      12.299  14.303  17.220  0.00  0.00    +0.000 C 
ATOM     12  O   UNL     1      12.086  12.904  17.081  0.00  0.00    +0.000 OA
ENDBRANCH   5  12
BRANCH   8  13
ATOM     13  O   UNL     1       8.951  10.656  21.079  0.00  0.00    +0.000 OA
ATOM     14  C   UNL     1       8.513  11.549  22.099  0.00  0.00    +0.000 C 
ENDBRANCH   8  13
ENDBRANCH   3   9
ENDBRANCH   1   4
BRANCH   1  15
ATOM     15  O   UNL     1       7.432   6.437  18.808  0.00  0.00    +0.000 OA
BRANCH  15  16
ATOM     16  C   UNL     1       7.397   5.186  18.115  0.00  0.00    +0.000 C 
BRANCH  16  17
ATOM     17  C   UNL     1       6.003   4.582  18.270  0.00  0.00    +0.000 C 
ATOM     18  O   UNL     1       5.701   3.891  19.235  0.00  0.00    +0.000 OA
ATOM     19  N   UNL     1       5.120   4.912  17.270  0.00  0.00    +0.000 N 
ATOM     20  H   UNL     1       5.399   5.667  16.639  0.00  0.00    +0.000 HD
BRANCH  19  21
ATOM     21  C   UNL     1       3.692   4.572  17.332  0.00  0.00    +0.000 C 
ATOM     22  C   UNL     1       3.520   3.200  17.998  0.00  0.00    +0.000 C 
ATOM     23  C   UNL     1       2.084   2.688  18.123  0.00  0.00    +0.000 C 
ATOM     24  C   UNL     1       1.146   3.394  19.106  0.00  0.00    +0.000 C 
ATOM     25  C   UNL     1       1.791   3.919  20.388  0.00  0.00    +0.000 C 
ATOM     26  C   UNL     1       2.047   5.426  20.384  0.00  0.00    +0.000 C 
ATOM     27  C   UNL     1       3.149   5.951  19.461  0.00  0.00    +0.000 C 
ATOM     28  C   UNL     1       2.922   5.739  17.961  0.00  0.00    +0.000 C 
ENDBRANCH  19  21
ENDBRANCH  16  17
ENDBRANCH  15  16
ENDBRANCH   1  15
TORSDOF 8
ENDMDL
MODEL 5
REMARK VINA RESULT:      -7.8      1.565      3.143
REMARK  Name = 
REMARK  10 active torsions:
REMARK  status: ('A' for Active; 'I' for Inactive)
REMARK    1  A    between atoms: C_1  and  O_2
REMARK    2  A    between atoms: O_2  and  C_3
REMARK    3  A    between atoms: C_6  and  O_7
REMARK    4  A    between atoms: O_7  and  C_8
REMARK    5  A    between atoms: C_9  and  C_10
REMARK    6  A    between atoms: C_11  and  C_12
REMARK    7  A    between atoms: C_12  and  O_14
REMARK    8  A    between atoms: O_14  and  C_15
REMARK    9  A    between atoms: C_15  and  C_16
REMARK   10  A    between atoms: N_18  and  C_19
REMARK                            x       y       z     vdW  Elec       q    Type
REMARK                         _______ _______ _______ _____ _____    ______ ____
ROOT
ATOM      1  C   UNL     1       8.205   8.575  18.161  0.00  0.00    +0.000 C 
ATOM      2  O   UNL     1       7.360   8.881  17.332  0.00  0.00    +0.000 OA
ENDROOT
BRANCH   1   4
ATOM      3  C   UNL     1       8.857  10.821  18.778  0.00  0.00    +0.000 C 
ATOM      4  C   UNL     1       9.150   9.512  18.801  0.00  0.00    +0.000 C 
BRANCH   3   9
ATOM      5  C   UNL     1       9.645  13.406  21.377  0.00  0.00    +0.000 A 
ATOM      6  C   UNL     1      10.735  14.078  20.841  0.00  0.00    +0.000 A 
ATOM      7  C   UNL     1      11.257  13.703  19.602  0.00  0.00    +0.000 A 
ATOM      8  C   UNL     1      10.680  12.661  18.861  0.00  0.00    +0.000 A 
ATOM      9  C   UNL     1       9.579  11.959  19.396  0.00  0.00    +0.000 A 
ATOM     10  C   UNL     1       9.085  12.348  20.662  0.00  0.00    +0.000 A 
BRANCH   5  12
ATOM     11  C   UNL     1       8.729  15.209  22.628  0.00  0.00    +0.000 C 
ATOM     12  O   UNL     1       9.219  13.875  22.588  0.00  0.00    +0.000 OA
ENDBRANCH   5  12
BRANCH   8  13
ATOM     13  O   UNL     1      11.177  12.270  17.643  0.00  0.00    +0.000 OA
ATOM     14  C   UNL     1      11.558  13.312  16.749  0.00  0.00    +0.000 C 
ENDBRANCH   8  13
ENDBRANCH   3   9
ENDBRANCH   1   4
BRANCH   1  15
ATOM     15  O   UNL     1       8.342   7.360  18.740  0.00  0.00    +0.000 OA
BRANCH  15  16
ATOM     16  C   UNL     1       7.654   6.313  18.050  0.00  0.00    +0.000 C 
BRANCH  16  17
ATOM     17  C   UNL     1       6.814   5.534  19.059  0.00  0.00    +0.000 C 
ATOM     18  O   UNL     1       7.262   5.190  20.146  0.00  0.00    +0.000 OA
ATOM     19  N   UNL     1       5.519   5.295  18.665  0.00  0.00    +0.000 N 
ATOM     20  H   UNL     1       5.182   5.812  17.850  0.00  0.00    +0.000 HD
BRANCH  19  21
ATOM     21  C   UNL     1       4.512   4.714  19.565  0.00  0.00    +0.000 C 
ATOM     22  C   UNL     1       3.235   5.565  19.522  0.00  0.00    +0.000 C 
ATOM     23  C   UNL     1       2.089   5.103  20.422  0.00  0.00    +0.000 C 
ATOM     24  C   UNL     1       1.358   3.808  20.058  0.00  0.00    +0.000 C 
ATOM     25  C   UNL     1       1.201   3.524  18.565  0.00  0.00    +0.000 C 
ATOM     26  C   UNL     1       2.185   2.489  18.021  0.00  0.00    +0.000 C 
ATOM     27  C   UNL     1       3.655   2.899  17.921  0.00  0.00    +0.000 C 
ATOM     28  C   UNL     1       4.351   3.223  19.246  0.00  0.00    +0.000 C 
ENDBRANCH  19  21
ENDBRANCH  16  17
ENDBRANCH  15  16
ENDBRANCH   1  15
TORSDOF 8
ENDMDL
MODEL 6
REMARK VINA RESULT:      -7.5      4.887      7.983
REMARK  Name = 
REMARK  10 active torsions:
REMARK  status: ('A' for Active; 'I' for Inactive)
REMARK    1  A    between atoms: C_1  and  O_2
REMARK    2  A    between atoms: O_2  and  C_3
REMARK    3  A    between atoms: C_6  and  O_7
REMARK    4  A    between atoms: O_7  and  C_8
REMARK    5  A    between atoms: C_9  and  C_10
REMARK    6  A    between atoms: C_11  and  C_12
REMARK    7  A    between atoms: C_12  and  O_14
REMARK    8  A    between atoms: O_14  and  C_15
REMARK    9  A    between atoms: C_15  and  C_16
REMARK   10  A    between atoms: N_18  and  C_19
REMARK                            x       y       z     vdW  Elec       q    Type
REMARK                         _______ _______ _______ _____ _____    ______ ____
ROOT
ATOM      1  C   UNL     1       2.138   3.011  18.288  0.00  0.00    +0.000 C 
ATOM      2  O   UNL     1       1.049   3.326  17.831  0.00  0.00    +0.000 OA
ENDROOT
BRANCH   1   4
ATOM      3  C   UNL     1       3.798   4.103  16.909  0.00  0.00    +0.000 C 
ATOM      4  C   UNL     1       3.405   2.981  17.529  0.00  0.00    +0.000 C 
BRANCH   3   9
ATOM      5  C   UNL     1       6.129   4.054  13.973  0.00  0.00    +0.000 A 
ATOM      6  C   UNL     1       7.245   4.736  14.438  0.00  0.00    +0.000 A 
ATOM      7  C   UNL     1       7.273   5.242  15.738  0.00  0.00    +0.000 A 
ATOM      8  C   UNL     1       6.189   5.054  16.609  0.00  0.00    +0.000 A 
ATOM      9  C   UNL     1       5.042   4.374  16.149  0.00  0.00    +0.000 A 
ATOM     10  C   UNL     1       5.035   3.890  14.821  0.00  0.00    +0.000 A 
BRANCH   5  12
ATOM     11  C   UNL     1       5.012   3.344  11.997  0.00  0.00    +0.000 C 
ATOM     12  O   UNL     1       6.228   3.596  12.689  0.00  0.00    +0.000 OA
ENDBRANCH   5  12
BRANCH   8  13
ATOM     13  O   UNL     1       6.190   5.547  17.890  0.00  0.00    +0.000 OA
ATOM     14  C   UNL     1       7.372   6.222  18.310  0.00  0.00    +0.000 C 
ENDBRANCH   8  13
ENDBRANCH   3   9
ENDBRANCH   1   4
BRANCH   1  15
ATOM     15  O   UNL     1       2.408   2.761  19.590  0.00  0.00    +0.000 OA
BRANCH  15  16
ATOM     16  C   UNL     1       1.814   3.699  20.491  0.00  0.00    +0.000 C 
BRANCH  16  17
ATOM     17  C   UNL     1       2.499   5.052  20.310  0.00  0.00    +0.000 C 
ATOM     18  O   UNL     1       3.710   5.148  20.150  0.00  0.00    +0.000 OA
ATOM     19  N   UNL     1       1.647   6.130  20.299  0.00  0.00    +0.000 N 
ATOM     20  H   UNL     1       0.648   5.928  20.214  0.00  0.00    +0.000 HD
BRANCH  19  21
ATOM     21  C   UNL     1       2.095   7.489  19.965  0.00  0.00    +0.000 C 
ATOM     22  C   UNL     1       1.816   7.772  18.483  0.00  0.00    +0.000 C 
ATOM     23  C   UNL     1       2.243   9.147  17.968  0.00  0.00    +0.000 C 
ATOM     24  C   UNL     1       1.466  10.375  18.452  0.00  0.00    +0.000 C 
ATOM     25  C   UNL     1      -0.031  10.173  18.679  0.00  0.00    +0.000 C 
ATOM     26  C   UNL     1      -0.422  10.016  20.149  0.00  0.00    +0.000 C 
ATOM     27  C   UNL     1      -0.009   8.722  20.852  0.00  0.00    +0.000 C 
ATOM     28  C   UNL     1       1.498   8.478  20.974  0.00  0.00    +0.000 C 
ENDBRANCH  19  21
ENDBRANCH  16  17
ENDBRANCH  15  16
ENDBRANCH   1  15
TORSDOF 8
ENDMDL
MODEL 7
REMARK VINA RESULT:      -7.4      1.957      2.431
REMARK  Name = 
REMARK  10 active torsions:
REMARK  status: ('A' for Active; 'I' for Inactive)
REMARK    1  A    between atoms: C_1  and  O_2
REMARK    2  A    between atoms: O_2  and  C_3
REMARK    3  A    between atoms: C_6  and  O_7
REMARK    4  A    between atoms: O_7  and  C_8
REMARK    5  A    between atoms: C_9  and  C_10
REMARK    6  A    between atoms: C_11  and  C_12
REMARK    7  A    between atoms: C_12  and  O_14
REMARK    8  A    between atoms: O_14  and  C_15
REMARK    9  A    between atoms: C_15  and  C_16
REMARK   10  A    between atoms: N_18  and  C_19
REMARK                            x       y       z     vdW  Elec       q    Type
REMARK                         _______ _______ _______ _____ _____    ______ ____
ROOT
ATOM      1  C   UNL     1       8.014   8.149  18.006  0.00  0.00    +0.000 C 
ATOM      2  O   UNL     1       7.045   8.074  17.264  0.00  0.00    +0.000 OA
ENDROOT
BRANCH   1   4
ATOM      3  C   UNL     1       8.598  10.476  17.697  0.00  0.00    +0.000 C 
ATOM      4  C   UNL     1       8.614   9.404  18.503  0.00  0.00    +0.000 C 
BRANCH   3   9
ATOM      5  C   UNL     1       8.360  14.212  17.884  0.00  0.00    +0.000 A 
ATOM      6  C   UNL     1       9.604  14.589  18.371  0.00  0.00    +0.000 A 
ATOM      7  C   UNL     1      10.571  13.625  18.661  0.00  0.00    +0.000 A 
ATOM      8  C   UNL     1      10.319  12.262  18.445  0.00  0.00    +0.000 A 
ATOM      9  C   UNL     1       9.056  11.861  17.962  0.00  0.00    +0.000 A 
ATOM     10  C   UNL     1       8.089  12.858  17.696  0.00  0.00    +0.000 A 
BRANCH   5  12
ATOM     11  C   UNL     1       6.131  15.041  17.925  0.00  0.00    +0.000 C 
ATOM     12  O   UNL     1       7.506  15.248  17.627  0.00  0.00    +0.000 OA
ENDBRANCH   5  12
BRANCH   8  13
ATOM     13  O   UNL     1      11.250  11.295  18.727  0.00  0.00    +0.000 OA
ATOM     14  C   UNL     1      12.309  11.670  19.603  0.00  0.00    +0.000 C 
ENDBRANCH   8  13
ENDBRANCH   3   9
ENDBRANCH   1   4
BRANCH   1  15
ATOM     15  O   UNL     1       8.631   7.107  18.609  0.00  0.00    +0.000 OA
BRANCH  15  16
ATOM     16  C   UNL     1       7.753   6.297  19.397  0.00  0.00    +0.000 C 
BRANCH  16  17
ATOM     17  C   UNL     1       7.104   5.255  18.490  0.00  0.00    +0.000 C 
ATOM     18  O   UNL     1       7.739   4.665  17.624  0.00  0.00    +0.000 OA
ATOM     19  N   UNL     1       5.778   5.009  18.756  0.00  0.00    +0.000 N 
ATOM     20  H   UNL     1       5.406   5.383  19.632  0.00  0.00    +0.000 HD
BRANCH  19  21
ATOM     21  C   UNL     1       5.029   3.922  18.109  0.00  0.00    +0.000 C 
ATOM     22  C   UNL     1       4.433   3.001  19.182  0.00  0.00    +0.000 C 
ATOM     23  C   UNL     1       3.634   1.802  18.671  0.00  0.00    +0.000 C 
ATOM     24  C   UNL     1       2.282   2.064  18.002  0.00  0.00    +0.000 C 
ATOM     25  C   UNL     1       1.468   3.226  18.569  0.00  0.00    +0.000 C 
ATOM     26  C   UNL     1       1.526   4.498  17.723  0.00  0.00    +0.000 C 
ATOM     27  C   UNL     1       2.849   5.266  17.697  0.00  0.00    +0.000 C 
ATOM     28  C   UNL     1       4.045   4.521  17.097  0.00  0.00    +0.000 C 
ENDBRANCH  19  21
ENDBRANCH  16  17
ENDBRANCH  15  16
ENDBRANCH   1  15
TORSDOF 8
ENDMDL
MODEL 8
REMARK VINA RESULT:      -7.4      1.004      1.252
REMARK  Name = 
REMARK  10 active torsions:
REMARK  status: ('A' for Active; 'I' for Inactive)
REMARK    1  A    between atoms: C_1  and  O_2
REMARK    2  A    between atoms: O_2  and  C_3
REMARK    3  A    between atoms: C_6  and  O_7
REMARK    4  A    between atoms: O_7  and  C_8
REMARK    5  A    between atoms: C_9  and  C_10
REMARK    6  A    between atoms: C_11  and  C_12
REMARK    7  A    between atoms: C_12  and  O_14
REMARK    8  A    between atoms: O_14  and  C_15
REMARK    9  A    between atoms: C_15  and  C_16
REMARK   10  A    between atoms: N_18  and  C_19
REMARK                            x       y       z     vdW  Elec       q    Type
REMARK                         _______ _______ _______ _____ _____    ______ ____
ROOT
ATOM      1  C   UNL     1       7.703   8.072  17.652  0.00  0.00    +0.000 C 
ATOM      2  O   UNL     1       6.484   8.129  17.576  0.00  0.00    +0.000 OA
ENDROOT
BRANCH   1   4
ATOM      3  C   UNL     1       8.687   9.983  18.761  0.00  0.00    +0.000 C 
ATOM      4  C   UNL     1       8.613   9.235  17.650  0.00  0.00    +0.000 C 
BRANCH   3   9
ATOM      5  C   UNL     1      10.905  12.913  18.018  0.00  0.00    +0.000 A 
ATOM      6  C   UNL     1      11.229  13.397  19.277  0.00  0.00    +0.000 A 
ATOM      7  C   UNL     1      10.728  12.779  20.424  0.00  0.00    +0.000 A 
ATOM      8  C   UNL     1       9.907  11.644  20.331  0.00  0.00    +0.000 A 
ATOM      9  C   UNL     1       9.557  11.146  19.058  0.00  0.00    +0.000 A 
ATOM     10  C   UNL     1      10.064  11.805  17.915  0.00  0.00    +0.000 A 
BRANCH   5  12
ATOM     11  C   UNL     1      11.342  15.012  16.988  0.00  0.00    +0.000 C 
ATOM     12  O   UNL     1      11.469  13.595  16.976  0.00  0.00    +0.000 OA
ENDBRANCH   5  12
BRANCH   8  13
ATOM     13  O   UNL     1       9.396  11.022  21.442  0.00  0.00    +0.000 OA
ATOM     14  C   UNL     1       8.421  11.748  22.184  0.00  0.00    +0.000 C 
ENDBRANCH   8  13
ENDBRANCH   3   9
ENDBRANCH   1   4
BRANCH   1  15
ATOM     15  O   UNL     1       8.430   6.955  17.883  0.00  0.00    +0.000 OA
BRANCH  15  16
ATOM     16  C   UNL     1       7.842   6.074  18.844  0.00  0.00    +0.000 C 
BRANCH  16  17
ATOM     17  C   UNL     1       7.064   4.990  18.102  0.00  0.00    +0.000 C 
ATOM     18  O   UNL     1       7.570   4.330  17.203  0.00  0.00    +0.000 OA
ATOM     19  N   UNL     1       5.781   4.793  18.555  0.00  0.00    +0.000 N 
ATOM     20  H   UNL     1       5.533   5.231  19.445  0.00  0.00    +0.000 HD
BRANCH  19  21
ATOM     21  C   UNL     1       4.938   3.684  18.086  0.00  0.00    +0.000 C 
ATOM     22  C   UNL     1       4.388   2.912  19.294  0.00  0.00    +0.000 C 
ATOM     23  C   UNL     1       3.501   1.708  18.975  0.00  0.00    +0.000 C 
ATOM     24  C   UNL     1       2.113   1.967  18.382  0.00  0.00    +0.000 C 
ATOM     25  C   UNL     1       1.397   3.223  18.877  0.00  0.00    +0.000 C 
ATOM     26  C   UNL     1       1.444   4.394  17.896  0.00  0.00    +0.000 C 
ATOM     27  C   UNL     1       2.792   5.087  17.691  0.00  0.00    +0.000 C 
ATOM     28  C   UNL     1       3.904   4.222  17.090  0.00  0.00    +0.000 C 
ENDBRANCH  19  21
ENDBRANCH  16  17
ENDBRANCH  15  16
ENDBRANCH   1  15
TORSDOF 8
ENDMDL
MODEL 9
REMARK VINA RESULT:      -7.4      5.360      8.315
REMARK  Name = 
REMARK  10 active torsions:
REMARK  status: ('A' for Active; 'I' for Inactive)
REMARK    1  A    between atoms: C_1  and  O_2
REMARK    2  A    between atoms: O_2  and  C_3
REMARK    3  A    between atoms: C_6  and  O_7
REMARK    4  A    between atoms: O_7  and  C_8
REMARK    5  A    between atoms: C_9  and  C_10
REMARK    6  A    between atoms: C_11  and  C_12
REMARK    7  A    between atoms: C_12  and  O_14
REMARK    8  A    between atoms: O_14  and  C_15
REMARK    9  A    between atoms: C_15  and  C_16
REMARK   10  A    between atoms: N_18  and  C_19
REMARK                            x       y       z     vdW  Elec       q    Type
REMARK                         _______ _______ _______ _____ _____    ______ ____
ROOT
ATOM      1  C   UNL     1       2.079   3.038  19.146  0.00  0.00    +0.000 C 
ATOM      2  O   UNL     1       1.470   2.049  19.529  0.00  0.00    +0.000 OA
ENDROOT
BRANCH   1   4
ATOM      3  C   UNL     1       3.691   4.010  17.627  0.00  0.00    +0.000 C 
ATOM      4  C   UNL     1       3.402   3.023  18.488  0.00  0.00    +0.000 C 
BRANCH   3   9
ATOM      5  C   UNL     1       5.906   4.495  14.642  0.00  0.00    +0.000 A 
ATOM      6  C   UNL     1       7.146   4.768  15.204  0.00  0.00    +0.000 A 
ATOM      7  C   UNL     1       7.301   4.806  16.590  0.00  0.00    +0.000 A 
ATOM      8  C   UNL     1       6.219   4.547  17.445  0.00  0.00    +0.000 A 
ATOM      9  C   UNL     1       4.949   4.280  16.891  0.00  0.00    +0.000 A 
ATOM     10  C   UNL     1       4.818   4.268  15.483  0.00  0.00    +0.000 A 
BRANCH   5  12
ATOM     11  C   UNL     1       6.524   3.373  12.638  0.00  0.00    +0.000 C 
ATOM     12  O   UNL     1       5.887   4.473  13.275  0.00  0.00    +0.000 OA
ENDBRANCH   5  12
BRANCH   8  13
ATOM     13  O   UNL     1       6.343   4.584  18.811  0.00  0.00    +0.000 OA
ATOM     14  C   UNL     1       7.272   5.527  19.338  0.00  0.00    +0.000 C 
ENDBRANCH   8  13
ENDBRANCH   3   9
ENDBRANCH   1   4
BRANCH   1  15
ATOM     15  O   UNL     1       1.605   4.304  19.134  0.00  0.00    +0.000 OA
BRANCH  15  16
ATOM     16  C   UNL     1       1.443   4.871  20.438  0.00  0.00    +0.000 C 
BRANCH  16  17
ATOM     17  C   UNL     1       1.989   6.297  20.422  0.00  0.00    +0.000 C 
ATOM     18  O   UNL     1       2.998   6.597  19.796  0.00  0.00    +0.000 OA
ATOM     19  N   UNL     1       1.235   7.207  21.124  0.00  0.00    +0.000 N 
ATOM     20  H   UNL     1       0.303   6.906  21.418  0.00  0.00    +0.000 HD
BRANCH  19  21
ATOM     21  C   UNL     1       1.499   8.652  21.084  0.00  0.00    +0.000 C 
ATOM     22  C   UNL     1       0.688   9.291  19.948  0.00  0.00    +0.000 C 
ATOM     23  C   UNL     1       0.866  10.797  19.758  0.00  0.00    +0.000 C 
ATOM     24  C   UNL     1       0.295  11.734  20.827  0.00  0.00    +0.000 C 
ATOM     25  C   UNL     1      -1.008  11.285  21.485  0.00  0.00    +0.000 C 
ATOM     26  C   UNL     1      -0.827  10.682  22.878  0.00  0.00    +0.000 C 
ATOM     27  C   UNL     1      -0.156   9.310  22.969  0.00  0.00    +0.000 C 
ATOM     28  C   UNL     1       1.295   9.241  22.485  0.00  0.00    +0.000 C 
ENDBRANCH  19  21
ENDBRANCH  16  17
ENDBRANCH  15  16
ENDBRANCH   1  15
TORSDOF 8
ENDMDL
