MODEL 1
REMARK VINA RESULT:      -8.9      0.000      0.000
REMARK  Name = 
REMARK  6 active torsions:
REMARK  status: ('A' for Active; 'I' for Inactive)
REMARK    1  A    between atoms: C_4  and  O_5
REMARK    2  A    between atoms: C_13  and  N_14
REMARK    3  A    between atoms: N_14  and  S_15
REMARK    4  A    between atoms: S_15  and  C_18
REMARK    5  A    between atoms: C_24  and  O_25
REMARK    6  A    between atoms: C_26  and  O_27
REMARK                            x       y       z     vdW  Elec       q    Type
REMARK                         _______ _______ _______ _____ _____    ______ ____
ROOT
ATOM      1  O   UNL     1       1.409   6.912  21.258  0.00  0.00    +0.000 OA
ATOM      2  C   UNL     1       1.870   7.270  20.179  0.00  0.00    +0.000 A 
ATOM      3  C   UNL     1       1.455   8.573  19.639  0.00  0.00    +0.000 A 
ATOM      4  C   UNL     1       0.554   9.403  20.322  0.00  0.00    +0.000 A 
ATOM      5  C   UNL     1       0.178  10.630  19.782  0.00  0.00    +0.000 A 
ATOM      6  C   UNL     1       0.696  11.033  18.551  0.00  0.00    +0.000 A 
ATOM      7  C   UNL     1       1.591  10.207  17.867  0.00  0.00    +0.000 A 
ATOM      8  C   UNL     1       1.973   8.977  18.413  0.00  0.00    +0.000 A 
ATOM      9  O   UNL     1       2.862   8.236  17.677  0.00  0.00    +0.000 OA
ATOM     10  C   UNL     1       3.254   7.009  18.157  0.00  0.00    +0.000 A 
ATOM     11  C   UNL     1       4.131   6.290  17.328  0.00  0.00    +0.000 A 
ATOM     12  C   UNL     1       4.552   5.012  17.687  0.00  0.00    +0.000 A 
ATOM     13  C   UNL     1       4.148   4.486  18.918  0.00  0.00    +0.000 A 
ATOM     14  C   UNL     1       3.273   5.202  19.752  0.00  0.00    +0.000 A 
ATOM     15  C   UNL     1       2.813   6.467  19.369  0.00  0.00    +0.000 A 
ENDROOT
BRANCH   4  16
ATOM     16  O   UNL     1       0.001   9.069  21.529  0.00  0.00    +0.000 OA
ATOM     17  H   UNL     1       0.446   8.247  21.842  0.00  0.00    +0.000 HD
ENDBRANCH   4  16
BRANCH  12  18
ATOM     18  N   UNL     1       5.388   4.275  16.775  0.00  0.00    +0.000 N 
ATOM     19  H   UNL     1       5.603   3.334  17.111  0.00  0.00    +0.000 HD
BRANCH  18  20
ATOM     20  S   UNL     1       6.807   5.081  16.302  0.00  0.00    +0.000 S 
ATOM     21  O   UNL     1       6.625   6.507  16.456  0.00  0.00    +0.000 OA
ATOM     22  O   UNL     1       7.881   4.351  16.951  0.00  0.00    +0.000 OA
BRANCH  20  23
ATOM     23  C   UNL     1       6.887   4.727  14.557  0.00  0.00    +0.000 A 
ATOM     24  C   UNL     1       6.051   3.744  14.018  0.00  0.00    +0.000 A 
ATOM     25  C   UNL     1       6.096   3.477  12.648  0.00  0.00    +0.000 A 
ATOM     26  C   UNL     1       6.965   4.193  11.822  0.00  0.00    +0.000 A 
ATOM     27  C   UNL     1       7.797   5.174  12.363  0.00  0.00    +0.000 A 
ATOM     28  C   UNL     1       7.762   5.445  13.733  0.00  0.00    +0.000 A 
ENDBRANCH  20  23
ENDBRANCH  18  20
ENDBRANCH  12  18
BRANCH  13  29
ATOM     29  O   UNL     1       4.569   3.253  19.353  0.00  0.00    +0.000 OA
ATOM     30  H   UNL     1       4.617   3.284  20.330  0.00  0.00    +0.000 HD
ENDBRANCH  13  29
BRANCH  14  31
ATOM     31  O   UNL     1       2.900   4.628  20.934  0.00  0.00    +0.000 OA
ATOM     32  H   UNL     1       2.349   5.283  21.403  0.00  0.00    +0.000 HD
ENDBRANCH  14  31
TORSDOF 6
ENDMDL
MODEL 2
REMARK VINA RESULT:      -8.9      0.494      1.039
REMARK  Name = 
REMARK  6 active torsions:
REMARK  status: ('A' for Active; 'I' for Inactive)
REMARK    1  A    between atoms: C_4  and  O_5
REMARK    2  A    between atoms: C_13  and  N_14
REMARK    3  A    between atoms: N_14  and  S_15
REMARK    4  A    between atoms: S_15  and  C_18
REMARK    5  A    between atoms: C_24  and  O_25
REMARK    6  A    between atoms: C_26  and  O_27
REMARK                            x       y       z     vdW  Elec       q    Type
REMARK                         _______ _______ _______ _____ _____    ______ ____
ROOT
ATOM      1  O   UNL     1       1.473   6.256  21.206  0.00  0.00    +0.000 OA
ATOM      2  C   UNL     1       1.991   6.678  20.177  0.00  0.00    +0.000 A 
ATOM      3  C   UNL     1       1.597   8.009  19.690  0.00  0.00    +0.000 A 
ATOM      4  C   UNL     1       0.652   8.793  20.368  0.00  0.00    +0.000 A 
ATOM      5  C   UNL     1       0.297  10.048  19.879  0.00  0.00    +0.000 A 
ATOM      6  C   UNL     1       0.880  10.523  18.704  0.00  0.00    +0.000 A 
ATOM      7  C   UNL     1       1.819   9.742  18.026  0.00  0.00    +0.000 A 
ATOM      8  C   UNL     1       2.180   8.485  18.521  0.00  0.00    +0.000 A 
ATOM      9  O   UNL     1       3.114   7.792  17.794  0.00  0.00    +0.000 OA
ATOM     10  C   UNL     1       3.488   6.541  18.225  0.00  0.00    +0.000 A 
ATOM     11  C   UNL     1       4.416   5.875  17.407  0.00  0.00    +0.000 A 
ATOM     12  C   UNL     1       4.826   4.581  17.715  0.00  0.00    +0.000 A 
ATOM     13  C   UNL     1       4.358   3.982  18.889  0.00  0.00    +0.000 A 
ATOM     14  C   UNL     1       3.432   4.645  19.711  0.00  0.00    +0.000 A 
ATOM     15  C   UNL     1       2.984   5.927  19.377  0.00  0.00    +0.000 A 
ENDROOT
BRANCH   4  16
ATOM     16  O   UNL     1       0.035   8.387  21.520  0.00  0.00    +0.000 OA
ATOM     17  H   UNL     1       0.633   8.610  22.272  0.00  0.00    +0.000 HD
ENDBRANCH   4  16
BRANCH  12  18
ATOM     18  N   UNL     1       5.718   3.901  16.811  0.00  0.00    +0.000 N 
ATOM     19  H   UNL     1       6.065   3.018  17.190  0.00  0.00    +0.000 HD
BRANCH  18  20
ATOM     20  S   UNL     1       7.001   4.851  16.231  0.00  0.00    +0.000 S 
ATOM     21  O   UNL     1       6.718   6.247  16.480  0.00  0.00    +0.000 OA
ATOM     22  O   UNL     1       8.200   4.193  16.720  0.00  0.00    +0.000 OA
BRANCH  20  23
ATOM     23  C   UNL     1       6.915   4.583  14.470  0.00  0.00    +0.000 A 
ATOM     24  C   UNL     1       7.820   5.241  13.632  0.00  0.00    +0.000 A 
ATOM     25  C   UNL     1       7.769   5.019  12.254  0.00  0.00    +0.000 A 
ATOM     26  C   UNL     1       6.824   4.140  11.720  0.00  0.00    +0.000 A 
ATOM     27  C   UNL     1       5.922   3.485  12.560  0.00  0.00    +0.000 A 
ATOM     28  C   UNL     1       5.963   3.705  13.939  0.00  0.00    +0.000 A 
ENDBRANCH  20  23
ENDBRANCH  18  20
ENDBRANCH  12  18
BRANCH  13  29
ATOM     29  O   UNL     1       4.764   2.729  19.275  0.00  0.00    +0.000 OA
ATOM     30  H   UNL     1       5.246   2.329  18.523  0.00  0.00    +0.000 HD
ENDBRANCH  13  29
BRANCH  14  31
ATOM     31  O   UNL     1       2.998   4.001  20.836  0.00  0.00    +0.000 OA
ATOM     32  H   UNL     1       2.189   4.462  21.128  0.00  0.00    +0.000 HD
ENDBRANCH  14  31
TORSDOF 6
ENDMDL
MODEL 3
REMARK VINA RESULT:      -8.7      2.518      7.627
REMARK  Name = 
REMARK  6 active torsions:
REMARK  status: ('A' for Active; 'I' for Inactive)
REMARK    1  A    between atoms: C_4  and  O_5
REMARK    2  A    between atoms: C_13  and  N_14
REMARK    3  A    between atoms: N_14  and  S_15
REMARK    4  A    between atoms: S_15  and  C_18
REMARK    5  A    between atoms: C_24  and  O_25
REMARK    6  A    between atoms: C_26  and  O_27
REMARK                            x       y       z     vdW  Elec       q    Type
REMARK                         _______ _______ _______ _____ _____    ______ ____
ROOT
ATOM      1  O   UNL     1       7.867   6.159  15.751  0.00  0.00    +0.000 OA
ATOM      2  C   UNL     1       7.007   5.303  15.570  0.00  0.00    +0.000 A 
ATOM      3  C   UNL     1       6.864   4.729  14.223  0.00  0.00    +0.000 A 
ATOM      4  C   UNL     1       7.677   5.138  13.156  0.00  0.00    +0.000 A 
ATOM      5  C   UNL     1       7.514   4.579  11.891  0.00  0.00    +0.000 A 
ATOM      6  C   UNL     1       6.531   3.611  11.684  0.00  0.00    +0.000 A 
ATOM      7  C   UNL     1       5.718   3.204  12.744  0.00  0.00    +0.000 A 
ATOM      8  C   UNL     1       5.886   3.762  14.016  0.00  0.00    +0.000 A 
ATOM      9  O   UNL     1       5.049   3.298  14.998  0.00  0.00    +0.000 OA
ATOM     10  C   UNL     1       5.158   3.828  16.262  0.00  0.00    +0.000 A 
ATOM     11  C   UNL     1       4.240   3.334  17.203  0.00  0.00    +0.000 A 
ATOM     12  C   UNL     1       4.221   3.838  18.500  0.00  0.00    +0.000 A 
ATOM     13  C   UNL     1       5.176   4.789  18.873  0.00  0.00    +0.000 A 
ATOM     14  C   UNL     1       6.099   5.284  17.936  0.00  0.00    +0.000 A 
ATOM     15  C   UNL     1       6.087   4.811  16.619  0.00  0.00    +0.000 A 
ENDROOT
BRANCH   4  16
ATOM     16  O   UNL     1       8.655   6.087  13.285  0.00  0.00    +0.000 OA
ATOM     17  H   UNL     1       8.267   6.952  13.017  0.00  0.00    +0.000 HD
ENDBRANCH   4  16
BRANCH  12  18
ATOM     18  N   UNL     1       3.214   3.364  19.415  0.00  0.00    +0.000 N 
ATOM     19  H   UNL     1       3.227   2.348  19.523  0.00  0.00    +0.000 HD
BRANCH  18  20
ATOM     20  S   UNL     1       1.640   3.911  19.083  0.00  0.00    +0.000 S 
ATOM     21  O   UNL     1       1.290   3.575  17.720  0.00  0.00    +0.000 OA
ATOM     22  O   UNL     1       0.850   3.484  20.224  0.00  0.00    +0.000 OA
BRANCH  20  23
ATOM     23  C   UNL     1       1.819   5.682  19.179  0.00  0.00    +0.000 A 
ATOM     24  C   UNL     1       2.108   6.405  18.017  0.00  0.00    +0.000 A 
ATOM     25  C   UNL     1       2.229   7.795  18.083  0.00  0.00    +0.000 A 
ATOM     26  C   UNL     1       2.056   8.457  19.301  0.00  0.00    +0.000 A 
ATOM     27  C   UNL     1       1.768   7.732  20.458  0.00  0.00    +0.000 A 
ATOM     28  C   UNL     1       1.648   6.341  20.402  0.00  0.00    +0.000 A 
ENDBRANCH  20  23
ENDBRANCH  18  20
ENDBRANCH  12  18
BRANCH  13  29
ATOM     29  O   UNL     1       5.243   5.287  20.151  0.00  0.00    +0.000 OA
ATOM     30  H   UNL     1       4.529   4.865  20.671  0.00  0.00    +0.000 HD
ENDBRANCH  13  29
BRANCH  14  31
ATOM     31  O   UNL     1       6.996   6.224  18.356  0.00  0.00    +0.000 OA
ATOM     32  H   UNL     1       7.800   5.742  18.630  0.00  0.00    +0.000 HD
ENDBRANCH  14  31
TORSDOF 6
ENDMDL
MODEL 4
REMARK VINA RESULT:      -8.6      2.430      4.499
REMARK  Name = 
REMARK  6 active torsions:
REMARK  status: ('A' for Active; 'I' for Inactive)
REMARK    1  A    between atoms: C_4  and  O_5
REMARK    2  A    between atoms: C_13  and  N_14
REMARK    3  A    between atoms: N_14  and  S_15
REMARK    4  A    between atoms: S_15  and  C_18
REMARK    5  A    between atoms: C_24  and  O_25
REMARK    6  A    between atoms: C_26  and  O_27
REMARK                            x       y       z     vdW  Elec       q    Type
REMARK                         _______ _______ _______ _____ _____    ______ ____
ROOT
ATOM      1  O   UNL     1       0.146  11.416  18.627  0.00  0.00    +0.000 OA
ATOM      2  C   UNL     1       0.241  10.643  19.574  0.00  0.00    +0.000 A 
ATOM      3  C   UNL     1      -0.492  10.957  20.810  0.00  0.00    +0.000 A 
ATOM      4  C   UNL     1      -1.285  12.108  20.926  0.00  0.00    +0.000 A 
ATOM      5  C   UNL     1      -1.963  12.379  22.112  0.00  0.00    +0.000 A 
ATOM      6  C   UNL     1      -1.847  11.504  23.192  0.00  0.00    +0.000 A 
ATOM      7  C   UNL     1      -1.056  10.358  23.079  0.00  0.00    +0.000 A 
ATOM      8  C   UNL     1      -0.380  10.083  21.886  0.00  0.00    +0.000 A 
ATOM      9  O   UNL     1       0.367   8.933  21.864  0.00  0.00    +0.000 OA
ATOM     10  C   UNL     1       1.070   8.626  20.722  0.00  0.00    +0.000 A 
ATOM     11  C   UNL     1       1.845   7.456  20.789  0.00  0.00    +0.000 A 
ATOM     12  C   UNL     1       2.640   7.076  19.712  0.00  0.00    +0.000 A 
ATOM     13  C   UNL     1       2.600   7.835  18.537  0.00  0.00    +0.000 A 
ATOM     14  C   UNL     1       1.825   9.003  18.465  0.00  0.00    +0.000 A 
ATOM     15  C   UNL     1       1.061   9.411  19.564  0.00  0.00    +0.000 A 
ENDROOT
BRANCH   4  16
ATOM     16  O   UNL     1      -1.437  13.014  19.912  0.00  0.00    +0.000 OA
ATOM     17  H   UNL     1      -2.393  13.030  19.670  0.00  0.00    +0.000 HD
ENDBRANCH   4  16
BRANCH  12  18
ATOM     18  N   UNL     1       3.482   5.915  19.846  0.00  0.00    +0.000 N 
ATOM     19  H   UNL     1       4.476   6.139  19.776  0.00  0.00    +0.000 HD
BRANCH  18  20
ATOM     20  S   UNL     1       3.083   4.626  18.812  0.00  0.00    +0.000 S 
ATOM     21  O   UNL     1       2.965   3.409  19.583  0.00  0.00    +0.000 OA
ATOM     22  O   UNL     1       2.008   5.137  17.980  0.00  0.00    +0.000 OA
BRANCH  20  23
ATOM     23  C   UNL     1       4.539   4.486  17.793  0.00  0.00    +0.000 A 
ATOM     24  C   UNL     1       4.404   4.104  16.455  0.00  0.00    +0.000 A 
ATOM     25  C   UNL     1       5.540   4.013  15.647  0.00  0.00    +0.000 A 
ATOM     26  C   UNL     1       6.800   4.308  16.172  0.00  0.00    +0.000 A 
ATOM     27  C   UNL     1       6.931   4.689  17.508  0.00  0.00    +0.000 A 
ATOM     28  C   UNL     1       5.801   4.779  18.325  0.00  0.00    +0.000 A 
ENDBRANCH  20  23
ENDBRANCH  18  20
ENDBRANCH  12  18
BRANCH  13  29
ATOM     29  O   UNL     1       3.322   7.483  17.423  0.00  0.00    +0.000 OA
ATOM     30  H   UNL     1       2.781   7.705  16.638  0.00  0.00    +0.000 HD
ENDBRANCH  13  29
BRANCH  14  31
ATOM     31  O   UNL     1       1.839   9.711  17.296  0.00  0.00    +0.000 OA
ATOM     32  H   UNL     1       2.137  10.614  17.519  0.00  0.00    +0.000 HD
ENDBRANCH  14  31
TORSDOF 6
ENDMDL
MODEL 5
REMARK VINA RESULT:      -8.5      4.200      9.190
REMARK  Name = 
REMARK  6 active torsions:
REMARK  status: ('A' for Active; 'I' for Inactive)
REMARK    1  A    between atoms: C_4  and  O_5
REMARK    2  A    between atoms: C_13  and  N_14
REMARK    3  A    between atoms: N_14  and  S_15
REMARK    4  A    between atoms: S_15  and  C_18
REMARK    5  A    between atoms: C_24  and  O_25
REMARK    6  A    between atoms: C_26  and  O_27
REMARK                            x       y       z     vdW  Elec       q    Type
REMARK                         _______ _______ _______ _____ _____    ______ ____
ROOT
ATOM      1  O   UNL     1       4.058   5.594  17.560  0.00  0.00    +0.000 OA
ATOM      2  C   UNL     1       3.345   5.772  18.542  0.00  0.00    +0.000 A 
ATOM      3  C   UNL     1       3.190   4.670  19.503  0.00  0.00    +0.000 A 
ATOM      4  C   UNL     1       3.830   3.436  19.320  0.00  0.00    +0.000 A 
ATOM      5  C   UNL     1       3.659   2.410  20.247  0.00  0.00    +0.000 A 
ATOM      6  C   UNL     1       2.842   2.610  21.359  0.00  0.00    +0.000 A 
ATOM      7  C   UNL     1       2.201   3.838  21.541  0.00  0.00    +0.000 A 
ATOM      8  C   UNL     1       2.377   4.870  20.613  0.00  0.00    +0.000 A 
ATOM      9  O   UNL     1       1.716   6.042  20.877  0.00  0.00    +0.000 OA
ATOM     10  C   UNL     1       1.838   7.082  19.985  0.00  0.00    +0.000 A 
ATOM     11  C   UNL     1       1.098   8.234  20.300  0.00  0.00    +0.000 A 
ATOM     12  C   UNL     1       1.102   9.330  19.441  0.00  0.00    +0.000 A 
ATOM     13  C   UNL     1       1.910   9.295  18.300  0.00  0.00    +0.000 A 
ATOM     14  C   UNL     1       2.653   8.146  17.983  0.00  0.00    +0.000 A 
ATOM     15  C   UNL     1       2.613   7.027  18.822  0.00  0.00    +0.000 A 
ENDROOT
BRANCH   4  16
ATOM     16  O   UNL     1       4.640   3.166  18.250  0.00  0.00    +0.000 OA
ATOM     17  H   UNL     1       4.104   2.668  17.590  0.00  0.00    +0.000 HD
ENDBRANCH   4  16
BRANCH  12  18
ATOM     18  N   UNL     1       0.270  10.462  19.758  0.00  0.00    +0.000 N 
ATOM     19  H   UNL     1       0.297  11.184  19.035  0.00  0.00    +0.000 HD
BRANCH  18  20
ATOM     20  S   UNL     1       0.544  11.139  21.292  0.00  0.00    +0.000 S 
ATOM     21  O   UNL     1       0.879  10.090  22.228  0.00  0.00    +0.000 OA
ATOM     22  O   UNL     1       1.410  12.278  21.045  0.00  0.00    +0.000 OA
BRANCH  20  23
ATOM     23  C   UNL     1      -1.067  11.766  21.730  0.00  0.00    +0.000 A 
ATOM     24  C   UNL     1      -1.860  12.362  20.745  0.00  0.00    +0.000 A 
ATOM     25  C   UNL     1      -3.130  12.837  21.078  0.00  0.00    +0.000 A 
ATOM     26  C   UNL     1      -3.606  12.710  22.385  0.00  0.00    +0.000 A 
ATOM     27  C   UNL     1      -2.811  12.114  23.366  0.00  0.00    +0.000 A 
ATOM     28  C   UNL     1      -1.537  11.640  23.042  0.00  0.00    +0.000 A 
ENDBRANCH  20  23
ENDBRANCH  18  20
ENDBRANCH  12  18
BRANCH  13  29
ATOM     29  O   UNL     1       1.997  10.363  17.441  0.00  0.00    +0.000 OA
ATOM     30  H   UNL     1       2.029  10.008  16.530  0.00  0.00    +0.000 HD
ENDBRANCH  13  29
BRANCH  14  31
ATOM     31  O   UNL     1       3.410   8.167  16.846  0.00  0.00    +0.000 OA
ATOM     32  H   UNL     1       3.014   8.837  16.257  0.00  0.00    +0.000 HD
ENDBRANCH  14  31
TORSDOF 6
ENDMDL
MODEL 6
REMARK VINA RESULT:      -8.4      2.107      2.897
REMARK  Name = 
REMARK  6 active torsions:
REMARK  status: ('A' for Active; 'I' for Inactive)
REMARK    1  A    between atoms: C_4  and  O_5
REMARK    2  A    between atoms: C_13  and  N_14
REMARK    3  A    between atoms: N_14  and  S_15
REMARK    4  A    between atoms: S_15  and  C_18
REMARK    5  A    between atoms: C_24  and  O_25
REMARK    6  A    between atoms: C_26  and  O_27
REMARK                            x       y       z     vdW  Elec       q    Type
REMARK                         _______ _______ _______ _____ _____    ______ ____
ROOT
ATOM      1  O   UNL     1       1.460   7.150  21.404  0.00  0.00    +0.000 OA
ATOM      2  C   UNL     1       1.799   7.488  20.275  0.00  0.00    +0.000 A 
ATOM      3  C   UNL     1       1.377   8.808  19.783  0.00  0.00    +0.000 A 
ATOM      4  C   UNL     1       0.603   9.675  20.567  0.00  0.00    +0.000 A 
ATOM      5  C   UNL     1       0.216  10.918  20.070  0.00  0.00    +0.000 A 
ATOM      6  C   UNL     1       0.595  11.297  18.783  0.00  0.00    +0.000 A 
ATOM      7  C   UNL     1       1.364  10.434  17.999  0.00  0.00    +0.000 A 
ATOM      8  C   UNL     1       1.757   9.189  18.500  0.00  0.00    +0.000 A 
ATOM      9  O   UNL     1       2.515   8.410  17.664  0.00  0.00    +0.000 OA
ATOM     10  C   UNL     1       2.911   7.167  18.099  0.00  0.00    +0.000 A 
ATOM     11  C   UNL     1       3.648   6.411  17.173  0.00  0.00    +0.000 A 
ATOM     12  C   UNL     1       4.055   5.117  17.484  0.00  0.00    +0.000 A 
ATOM     13  C   UNL     1       3.783   4.608  18.758  0.00  0.00    +0.000 A 
ATOM     14  C   UNL     1       3.049   5.361  19.689  0.00  0.00    +0.000 A 
ATOM     15  C   UNL     1       2.600   6.645  19.359  0.00  0.00    +0.000 A 
ENDROOT
BRANCH   4  16
ATOM     16  O   UNL     1       0.189   9.366  21.834  0.00  0.00    +0.000 OA
ATOM     17  H   UNL     1       0.928   9.583  22.449  0.00  0.00    +0.000 HD
ENDBRANCH   4  16
BRANCH  12  18
ATOM     18  N   UNL     1       4.740   4.344  16.480  0.00  0.00    +0.000 N 
ATOM     19  H   UNL     1       5.080   3.449  16.836  0.00  0.00    +0.000 HD
BRANCH  18  20
ATOM     20  S   UNL     1       5.980   5.175  15.667  0.00  0.00    +0.000 S 
ATOM     21  O   UNL     1       6.822   4.225  14.974  0.00  0.00    +0.000 OA
ATOM     22  O   UNL     1       5.310   6.271  14.991  0.00  0.00    +0.000 OA
BRANCH  20  23
ATOM     23  C   UNL     1       6.927   5.863  17.012  0.00  0.00    +0.000 A 
ATOM     24  C   UNL     1       7.213   7.232  17.017  0.00  0.00    +0.000 A 
ATOM     25  C   UNL     1       7.938   7.780  18.078  0.00  0.00    +0.000 A 
ATOM     26  C   UNL     1       8.366   6.966  19.129  0.00  0.00    +0.000 A 
ATOM     27  C   UNL     1       8.078   5.601  19.121  0.00  0.00    +0.000 A 
ATOM     28  C   UNL     1       7.357   5.043  18.061  0.00  0.00    +0.000 A 
ENDBRANCH  20  23
ENDBRANCH  18  20
ENDBRANCH  12  18
BRANCH  13  29
ATOM     29  O   UNL     1       4.203   3.359  19.144  0.00  0.00    +0.000 OA
ATOM     30  H   UNL     1       4.348   3.381  20.112  0.00  0.00    +0.000 HD
ENDBRANCH  13  29
BRANCH  14  31
ATOM     31  O   UNL     1       2.801   4.804  20.911  0.00  0.00    +0.000 OA
ATOM     32  H   UNL     1       3.273   3.950  20.931  0.00  0.00    +0.000 HD
ENDBRANCH  14  31
TORSDOF 6
ENDMDL
MODEL 7
REMARK VINA RESULT:      -8.4      4.355      9.184
REMARK  Name = 
REMARK  6 active torsions:
REMARK  status: ('A' for Active; 'I' for Inactive)
REMARK    1  A    between atoms: C_4  and  O_5
REMARK    2  A    between atoms: C_13  and  N_14
REMARK    3  A    between atoms: N_14  and  S_15
REMARK    4  A    between atoms: S_15  and  C_18
REMARK    5  A    between atoms: C_24  and  O_25
REMARK    6  A    between atoms: C_26  and  O_27
REMARK                            x       y       z     vdW  Elec       q    Type
REMARK                         _______ _______ _______ _____ _____    ______ ____
ROOT
ATOM      1  O   UNL     1       3.442   5.559  17.328  0.00  0.00    +0.000 OA
ATOM      2  C   UNL     1       2.921   5.803  18.411  0.00  0.00    +0.000 A 
ATOM      3  C   UNL     1       2.775   4.706  19.380  0.00  0.00    +0.000 A 
ATOM      4  C   UNL     1       3.212   3.405  19.093  0.00  0.00    +0.000 A 
ATOM      5  C   UNL     1       3.056   2.387  20.030  0.00  0.00    +0.000 A 
ATOM      6  C   UNL     1       2.456   2.663  21.259  0.00  0.00    +0.000 A 
ATOM      7  C   UNL     1       2.018   3.957  21.546  0.00  0.00    +0.000 A 
ATOM      8  C   UNL     1       2.180   4.981  20.606  0.00  0.00    +0.000 A 
ATOM      9  O   UNL     1       1.727   6.221  20.976  0.00  0.00    +0.000 OA
ATOM     10  C   UNL     1       1.842   7.259  20.081  0.00  0.00    +0.000 A 
ATOM     11  C   UNL     1       1.318   8.489  20.514  0.00  0.00    +0.000 A 
ATOM     12  C   UNL     1       1.331   9.596  19.671  0.00  0.00    +0.000 A 
ATOM     13  C   UNL     1       1.938   9.486  18.416  0.00  0.00    +0.000 A 
ATOM     14  C   UNL     1       2.466   8.259  17.980  0.00  0.00    +0.000 A 
ATOM     15  C   UNL     1       2.411   7.135  18.810  0.00  0.00    +0.000 A 
ENDROOT
BRANCH   4  16
ATOM     16  O   UNL     1       3.802   3.061  17.907  0.00  0.00    +0.000 OA
ATOM     17  H   UNL     1       3.274   2.326  17.515  0.00  0.00    +0.000 HD
ENDBRANCH   4  16
BRANCH  12  18
ATOM     18  N   UNL     1       0.713  10.817  20.120  0.00  0.00    +0.000 N 
ATOM     19  H   UNL     1       0.574  10.839  21.132  0.00  0.00    +0.000 HD
BRANCH  18  20
ATOM     20  S   UNL     1      -0.722  11.227  19.309  0.00  0.00    +0.000 S 
ATOM     21  O   UNL     1      -0.461  12.306  18.382  0.00  0.00    +0.000 OA
ATOM     22  O   UNL     1      -1.291   9.957  18.895  0.00  0.00    +0.000 OA
BRANCH  20  23
ATOM     23  C   UNL     1      -1.737  11.873  20.625  0.00  0.00    +0.000 A 
ATOM     24  C   UNL     1      -2.884  12.607  20.308  0.00  0.00    +0.000 A 
ATOM     25  C   UNL     1      -3.693  13.098  21.335  0.00  0.00    +0.000 A 
ATOM     26  C   UNL     1      -3.360  12.851  22.669  0.00  0.00    +0.000 A 
ATOM     27  C   UNL     1      -2.214  12.118  22.982  0.00  0.00    +0.000 A 
ATOM     28  C   UNL     1      -1.397  11.627  21.960  0.00  0.00    +0.000 A 
ENDBRANCH  20  23
ENDBRANCH  18  20
ENDBRANCH  12  18
BRANCH  13  29
ATOM     29  O   UNL     1       2.028  10.555  17.559  0.00  0.00    +0.000 OA
ATOM     30  H   UNL     1       1.602  11.321  17.994  0.00  0.00    +0.000 HD
ENDBRANCH  13  29
BRANCH  14  31
ATOM     31  O   UNL     1       3.031   8.211  16.737  0.00  0.00    +0.000 OA
ATOM     32  H   UNL     1       3.973   7.991  16.866  0.00  0.00    +0.000 HD
ENDBRANCH  14  31
TORSDOF 6
ENDMDL
MODEL 8
REMARK VINA RESULT:      -8.3      3.734      5.593
REMARK  Name = 
REMARK  6 active torsions:
REMARK  status: ('A' for Active; 'I' for Inactive)
REMARK    1  A    between atoms: C_4  and  O_5
REMARK    2  A    between atoms: C_13  and  N_14
REMARK    3  A    between atoms: N_14  and  S_15
REMARK    4  A    between atoms: S_15  and  C_18
REMARK    5  A    between atoms: C_24  and  O_25
REMARK    6  A    between atoms: C_26  and  O_27
REMARK                            x       y       z     vdW  Elec       q    Type
REMARK                         _______ _______ _______ _____ _____    ______ ____
ROOT
ATOM      1  O   UNL     1      -0.014  11.624  18.480  0.00  0.00    +0.000 OA
ATOM      2  C   UNL     1       0.007  10.964  19.513  0.00  0.00    +0.000 A 
ATOM      3  C   UNL     1      -0.728  11.471  20.683  0.00  0.00    +0.000 A 
ATOM      4  C   UNL     1      -1.439  12.679  20.641  0.00  0.00    +0.000 A 
ATOM      5  C   UNL     1      -2.120  13.135  21.766  0.00  0.00    +0.000 A 
ATOM      6  C   UNL     1      -2.089  12.388  22.944  0.00  0.00    +0.000 A 
ATOM      7  C   UNL     1      -1.379  11.186  22.989  0.00  0.00    +0.000 A 
ATOM      8  C   UNL     1      -0.700  10.726  21.856  0.00  0.00    +0.000 A 
ATOM      9  O   UNL     1      -0.036   9.533  21.990  0.00  0.00    +0.000 OA
ATOM     10  C   UNL     1       0.667   9.046  20.913  0.00  0.00    +0.000 A 
ATOM     11  C   UNL     1       1.355   7.842  21.138  0.00  0.00    +0.000 A 
ATOM     12  C   UNL     1       2.144   7.284  20.136  0.00  0.00    +0.000 A 
ATOM     13  C   UNL     1       2.182   7.899  18.881  0.00  0.00    +0.000 A 
ATOM     14  C   UNL     1       1.493   9.101  18.650  0.00  0.00    +0.000 A 
ATOM     15  C   UNL     1       0.738   9.687  19.671  0.00  0.00    +0.000 A 
ENDROOT
BRANCH   4  16
ATOM     16  O   UNL     1      -1.506  13.466  19.523  0.00  0.00    +0.000 OA
ATOM     17  H   UNL     1      -2.418  13.838  19.476  0.00  0.00    +0.000 HD
ENDBRANCH   4  16
BRANCH  12  18
ATOM     18  N   UNL     1       2.898   6.092  20.430  0.00  0.00    +0.000 N 
ATOM     19  H   UNL     1       3.637   5.915  19.746  0.00  0.00    +0.000 HD
BRANCH  18  20
ATOM     20  S   UNL     1       1.957   4.698  20.669  0.00  0.00    +0.000 S 
ATOM     21  O   UNL     1       2.305   4.094  21.936  0.00  0.00    +0.000 OA
ATOM     22  O   UNL     1       0.603   5.103  20.337  0.00  0.00    +0.000 OA
BRANCH  20  23
ATOM     23  C   UNL     1       2.534   3.617  19.374  0.00  0.00    +0.000 A 
ATOM     24  C   UNL     1       3.270   2.477  19.710  0.00  0.00    +0.000 A 
ATOM     25  C   UNL     1       3.707   1.616  18.701  0.00  0.00    +0.000 A 
ATOM     26  C   UNL     1       3.404   1.891  17.366  0.00  0.00    +0.000 A 
ATOM     27  C   UNL     1       2.669   3.030  17.033  0.00  0.00    +0.000 A 
ATOM     28  C   UNL     1       2.231   3.898  18.037  0.00  0.00    +0.000 A 
ENDBRANCH  20  23
ENDBRANCH  18  20
ENDBRANCH  12  18
BRANCH  13  29
ATOM     29  O   UNL     1       2.899   7.369  17.836  0.00  0.00    +0.000 OA
ATOM     30  H   UNL     1       3.843   7.582  17.987  0.00  0.00    +0.000 HD
ENDBRANCH  13  29
BRANCH  14  31
ATOM     31  O   UNL     1       1.582   9.662  17.407  0.00  0.00    +0.000 OA
ATOM     32  H   UNL     1       2.525   9.868  17.259  0.00  0.00    +0.000 HD
ENDBRANCH  14  31
TORSDOF 6
ENDMDL
MODEL 9
REMARK VINA RESULT:      -8.2      3.976      5.787
REMARK  Name = 
REMARK  6 active torsions:
REMARK  status: ('A' for Active; 'I' for Inactive)
REMARK    1  A    between atoms: C_4  and  O_5
REMARK    2  A    between atoms: C_13  and  N_14
REMARK    3  A    between atoms: N_14  and  S_15
REMARK    4  A    between atoms: S_15  and  C_18
REMARK    5  A    between atoms: C_24  and  O_25
REMARK    6  A    between atoms: C_26  and  O_27
REMARK                            x       y       z     vdW  Elec       q    Type
REMARK                         _______ _______ _______ _____ _____    ______ ____
ROOT
ATOM      1  O   UNL     1       0.277  11.684  18.861  0.00  0.00    +0.000 OA
ATOM      2  C   UNL     1       0.414  10.732  19.623  0.00  0.00    +0.000 A 
ATOM      3  C   UNL     1      -0.254  10.783  20.933  0.00  0.00    +0.000 A 
ATOM      4  C   UNL     1      -1.032  11.883  21.323  0.00  0.00    +0.000 A 
ATOM      5  C   UNL     1      -1.648  11.902  22.571  0.00  0.00    +0.000 A 
ATOM      6  C   UNL     1      -1.485  10.824  23.441  0.00  0.00    +0.000 A 
ATOM      7  C   UNL     1      -0.708   9.729  23.056  0.00  0.00    +0.000 A 
ATOM      8  C   UNL     1      -0.094   9.707  21.799  0.00  0.00    +0.000 A 
ATOM      9  O   UNL     1       0.643   8.589  21.503  0.00  0.00    +0.000 OA
ATOM     10  C   UNL     1       1.286   8.526  20.289  0.00  0.00    +0.000 A 
ATOM     11  C   UNL     1       2.055   7.370  20.075  0.00  0.00    +0.000 A 
ATOM     12  C   UNL     1       2.794   7.222  18.904  0.00  0.00    +0.000 A 
ATOM     13  C   UNL     1       2.700   8.205  17.914  0.00  0.00    +0.000 A 
ATOM     14  C   UNL     1       1.930   9.362  18.123  0.00  0.00    +0.000 A 
ATOM     15  C   UNL     1       1.225   9.532  19.319  0.00  0.00    +0.000 A 
ENDROOT
BRANCH   4  16
ATOM     16  O   UNL     1      -1.229  12.977  20.525  0.00  0.00    +0.000 OA
ATOM     17  H   UNL     1      -0.407  13.521  20.558  0.00  0.00    +0.000 HD
ENDBRANCH   4  16
BRANCH  12  18
ATOM     18  N   UNL     1       3.632   6.061  18.755  0.00  0.00    +0.000 N 
ATOM     19  H   UNL     1       4.488   6.258  18.233  0.00  0.00    +0.000 HD
BRANCH  18  20
ATOM     20  S   UNL     1       2.846   4.694  18.122  0.00  0.00    +0.000 S 
ATOM     21  O   UNL     1       1.566   5.084  17.574  0.00  0.00    +0.000 OA
ATOM     22  O   UNL     1       3.861   4.012  17.339  0.00  0.00    +0.000 OA
BRANCH  20  23
ATOM     23  C   UNL     1       2.539   3.717  19.582  0.00  0.00    +0.000 A 
ATOM     24  C   UNL     1       1.262   3.720  20.152  0.00  0.00    +0.000 A 
ATOM     25  C   UNL     1       1.011   2.941  21.283  0.00  0.00    +0.000 A 
ATOM     26  C   UNL     1       2.028   2.159  21.836  0.00  0.00    +0.000 A 
ATOM     27  C   UNL     1       3.301   2.158  21.264  0.00  0.00    +0.000 A 
ATOM     28  C   UNL     1       3.562   2.938  20.134  0.00  0.00    +0.000 A 
ENDBRANCH  20  23
ENDBRANCH  18  20
ENDBRANCH  12  18
BRANCH  13  29
ATOM     29  O   UNL     1       3.362   8.093  16.717  0.00  0.00    +0.000 OA
ATOM     30  H   UNL     1       4.039   7.393  16.817  0.00  0.00    +0.000 HD
ENDBRANCH  13  29
BRANCH  14  31
ATOM     31  O   UNL     1       1.891  10.294  17.125  0.00  0.00    +0.000 OA
ATOM     32  H   UNL     1       2.247   9.863  16.325  0.00  0.00    +0.000 HD
ENDBRANCH  14  31
TORSDOF 6
ENDMDL
