MODEL 1
REMARK VINA RESULT:      -7.2      0.000      0.000
REMARK  Name = 
REMARK  8 active torsions:
REMARK  status: ('A' for Active; 'I' for Inactive)
REMARK    1  A    between atoms: C_1  and  C_2
REMARK    2  A    between atoms: C_2  and  C_3
REMARK    3  A    between atoms: C_3  and  N_4
REMARK    4  A    between atoms: N_4  and  C_5
REMARK    5  A    between atoms: N_4  and  C_16
REMARK    6  A    between atoms: C_5  and  C_6
REMARK    7  A    between atoms: C_26  and  C_28
REMARK    8  A    between atoms: C_28  and  N_29
REMARK                            x       y       z     vdW  Elec       q    Type
REMARK                         _______ _______ _______ _____ _____    ______ ____
ROOT
ATOM      1  N   UNL     1       0.920   9.381  19.779  0.00  0.00    +0.000 NA
ENDROOT
BRANCH   1   2
ATOM      2  C   UNL     1       0.693  10.097  18.481  0.00  0.00    +0.000 C 
ATOM      3  C   UNL     1      -0.676   9.848  17.804  0.00  0.00    +0.000 C 
ATOM      4  C   UNL     1      -1.799  10.561  18.545  0.00  0.00    +0.000 C 
ATOM      5  C   UNL     1      -1.616  12.071  18.432  0.00  0.00    +0.000 C 
ATOM      6  C   UNL     1      -0.188  12.521  18.592  0.00  0.00    +0.000 A 
ATOM      7  C   UNL     1       0.090  13.894  18.652  0.00  0.00    +0.000 A 
ATOM      8  C   UNL     1       1.404  14.339  18.729  0.00  0.00    +0.000 A 
ATOM      9  C   UNL     1       2.408  13.393  18.718  0.00  0.00    +0.000 A 
ATOM     10  N   UNL     1       2.182  12.069  18.612  0.00  0.00    +0.000 NA
ATOM     11  C   UNL     1       0.893  11.629  18.578  0.00  0.00    +0.000 A 
ENDBRANCH   1   2
BRANCH   1  12
ATOM     12  C   UNL     1       0.845  10.271  20.958  0.00  0.00    +0.000 C 
BRANCH  12  14
ATOM     13  C   UNL     1      -0.534   8.811  22.715  0.00  0.00    +0.000 C 
ATOM     14  C   UNL     1      -0.219  10.117  22.035  0.00  0.00    +0.000 C 
ATOM     15  C   UNL     1      -0.892  11.199  22.504  0.00  0.00    +0.000 C 
ATOM     16  F   UNL     1      -1.842  10.978  23.446  0.00  0.00    +0.000 F 
BRANCH  15  17
ATOM     17  C   UNL     1      -0.630  12.630  22.121  0.00  0.00    +0.000 C 
BRANCH  17  18
ATOM     18  N   UNL     1      -0.459  13.479  23.298  0.00  0.00    +0.000 NA
ATOM     19  H   UNL     1      -0.580  14.452  23.011  0.00  0.00    +0.000 HD
ATOM     20  H   UNL     1       0.492  13.393  23.641  0.00  0.00    +0.000 HD
ENDBRANCH  17  18
ENDBRANCH  15  17
ENDBRANCH  12  14
ENDBRANCH   1  12
BRANCH   1  21
ATOM     21  C   UNL     1       2.081   8.464  19.852  0.00  0.00    +0.000 C 
BRANCH  21  22
ATOM     22  C   UNL     1       1.780   6.949  19.506  0.00  0.00    +0.000 C 
ATOM     23  C   UNL     1       2.235   6.623  18.051  0.00  0.00    +0.000 C 
ATOM     24  C   UNL     1       3.716   6.344  18.029  0.00  0.00    +0.000 A 
ATOM     25  C   UNL     1       4.577   6.855  17.059  0.00  0.00    +0.000 A 
ATOM     26  C   UNL     1       5.949   6.632  17.176  0.00  0.00    +0.000 A 
ATOM     27  C   UNL     1       6.456   5.889  18.246  0.00  0.00    +0.000 A 
ATOM     28  C   UNL     1       5.591   5.333  19.189  0.00  0.00    +0.000 A 
ATOM     29  C   UNL     1       4.218   5.557  19.079  0.00  0.00    +0.000 A 
ATOM     30  C   UNL     1       3.210   4.990  20.041  0.00  0.00    +0.000 C 
ATOM     31  N   UNL     1       2.331   6.045  20.563  0.00  0.00    +0.000 NA
ATOM     32  H   UNL     1       2.869   6.593  21.228  0.00  0.00    +0.000 HD
ENDBRANCH  21  22
ENDBRANCH   1  21
TORSDOF 7
ENDMDL
MODEL 2
REMARK VINA RESULT:      -7.1      2.335      4.152
REMARK  Name = 
REMARK  8 active torsions:
REMARK  status: ('A' for Active; 'I' for Inactive)
REMARK    1  A    between atoms: C_1  and  C_2
REMARK    2  A    between atoms: C_2  and  C_3
REMARK    3  A    between atoms: C_3  and  N_4
REMARK    4  A    between atoms: N_4  and  C_5
REMARK    5  A    between atoms: N_4  and  C_16
REMARK    6  A    between atoms: C_5  and  C_6
REMARK    7  A    between atoms: C_26  and  C_28
REMARK    8  A    between atoms: C_28  and  N_29
REMARK                            x       y       z     vdW  Elec       q    Type
REMARK                         _______ _______ _______ _____ _____    ______ ____
ROOT
ATOM      1  N   UNL     1       0.133  10.092  18.353  0.00  0.00    +0.000 NA
ENDROOT
BRANCH   1   2
ATOM      2  C   UNL     1       0.876  10.992  19.295  0.00  0.00    +0.000 C 
ATOM      3  C   UNL     1       1.322  12.356  18.716  0.00  0.00    +0.000 C 
ATOM      4  C   UNL     1       0.138  13.297  18.542  0.00  0.00    +0.000 C 
ATOM      5  C   UNL     1      -0.437  13.661  19.908  0.00  0.00    +0.000 C 
ATOM      6  C   UNL     1      -0.519  12.498  20.859  0.00  0.00    +0.000 A 
ATOM      7  C   UNL     1      -1.161  12.672  22.094  0.00  0.00    +0.000 A 
ATOM      8  C   UNL     1      -1.190  11.637  23.019  0.00  0.00    +0.000 A 
ATOM      9  C   UNL     1      -0.550  10.460  22.692  0.00  0.00    +0.000 A 
ATOM     10  N   UNL     1       0.119  10.272  21.538  0.00  0.00    +0.000 NA
ATOM     11  C   UNL     1       0.113  11.272  20.612  0.00  0.00    +0.000 A 
ENDBRANCH   1   2
BRANCH   1  12
ATOM     12  C   UNL     1      -1.331  10.108  18.563  0.00  0.00    +0.000 C 
BRANCH  12  14
ATOM     13  C   UNL     1      -2.326   9.950  16.092  0.00  0.00    +0.000 C 
ATOM     14  C   UNL     1      -2.310  10.536  17.479  0.00  0.00    +0.000 C 
ATOM     15  C   UNL     1      -3.297  11.429  17.749  0.00  0.00    +0.000 C 
ATOM     16  F   UNL     1      -4.115  11.779  16.725  0.00  0.00    +0.000 F 
BRANCH  15  17
ATOM     17  C   UNL     1      -3.605  12.015  19.100  0.00  0.00    +0.000 C 
BRANCH  17  18
ATOM     18  N   UNL     1      -4.825  12.820  19.071  0.00  0.00    +0.000 NA
ATOM     19  H   UNL     1      -4.920  13.223  18.138  0.00  0.00    +0.000 HD
ATOM     20  H   UNL     1      -4.730  13.598  19.716  0.00  0.00    +0.000 HD
ENDBRANCH  17  18
ENDBRANCH  15  17
ENDBRANCH  12  14
ENDBRANCH   1  12
BRANCH   1  21
ATOM     21  C   UNL     1       0.651   8.715  18.180  0.00  0.00    +0.000 C 
BRANCH  21  22
ATOM     22  C   UNL     1       2.149   8.485  18.636  0.00  0.00    +0.000 C 
ATOM     23  C   UNL     1       2.197   7.603  19.921  0.00  0.00    +0.000 C 
ATOM     24  C   UNL     1       2.076   6.148  19.546  0.00  0.00    +0.000 A 
ATOM     25  C   UNL     1       1.263   5.246  20.230  0.00  0.00    +0.000 A 
ATOM     26  C   UNL     1       1.132   3.943  19.751  0.00  0.00    +0.000 A 
ATOM     27  C   UNL     1       1.821   3.539  18.604  0.00  0.00    +0.000 A 
ATOM     28  C   UNL     1       2.675   4.426  17.947  0.00  0.00    +0.000 A 
ATOM     29  C   UNL     1       2.807   5.731  18.421  0.00  0.00    +0.000 A 
ATOM     30  C   UNL     1       3.712   6.752  17.785  0.00  0.00    +0.000 C 
ATOM     31  N   UNL     1       2.981   7.992  17.495  0.00  0.00    +0.000 NA
ATOM     32  H   UNL     1       2.381   7.816  16.693  0.00  0.00    +0.000 HD
ENDBRANCH  21  22
ENDBRANCH   1  21
TORSDOF 7
ENDMDL
MODEL 3
REMARK VINA RESULT:      -7.0      3.392      8.387
REMARK  Name = 
REMARK  8 active torsions:
REMARK  status: ('A' for Active; 'I' for Inactive)
REMARK    1  A    between atoms: C_1  and  C_2
REMARK    2  A    between atoms: C_2  and  C_3
REMARK    3  A    between atoms: C_3  and  N_4
REMARK    4  A    between atoms: N_4  and  C_5
REMARK    5  A    between atoms: N_4  and  C_16
REMARK    6  A    between atoms: C_5  and  C_6
REMARK    7  A    between atoms: C_26  and  C_28
REMARK    8  A    between atoms: C_28  and  N_29
REMARK                            x       y       z     vdW  Elec       q    Type
REMARK                         _______ _______ _______ _____ _____    ______ ____
ROOT
ATOM      1  N   UNL     1       2.711   5.368  17.650  0.00  0.00    +0.000 NA
ENDROOT
BRANCH   1   2
ATOM      2  C   UNL     1       2.084   4.024  17.874  0.00  0.00    +0.000 C 
ATOM      3  C   UNL     1       2.611   2.876  16.981  0.00  0.00    +0.000 C 
ATOM      4  C   UNL     1       4.008   2.442  17.403  0.00  0.00    +0.000 C 
ATOM      5  C   UNL     1       3.957   1.816  18.793  0.00  0.00    +0.000 C 
ATOM      6  C   UNL     1       3.062   2.550  19.754  0.00  0.00    +0.000 A 
ATOM      7  C   UNL     1       3.041   2.158  21.101  0.00  0.00    +0.000 A 
ATOM      8  C   UNL     1       2.175   2.772  21.995  0.00  0.00    +0.000 A 
ATOM      9  C   UNL     1       1.329   3.748  21.509  0.00  0.00    +0.000 A 
ATOM     10  N   UNL     1       1.285   4.117  20.214  0.00  0.00    +0.000 NA
ATOM     11  C   UNL     1       2.164   3.545  19.344  0.00  0.00    +0.000 A 
ENDBRANCH   1   2
BRANCH   1  12
ATOM     12  C   UNL     1       4.088   5.467  18.180  0.00  0.00    +0.000 C 
BRANCH  12  14
ATOM     13  C   UNL     1       5.125   6.482  15.940  0.00  0.00    +0.000 C 
ATOM     14  C   UNL     1       5.268   5.898  17.321  0.00  0.00    +0.000 C 
ATOM     15  C   UNL     1       6.534   5.855  17.810  0.00  0.00    +0.000 C 
ATOM     16  F   UNL     1       7.535   6.233  16.976  0.00  0.00    +0.000 F 
BRANCH  15  17
ATOM     17  C   UNL     1       6.919   5.489  19.217  0.00  0.00    +0.000 C 
BRANCH  17  18
ATOM     18  N   UNL     1       8.232   6.026  19.572  0.00  0.00    +0.000 NA
ATOM     19  H   UNL     1       8.651   5.411  20.271  0.00  0.00    +0.000 HD
ATOM     20  H   UNL     1       8.117   6.933  20.013  0.00  0.00    +0.000 HD
ENDBRANCH  17  18
ENDBRANCH  15  17
ENDBRANCH  12  14
ENDBRANCH   1  12
BRANCH   1  21
ATOM     21  C   UNL     1       1.900   6.560  17.994  0.00  0.00    +0.000 C 
BRANCH  21  22
ATOM     22  C   UNL     1       2.576   7.584  18.993  0.00  0.00    +0.000 C 
ATOM     23  C   UNL     1       2.467   9.037  18.438  0.00  0.00    +0.000 C 
ATOM     24  C   UNL     1       1.108   9.605  18.759  0.00  0.00    +0.000 A 
ATOM     25  C   UNL     1       0.343  10.323  17.843  0.00  0.00    +0.000 A 
ATOM     26  C   UNL     1      -0.947  10.722  18.191  0.00  0.00    +0.000 A 
ATOM     27  C   UNL     1      -1.463  10.419  19.455  0.00  0.00    +0.000 A 
ATOM     28  C   UNL     1      -0.679   9.745  20.392  0.00  0.00    +0.000 A 
ATOM     29  C   UNL     1       0.610   9.340  20.046  0.00  0.00    +0.000 A 
ATOM     30  C   UNL     1       1.531   8.619  20.993  0.00  0.00    +0.000 C 
ATOM     31  N   UNL     1       2.055   7.392  20.382  0.00  0.00    +0.000 NA
ATOM     32  H   UNL     1       1.303   6.709  20.367  0.00  0.00    +0.000 HD
ENDBRANCH  21  22
ENDBRANCH   1  21
TORSDOF 7
ENDMDL
MODEL 4
REMARK VINA RESULT:      -7.0      3.147      8.309
REMARK  Name = 
REMARK  8 active torsions:
REMARK  status: ('A' for Active; 'I' for Inactive)
REMARK    1  A    between atoms: C_1  and  C_2
REMARK    2  A    between atoms: C_2  and  C_3
REMARK    3  A    between atoms: C_3  and  N_4
REMARK    4  A    between atoms: N_4  and  C_5
REMARK    5  A    between atoms: N_4  and  C_16
REMARK    6  A    between atoms: C_5  and  C_6
REMARK    7  A    between atoms: C_26  and  C_28
REMARK    8  A    between atoms: C_28  and  N_29
REMARK                            x       y       z     vdW  Elec       q    Type
REMARK                         _______ _______ _______ _____ _____    ______ ____
ROOT
ATOM      1  N   UNL     1       2.637   6.424  18.269  0.00  0.00    +0.000 NA
ENDROOT
BRANCH   1   2
ATOM      2  C   UNL     1       1.698   5.264  18.405  0.00  0.00    +0.000 C 
ATOM      3  C   UNL     1       1.462   4.431  17.122  0.00  0.00    +0.000 C 
ATOM      4  C   UNL     1       2.677   3.578  16.784  0.00  0.00    +0.000 C 
ATOM      5  C   UNL     1       2.880   2.519  17.863  0.00  0.00    +0.000 C 
ATOM      6  C   UNL     1       2.672   3.032  19.262  0.00  0.00    +0.000 A 
ATOM      7  C   UNL     1       2.969   2.194  20.346  0.00  0.00    +0.000 A 
ATOM      8  C   UNL     1       2.722   2.617  21.646  0.00  0.00    +0.000 A 
ATOM      9  C   UNL     1       2.157   3.863  21.824  0.00  0.00    +0.000 A 
ATOM     10  N   UNL     1       1.812   4.676  20.806  0.00  0.00    +0.000 NA
ATOM     11  C   UNL     1       2.093   4.280  19.533  0.00  0.00    +0.000 A 
ENDBRANCH   1   2
BRANCH   1  12
ATOM     12  C   UNL     1       4.025   6.102  18.665  0.00  0.00    +0.000 C 
BRANCH  12  14
ATOM     13  C   UNL     1       5.069   6.590  16.258  0.00  0.00    +0.000 C 
ATOM     14  C   UNL     1       5.178   6.080  17.671  0.00  0.00    +0.000 C 
ATOM     15  C   UNL     1       6.414   5.667  18.051  0.00  0.00    +0.000 C 
ATOM     16  F   UNL     1       7.383   5.653  17.102  0.00  0.00    +0.000 F 
BRANCH  15  17
ATOM     17  C   UNL     1       6.821   5.288  19.448  0.00  0.00    +0.000 C 
BRANCH  17  18
ATOM     18  N   UNL     1       8.191   5.705  19.741  0.00  0.00    +0.000 NA
ATOM     19  H   UNL     1       8.377   5.523  20.728  0.00  0.00    +0.000 HD
ATOM     20  H   UNL     1       8.274   6.708  19.609  0.00  0.00    +0.000 HD
ENDBRANCH  17  18
ENDBRANCH  15  17
ENDBRANCH  12  14
ENDBRANCH   1  12
BRANCH   1  21
ATOM     21  C   UNL     1       2.193   7.725  18.823  0.00  0.00    +0.000 C 
BRANCH  21  22
ATOM     22  C   UNL     1       1.788   8.822  17.755  0.00  0.00    +0.000 C 
ATOM     23  C   UNL     1       0.311   9.271  17.971  0.00  0.00    +0.000 C 
ATOM     24  C   UNL     1       0.246  10.301  19.069  0.00  0.00    +0.000 A 
ATOM     25  C   UNL     1      -0.719  10.287  20.075  0.00  0.00    +0.000 A 
ATOM     26  C   UNL     1      -0.642  11.218  21.111  0.00  0.00    +0.000 A 
ATOM     27  C   UNL     1       0.384  12.168  21.132  0.00  0.00    +0.000 A 
ATOM     28  C   UNL     1       1.321  12.215  20.099  0.00  0.00    +0.000 A 
ATOM     29  C   UNL     1       1.250  11.283  19.063  0.00  0.00    +0.000 A 
ATOM     30  C   UNL     1       2.208  11.265  17.903  0.00  0.00    +0.000 C 
ATOM     31  N   UNL     1       2.793   9.929  17.727  0.00  0.00    +0.000 NA
ATOM     32  H   UNL     1       3.470   9.789  18.473  0.00  0.00    +0.000 HD
ENDBRANCH  21  22
ENDBRANCH   1  21
TORSDOF 7
ENDMDL
MODEL 5
REMARK VINA RESULT:      -6.9      3.579      8.354
REMARK  Name = 
REMARK  8 active torsions:
REMARK  status: ('A' for Active; 'I' for Inactive)
REMARK    1  A    between atoms: C_1  and  C_2
REMARK    2  A    between atoms: C_2  and  C_3
REMARK    3  A    between atoms: C_3  and  N_4
REMARK    4  A    between atoms: N_4  and  C_5
REMARK    5  A    between atoms: N_4  and  C_16
REMARK    6  A    between atoms: C_5  and  C_6
REMARK    7  A    between atoms: C_26  and  C_28
REMARK    8  A    between atoms: C_28  and  N_29
REMARK                            x       y       z     vdW  Elec       q    Type
REMARK                         _______ _______ _______ _____ _____    ______ ____
ROOT
ATOM      1  N   UNL     1      -1.104  13.260  20.062  0.00  0.00    +0.000 NA
ENDROOT
BRANCH   1   2
ATOM      2  C   UNL     1      -0.208  12.806  21.175  0.00  0.00    +0.000 C 
ATOM      3  C   UNL     1      -0.626  13.241  22.600  0.00  0.00    +0.000 C 
ATOM      4  C   UNL     1      -1.842  12.461  23.083  0.00  0.00    +0.000 C 
ATOM      5  C   UNL     1      -1.477  10.989  23.253  0.00  0.00    +0.000 C 
ATOM      6  C   UNL     1      -0.612  10.449  22.147  0.00  0.00    +0.000 A 
ATOM      7  C   UNL     1      -0.328   9.076  22.113  0.00  0.00    +0.000 A 
ATOM      8  C   UNL     1       0.523   8.560  21.144  0.00  0.00    +0.000 A 
ATOM      9  C   UNL     1       1.090   9.442  20.247  0.00  0.00    +0.000 A 
ATOM     10  N   UNL     1       0.880  10.772  20.278  0.00  0.00    +0.000 NA
ATOM     11  C   UNL     1       0.013  11.274  21.202  0.00  0.00    +0.000 A 
ENDBRANCH   1   2
BRANCH   1  12
ATOM     12  C   UNL     1      -1.561  12.156  19.191  0.00  0.00    +0.000 C 
BRANCH  12  14
ATOM     13  C   UNL     1      -4.141  12.385  19.833  0.00  0.00    +0.000 C 
ATOM     14  C   UNL     1      -3.034  11.842  18.969  0.00  0.00    +0.000 C 
ATOM     15  C   UNL     1      -3.433  11.105  17.900  0.00  0.00    +0.000 C 
ATOM     16  F   UNL     1      -4.759  10.847  17.785  0.00  0.00    +0.000 F 
BRANCH  15  17
ATOM     17  C   UNL     1      -2.541  10.608  16.797  0.00  0.00    +0.000 C 
BRANCH  17  18
ATOM     18  N   UNL     1      -2.703  11.398  15.577  0.00  0.00    +0.000 NA
ATOM     19  H   UNL     1      -1.782  11.533  15.158  0.00  0.00    +0.000 HD
ATOM     20  H   UNL     1      -3.054  12.319  15.817  0.00  0.00    +0.000 HD
ENDBRANCH  17  18
ENDBRANCH  15  17
ENDBRANCH  12  14
ENDBRANCH   1  12
BRANCH   1  21
ATOM     21  C   UNL     1      -0.666  14.438  19.277  0.00  0.00    +0.000 C 
BRANCH  21  22
ATOM     22  C   UNL     1      -0.854  15.842  19.985  0.00  0.00    +0.000 C 
ATOM     23  C   UNL     1       0.485  16.641  19.970  0.00  0.00    +0.000 C 
ATOM     24  C   UNL     1       0.656  17.324  18.637  0.00  0.00    +0.000 A 
ATOM     25  C   UNL     1       1.861  17.341  17.935  0.00  0.00    +0.000 A 
ATOM     26  C   UNL     1       1.902  17.907  16.661  0.00  0.00    +0.000 A 
ATOM     27  C   UNL     1       0.752  18.467  16.098  0.00  0.00    +0.000 A 
ATOM     28  C   UNL     1      -0.442  18.496  16.820  0.00  0.00    +0.000 A 
ATOM     29  C   UNL     1      -0.490  17.928  18.093  0.00  0.00    +0.000 A 
ATOM     30  C   UNL     1      -1.727  17.923  18.949  0.00  0.00    +0.000 C 
ATOM     31  N   UNL     1      -2.034  16.566  19.420  0.00  0.00    +0.000 NA
ATOM     32  H   UNL     1      -2.405  16.042  18.632  0.00  0.00    +0.000 HD
ENDBRANCH  21  22
ENDBRANCH   1  21
TORSDOF 7
ENDMDL
MODEL 6
REMARK VINA RESULT:      -6.9      3.707      7.060
REMARK  Name = 
REMARK  8 active torsions:
REMARK  status: ('A' for Active; 'I' for Inactive)
REMARK    1  A    between atoms: C_1  and  C_2
REMARK    2  A    between atoms: C_2  and  C_3
REMARK    3  A    between atoms: C_3  and  N_4
REMARK    4  A    between atoms: N_4  and  C_5
REMARK    5  A    between atoms: N_4  and  C_16
REMARK    6  A    between atoms: C_5  and  C_6
REMARK    7  A    between atoms: C_26  and  C_28
REMARK    8  A    between atoms: C_28  and  N_29
REMARK                            x       y       z     vdW  Elec       q    Type
REMARK                         _______ _______ _______ _____ _____    ______ ____
ROOT
ATOM      1  N   UNL     1       4.034   6.576  18.146  0.00  0.00    +0.000 NA
ENDROOT
BRANCH   1   2
ATOM      2  C   UNL     1       2.547   6.770  18.181  0.00  0.00    +0.000 C 
ATOM      3  C   UNL     1       1.766   5.832  19.133  0.00  0.00    +0.000 C 
ATOM      4  C   UNL     1       1.984   6.216  20.591  0.00  0.00    +0.000 C 
ATOM      5  C   UNL     1       1.371   7.587  20.861  0.00  0.00    +0.000 C 
ATOM      6  C   UNL     1       1.617   8.586  19.763  0.00  0.00    +0.000 A 
ATOM      7  C   UNL     1       1.230   9.919  19.957  0.00  0.00    +0.000 A 
ATOM      8  C   UNL     1       1.381  10.848  18.934  0.00  0.00    +0.000 A 
ATOM      9  C   UNL     1       1.894  10.407  17.732  0.00  0.00    +0.000 A 
ATOM     10  N   UNL     1       2.231   9.125  17.492  0.00  0.00    +0.000 NA
ATOM     11  C   UNL     1       2.122   8.222  18.507  0.00  0.00    +0.000 A 
ENDBRANCH   1   2
BRANCH   1  12
ATOM     12  C   UNL     1       4.582   6.508  16.775  0.00  0.00    +0.000 C 
BRANCH  12  14
ATOM     13  C   UNL     1       7.164   6.939  17.290  0.00  0.00    +0.000 C 
ATOM     14  C   UNL     1       6.062   6.294  16.493  0.00  0.00    +0.000 C 
ATOM     15  C   UNL     1       6.467   5.418  15.537  0.00  0.00    +0.000 C 
ATOM     16  F   UNL     1       7.801   5.300  15.328  0.00  0.00    +0.000 F 
BRANCH  15  17
ATOM     17  C   UNL     1       5.567   4.518  14.736  0.00  0.00    +0.000 C 
BRANCH  17  18
ATOM     18  N   UNL     1       6.335   3.614  13.880  0.00  0.00    +0.000 NA
ATOM     19  H   UNL     1       6.457   2.730  14.377  0.00  0.00    +0.000 HD
ATOM     20  H   UNL     1       7.264   3.997  13.734  0.00  0.00    +0.000 HD
ENDBRANCH  17  18
ENDBRANCH  15  17
ENDBRANCH  12  14
ENDBRANCH   1  12
BRANCH   1  21
ATOM     21  C   UNL     1       4.600   5.521  19.020  0.00  0.00    +0.000 C 
BRANCH  21  22
ATOM     22  C   UNL     1       4.648   4.067  18.397  0.00  0.00    +0.000 C 
ATOM     23  C   UNL     1       4.640   2.992  19.525  0.00  0.00    +0.000 C 
ATOM     24  C   UNL     1       3.227   2.755  19.994  0.00  0.00    +0.000 A 
ATOM     25  C   UNL     1       2.874   2.647  21.338  0.00  0.00    +0.000 A 
ATOM     26  C   UNL     1       1.528   2.533  21.686  0.00  0.00    +0.000 A 
ATOM     27  C   UNL     1       0.542   2.510  20.696  0.00  0.00    +0.000 A 
ATOM     28  C   UNL     1       0.897   2.566  19.347  0.00  0.00    +0.000 A 
ATOM     29  C   UNL     1       2.241   2.684  18.995  0.00  0.00    +0.000 A 
ATOM     30  C   UNL     1       2.719   2.740  17.569  0.00  0.00    +0.000 C 
ATOM     31  N   UNL     1       3.590   3.903  17.353  0.00  0.00    +0.000 NA
ATOM     32  H   UNL     1       3.000   4.731  17.338  0.00  0.00    +0.000 HD
ENDBRANCH  21  22
ENDBRANCH   1  21
TORSDOF 7
ENDMDL
MODEL 7
REMARK VINA RESULT:      -6.8      2.657      6.421
REMARK  Name = 
REMARK  8 active torsions:
REMARK  status: ('A' for Active; 'I' for Inactive)
REMARK    1  A    between atoms: C_1  and  C_2
REMARK    2  A    between atoms: C_2  and  C_3
REMARK    3  A    between atoms: C_3  and  N_4
REMARK    4  A    between atoms: N_4  and  C_5
REMARK    5  A    between atoms: N_4  and  C_16
REMARK    6  A    between atoms: C_5  and  C_6
REMARK    7  A    between atoms: C_26  and  C_28
REMARK    8  A    between atoms: C_28  and  N_29
REMARK                            x       y       z     vdW  Elec       q    Type
REMARK                         _______ _______ _______ _____ _____    ______ ____
ROOT
ATOM      1  N   UNL     1       2.787   6.473  18.619  0.00  0.00    +0.000 NA
ENDROOT
BRANCH   1   2
ATOM      2  C   UNL     1       1.715   5.431  18.731  0.00  0.00    +0.000 C 
ATOM      3  C   UNL     1       1.269   4.776  17.401  0.00  0.00    +0.000 C 
ATOM      4  C   UNL     1       2.329   3.819  16.872  0.00  0.00    +0.000 C 
ATOM      5  C   UNL     1       2.474   2.634  17.821  0.00  0.00    +0.000 C 
ATOM      6  C   UNL     1       2.449   3.017  19.276  0.00  0.00    +0.000 A 
ATOM      7  C   UNL     1       2.717   2.037  20.243  0.00  0.00    +0.000 A 
ATOM      8  C   UNL     1       2.633   2.347  21.595  0.00  0.00    +0.000 A 
ATOM      9  C   UNL     1       2.255   3.627  21.942  0.00  0.00    +0.000 A 
ATOM     10  N   UNL     1       1.941   4.580  21.043  0.00  0.00    +0.000 NA
ATOM     11  C   UNL     1       2.064   4.291  19.717  0.00  0.00    +0.000 A 
ENDBRANCH   1   2
BRANCH   1  12
ATOM     12  C   UNL     1       2.260   7.855  18.614  0.00  0.00    +0.000 C 
BRANCH  12  14
ATOM     13  C   UNL     1       1.587   7.916  21.195  0.00  0.00    +0.000 C 
ATOM     14  C   UNL     1       1.494   8.445  19.789  0.00  0.00    +0.000 C 
ATOM     15  C   UNL     1       0.736   9.561  19.632  0.00  0.00    +0.000 C 
ATOM     16  F   UNL     1       0.064  10.012  20.720  0.00  0.00    +0.000 F 
BRANCH  15  17
ATOM     17  C   UNL     1       0.630  10.380  18.375  0.00  0.00    +0.000 C 
BRANCH  17  18
ATOM     18  N   UNL     1      -0.616  10.106  17.659  0.00  0.00    +0.000 NA
ATOM     19  H   UNL     1      -1.355   9.958  18.348  0.00  0.00    +0.000 HD
ATOM     20  H   UNL     1      -0.522   9.239  17.140  0.00  0.00    +0.000 HD
ENDBRANCH  17  18
ENDBRANCH  15  17
ENDBRANCH  12  14
ENDBRANCH   1  12
BRANCH   1  21
ATOM     21  C   UNL     1       3.821   6.272  17.578  0.00  0.00    +0.000 C 
BRANCH  21  22
ATOM     22  C   UNL     1       5.255   5.860  18.106  0.00  0.00    +0.000 C 
ATOM     23  C   UNL     1       5.588   4.395  17.687  0.00  0.00    +0.000 C 
ATOM     24  C   UNL     1       6.094   4.373  16.268  0.00  0.00    +0.000 A 
ATOM     25  C   UNL     1       5.684   3.432  15.324  0.00  0.00    +0.000 A 
ATOM     26  C   UNL     1       6.124   3.550  14.005  0.00  0.00    +0.000 A 
ATOM     27  C   UNL     1       6.981   4.591  13.636  0.00  0.00    +0.000 A 
ATOM     28  C   UNL     1       7.433   5.503  14.591  0.00  0.00    +0.000 A 
ATOM     29  C   UNL     1       6.992   5.392  15.910  0.00  0.00    +0.000 A 
ATOM     30  C   UNL     1       7.434   6.321  17.008  0.00  0.00    +0.000 C 
ATOM     31  N   UNL     1       6.277   6.880  17.719  0.00  0.00    +0.000 NA
ATOM     32  H   UNL     1       5.847   7.573  17.111  0.00  0.00    +0.000 HD
ENDBRANCH  21  22
ENDBRANCH   1  21
TORSDOF 7
ENDMDL
MODEL 8
REMARK VINA RESULT:      -6.7      2.374      4.277
REMARK  Name = 
REMARK  8 active torsions:
REMARK  status: ('A' for Active; 'I' for Inactive)
REMARK    1  A    between atoms: C_1  and  C_2
REMARK    2  A    between atoms: C_2  and  C_3
REMARK    3  A    between atoms: C_3  and  N_4
REMARK    4  A    between atoms: N_4  and  C_5
REMARK    5  A    between atoms: N_4  and  C_16
REMARK    6  A    between atoms: C_5  and  C_6
REMARK    7  A    between atoms: C_26  and  C_28
REMARK    8  A    between atoms: C_28  and  N_29
REMARK                            x       y       z     vdW  Elec       q    Type
REMARK                         _______ _______ _______ _____ _____    ______ ____
ROOT
ATOM      1  N   UNL     1      -1.328  10.921  19.472  0.00  0.00    +0.000 NA
ENDROOT
BRANCH   1   2
ATOM      2  C   UNL     1      -2.096  11.715  18.458  0.00  0.00    +0.000 C 
ATOM      3  C   UNL     1      -1.818  11.366  16.976  0.00  0.00    +0.000 C 
ATOM      4  C   UNL     1      -2.441  10.030  16.595  0.00  0.00    +0.000 C 
ATOM      5  C   UNL     1      -3.962  10.132  16.658  0.00  0.00    +0.000 C 
ATOM      6  C   UNL     1      -4.468  10.899  17.849  0.00  0.00    +0.000 A 
ATOM      7  C   UNL     1      -5.847  10.941  18.097  0.00  0.00    +0.000 A 
ATOM      8  C   UNL     1      -6.348  11.698  19.148  0.00  0.00    +0.000 A 
ATOM      9  C   UNL     1      -5.450  12.417  19.911  0.00  0.00    +0.000 A 
ATOM     10  N   UNL     1      -4.124  12.442  19.673  0.00  0.00    +0.000 NA
ATOM     11  C   UNL     1      -3.628  11.666  18.668  0.00  0.00    +0.000 A 
ENDBRANCH   1   2
BRANCH   1  12
ATOM     12  C   UNL     1      -0.551  11.762  20.408  0.00  0.00    +0.000 C 
BRANCH  12  14
ATOM     13  C   UNL     1      -1.739  13.642  21.883  0.00  0.00    +0.000 C 
ATOM     14  C   UNL     1      -1.128  12.276  21.720  0.00  0.00    +0.000 C 
ATOM     15  C   UNL     1      -1.195  11.469  22.810  0.00  0.00    +0.000 C 
ATOM     16  F   UNL     1      -1.699  12.006  23.949  0.00  0.00    +0.000 F 
BRANCH  15  17
ATOM     17  C   UNL     1      -0.823  10.013  22.848  0.00  0.00    +0.000 C 
BRANCH  17  18
ATOM     18  N   UNL     1       0.412   9.793  23.599  0.00  0.00    +0.000 NA
ATOM     19  H   UNL     1       0.812   8.902  23.301  0.00  0.00    +0.000 HD
ATOM     20  H   UNL     1       0.194   9.700  24.586  0.00  0.00    +0.000 HD
ENDBRANCH  17  18
ENDBRANCH  15  17
ENDBRANCH  12  14
ENDBRANCH   1  12
BRANCH   1  21
ATOM     21  C   UNL     1      -0.535   9.773  18.974  0.00  0.00    +0.000 C 
BRANCH  21  22
ATOM     22  C   UNL     1       1.035   9.980  18.956  0.00  0.00    +0.000 C 
ATOM     23  C   UNL     1       1.690   9.268  20.179  0.00  0.00    +0.000 C 
ATOM     24  C   UNL     1       1.869   7.802  19.880  0.00  0.00    +0.000 A 
ATOM     25  C   UNL     1       1.568   6.792  20.792  0.00  0.00    +0.000 A 
ATOM     26  C   UNL     1       1.665   5.458  20.395  0.00  0.00    +0.000 A 
ATOM     27  C   UNL     1       2.078   5.136  19.099  0.00  0.00    +0.000 A 
ATOM     28  C   UNL     1       2.430   6.144  18.201  0.00  0.00    +0.000 A 
ATOM     29  C   UNL     1       2.330   7.479  18.593  0.00  0.00    +0.000 A 
ATOM     30  C   UNL     1       2.698   8.632  17.698  0.00  0.00    +0.000 C 
ATOM     31  N   UNL     1       1.604   9.608  17.624  0.00  0.00    +0.000 NA
ATOM     32  H   UNL     1       0.871   9.207  17.045  0.00  0.00    +0.000 HD
ENDBRANCH  21  22
ENDBRANCH   1  21
TORSDOF 7
ENDMDL
MODEL 9
REMARK VINA RESULT:      -6.6      2.393      4.520
REMARK  Name = 
REMARK  8 active torsions:
REMARK  status: ('A' for Active; 'I' for Inactive)
REMARK    1  A    between atoms: C_1  and  C_2
REMARK    2  A    between atoms: C_2  and  C_3
REMARK    3  A    between atoms: C_3  and  N_4
REMARK    4  A    between atoms: N_4  and  C_5
REMARK    5  A    between atoms: N_4  and  C_16
REMARK    6  A    between atoms: C_5  and  C_6
REMARK    7  A    between atoms: C_26  and  C_28
REMARK    8  A    between atoms: C_28  and  N_29
REMARK                            x       y       z     vdW  Elec       q    Type
REMARK                         _______ _______ _______ _____ _____    ______ ____
ROOT
ATOM      1  N   UNL     1      -0.302  10.453  18.438  0.00  0.00    +0.000 NA
ENDROOT
BRANCH   1   2
ATOM      2  C   UNL     1       0.453  11.394  19.328  0.00  0.00    +0.000 C 
ATOM      3  C   UNL     1       0.858  12.745  18.693  0.00  0.00    +0.000 C 
ATOM      4  C   UNL     1      -0.346  13.661  18.524  0.00  0.00    +0.000 C 
ATOM      5  C   UNL     1      -0.887  14.060  19.894  0.00  0.00    +0.000 C 
ATOM      6  C   UNL     1      -0.921  12.927  20.884  0.00  0.00    +0.000 A 
ATOM      7  C   UNL     1      -1.530  13.131  22.130  0.00  0.00    +0.000 A 
ATOM      8  C   UNL     1      -1.515  12.126  23.089  0.00  0.00    +0.000 A 
ATOM      9  C   UNL     1      -0.865  10.949  22.781  0.00  0.00    +0.000 A 
ATOM     10  N   UNL     1      -0.226  10.735  21.614  0.00  0.00    +0.000 NA
ATOM     11  C   UNL     1      -0.276  11.704  20.657  0.00  0.00    +0.000 A 
ENDBRANCH   1   2
BRANCH   1  12
ATOM     12  C   UNL     1      -1.706  10.252  18.856  0.00  0.00    +0.000 C 
BRANCH  12  14
ATOM     13  C   UNL     1      -3.675  12.048  18.998  0.00  0.00    +0.000 C 
ATOM     14  C   UNL     1      -2.863  11.029  18.243  0.00  0.00    +0.000 C 
ATOM     15  C   UNL     1      -3.168  10.896  16.927  0.00  0.00    +0.000 C 
ATOM     16  F   UNL     1      -4.227  11.603  16.461  0.00  0.00    +0.000 F 
BRANCH  15  17
ATOM     17  C   UNL     1      -2.392  10.086  15.925  0.00  0.00    +0.000 C 
BRANCH  17  18
ATOM     18  N   UNL     1      -3.034  10.100  14.611  0.00  0.00    +0.000 NA
ATOM     19  H   UNL     1      -3.531   9.216  14.488  0.00  0.00    +0.000 HD
ATOM     20  H   UNL     1      -2.322  10.137  13.888  0.00  0.00    +0.000 HD
ENDBRANCH  17  18
ENDBRANCH  15  17
ENDBRANCH  12  14
ENDBRANCH   1  12
BRANCH   1  21
ATOM     21  C   UNL     1       0.359   9.173  18.089  0.00  0.00    +0.000 C 
BRANCH  21  22
ATOM     22  C   UNL     1       1.898   9.077  18.446  0.00  0.00    +0.000 C 
ATOM     23  C   UNL     1       2.095   8.335  19.804  0.00  0.00    +0.000 C 
ATOM     24  C   UNL     1       2.043   6.845  19.584  0.00  0.00    +0.000 A 
ATOM     25  C   UNL     1       1.342   5.973  20.415  0.00  0.00    +0.000 A 
ATOM     26  C   UNL     1       1.261   4.622  20.077  0.00  0.00    +0.000 A 
ATOM     27  C   UNL     1       1.890   4.143  18.925  0.00  0.00    +0.000 A 
ATOM     28  C   UNL     1       2.635   5.005  18.120  0.00  0.00    +0.000 A 
ATOM     29  C   UNL     1       2.716   6.358  18.451  0.00  0.00    +0.000 A 
ATOM     30  C   UNL     1       3.504   7.358  17.650  0.00  0.00    +0.000 C 
ATOM     31  N   UNL     1       2.675   8.518  17.297  0.00  0.00    +0.000 NA
ATOM     32  H   UNL     1       2.031   8.226  16.566  0.00  0.00    +0.000 HD
ENDBRANCH  21  22
ENDBRANCH   1  21
TORSDOF 7
ENDMDL
