MODEL 1
REMARK VINA RESULT:     -10.0      0.000      0.000
REMARK  Name = 
REMARK  4 active torsions:
REMARK  status: ('A' for Active; 'I' for Inactive)
REMARK    1  A    between atoms: C_1  and  C_2
REMARK    2  A    between atoms: C_6  and  C_7
REMARK    3  A    between atoms: C_12  and  N_13
REMARK    4  A    between atoms: C_28  and  C_29
REMARK                            x       y       z     vdW  Elec       q    Type
REMARK                         _______ _______ _______ _____ _____    ______ ____
ROOT
ATOM      1  C   UNL     1      -0.022  10.923  21.781  0.00  0.00    +0.000 A 
ATOM      2  C   UNL     1       0.312  10.887  20.476  0.00  0.00    +0.000 A 
ATOM      3  C   UNL     1       0.975   9.748  19.858  0.00  0.00    +0.000 A 
ATOM      4  C   UNL     1       1.162   9.652  18.485  0.00  0.00    +0.000 A 
ATOM      5  C   UNL     1       1.770   8.512  17.925  0.00  0.00    +0.000 A 
ATOM      6  C   UNL     1       2.251   7.446  18.706  0.00  0.00    +0.000 A 
ATOM      7  C   UNL     1       2.055   7.572  20.096  0.00  0.00    +0.000 A 
ATOM      8  C   UNL     1       1.406   8.698  20.645  0.00  0.00    +0.000 A 
ATOM      9  O   UNL     1       1.152   8.741  22.032  0.00  0.00    +0.000 OA
ATOM     10  C   UNL     1       0.400   9.761  22.642  0.00  0.00    +0.000 A 
ATOM     11  O   UNL     1       0.131   9.684  23.840  0.00  0.00    +0.000 OA
ENDROOT
BRANCH   1  17
ATOM     12  C   UNL     1      -3.126  16.887  24.796  0.00  0.00    +0.000 C 
ATOM     13  C   UNL     1      -2.838  15.514  24.255  0.00  0.00    +0.000 A 
ATOM     14  C   UNL     1      -1.753  15.254  23.494  0.00  0.00    +0.000 A 
ATOM     15  N   UNL     1      -1.532  13.952  23.071  0.00  0.00    +0.000 N 
ATOM     16  C   UNL     1      -0.527  13.377  22.343  0.00  0.00    +0.000 A 
ATOM     17  C   UNL     1      -0.802  12.021  22.319  0.00  0.00    +0.000 A 
ATOM     18  N   UNL     1      -2.003  11.777  22.980  0.00  0.00    +0.000 NA
ATOM     19  C   UNL     1      -2.401  12.953  23.423  0.00  0.00    +0.000 A 
ATOM     20  C   UNL     1      -3.555  13.307  24.220  0.00  0.00    +0.000 A 
ATOM     21  C   UNL     1      -4.558  12.260  24.624  0.00  0.00    +0.000 C 
ATOM     22  N   UNL     1      -3.758  14.538  24.614  0.00  0.00    +0.000 NA
ENDBRANCH   1  17
BRANCH   6  23
ATOM     23  N   UNL     1       2.874   6.360  18.128  0.00  0.00    +0.000 N 
ATOM     24  C   UNL     1       2.337   5.001  18.121  0.00  0.00    +0.000 C 
ATOM     25  C   UNL     1       3.567   4.129  17.890  0.00  0.00    +0.000 C 
ATOM     26  C   UNL     1       4.451   3.932  19.116  0.00  0.00    +0.000 C 
ATOM     27  N   UNL     1       5.816   3.783  18.589  0.00  0.00    +0.000 NA
ATOM     28  C   UNL     1       5.848   4.429  17.265  0.00  0.00    +0.000 C 
ATOM     29  C   UNL     1       4.449   4.960  16.977  0.00  0.00    +0.000 C 
ATOM     30  C   UNL     1       4.173   6.409  17.430  0.00  0.00    +0.000 C 
ATOM     31  H   UNL     1       6.034   2.792  18.485  0.00  0.00    +0.000 HD
ENDBRANCH   6  23
TORSDOF 2
ENDMDL
MODEL 2
REMARK VINA RESULT:      -9.7      0.846      1.607
REMARK  Name = 
REMARK  4 active torsions:
REMARK  status: ('A' for Active; 'I' for Inactive)
REMARK    1  A    between atoms: C_1  and  C_2
REMARK    2  A    between atoms: C_6  and  C_7
REMARK    3  A    between atoms: C_12  and  N_13
REMARK    4  A    between atoms: C_28  and  C_29
REMARK                            x       y       z     vdW  Elec       q    Type
REMARK                         _______ _______ _______ _____ _____    ______ ____
ROOT
ATOM      1  C   UNL     1       0.007  10.810  21.815  0.00  0.00    +0.000 A 
ATOM      2  C   UNL     1       0.306  10.797  20.501  0.00  0.00    +0.000 A 
ATOM      3  C   UNL     1       0.980   9.682  19.852  0.00  0.00    +0.000 A 
ATOM      4  C   UNL     1       1.132   9.606  18.473  0.00  0.00    +0.000 A 
ATOM      5  C   UNL     1       1.754   8.488  17.885  0.00  0.00    +0.000 A 
ATOM      6  C   UNL     1       2.282   7.426  18.640  0.00  0.00    +0.000 A 
ATOM      7  C   UNL     1       2.120   7.532  20.036  0.00  0.00    +0.000 A 
ATOM      8  C   UNL     1       1.458   8.635  20.615  0.00  0.00    +0.000 A 
ATOM      9  O   UNL     1       1.241   8.656  22.009  0.00  0.00    +0.000 OA
ATOM     10  C   UNL     1       0.481   9.651  22.650  0.00  0.00    +0.000 A 
ATOM     11  O   UNL     1       0.245   9.553  23.854  0.00  0.00    +0.000 OA
ENDROOT
BRANCH   1  17
ATOM     12  C   UNL     1      -4.776  15.876  24.216  0.00  0.00    +0.000 C 
ATOM     13  C   UNL     1      -3.544  15.123  23.798  0.00  0.00    +0.000 A 
ATOM     14  C   UNL     1      -3.552  13.788  23.592  0.00  0.00    +0.000 A 
ATOM     15  N   UNL     1      -2.387  13.171  23.163  0.00  0.00    +0.000 N 
ATOM     16  C   UNL     1      -2.095  11.876  22.836  0.00  0.00    +0.000 A 
ATOM     17  C   UNL     1      -0.786  11.882  22.386  0.00  0.00    +0.000 A 
ATOM     18  N   UNL     1      -0.262  13.168  22.496  0.00  0.00    +0.000 NA
ATOM     19  C   UNL     1      -1.251  13.909  22.953  0.00  0.00    +0.000 A 
ATOM     20  C   UNL     1      -1.307  15.331  23.215  0.00  0.00    +0.000 A 
ATOM     21  C   UNL     1      -0.089  16.194  23.023  0.00  0.00    +0.000 C 
ATOM     22  N   UNL     1      -2.410  15.904  23.622  0.00  0.00    +0.000 NA
ENDBRANCH   1  17
BRANCH   6  23
ATOM     23  N   UNL     1       2.916   6.363  18.032  0.00  0.00    +0.000 N 
ATOM     24  C   UNL     1       2.368   5.012  17.940  0.00  0.00    +0.000 C 
ATOM     25  C   UNL     1       3.598   4.139  17.712  0.00  0.00    +0.000 C 
ATOM     26  C   UNL     1       4.436   3.874  18.958  0.00  0.00    +0.000 C 
ATOM     27  N   UNL     1       5.817   3.736  18.475  0.00  0.00    +0.000 NA
ATOM     28  C   UNL     1       5.903   4.444  17.186  0.00  0.00    +0.000 C 
ATOM     29  C   UNL     1       4.521   5.003  16.874  0.00  0.00    +0.000 C 
ATOM     30  C   UNL     1       4.240   6.432  17.385  0.00  0.00    +0.000 C 
ATOM     31  H   UNL     1       6.030   2.749  18.331  0.00  0.00    +0.000 HD
ENDBRANCH   6  23
TORSDOF 2
ENDMDL
MODEL 3
REMARK VINA RESULT:      -9.2      1.425      1.838
REMARK  Name = 
REMARK  4 active torsions:
REMARK  status: ('A' for Active; 'I' for Inactive)
REMARK    1  A    between atoms: C_1  and  C_2
REMARK    2  A    between atoms: C_6  and  C_7
REMARK    3  A    between atoms: C_12  and  N_13
REMARK    4  A    between atoms: C_28  and  C_29
REMARK                            x       y       z     vdW  Elec       q    Type
REMARK                         _______ _______ _______ _____ _____    ______ ____
ROOT
ATOM      1  C   UNL     1       0.053  11.394  20.781  0.00  0.00    +0.000 A 
ATOM      2  C   UNL     1       0.289  10.139  21.213  0.00  0.00    +0.000 A 
ATOM      3  C   UNL     1       1.004   9.149  20.419  0.00  0.00    +0.000 A 
ATOM      4  C   UNL     1       1.388   7.919  20.937  0.00  0.00    +0.000 A 
ATOM      5  C   UNL     1       2.115   7.008  20.147  0.00  0.00    +0.000 A 
ATOM      6  C   UNL     1       2.453   7.266  18.806  0.00  0.00    +0.000 A 
ATOM      7  C   UNL     1       2.046   8.518  18.305  0.00  0.00    +0.000 A 
ATOM      8  C   UNL     1       1.355   9.442  19.116  0.00  0.00    +0.000 A 
ATOM      9  O   UNL     1       1.045  10.718  18.600  0.00  0.00    +0.000 OA
ATOM     10  C   UNL     1       0.474  11.741  19.378  0.00  0.00    +0.000 A 
ATOM     11  O   UNL     1       0.323  12.861  18.892  0.00  0.00    +0.000 OA
ENDROOT
BRANCH   1  17
ATOM     12  C   UNL     1      -2.055  16.573  25.581  0.00  0.00    +0.000 C 
ATOM     13  C   UNL     1      -1.989  15.397  24.647  0.00  0.00    +0.000 A 
ATOM     14  C   UNL     1      -0.967  15.221  23.782  0.00  0.00    +0.000 A 
ATOM     15  N   UNL     1      -0.955  14.086  22.985  0.00  0.00    +0.000 N 
ATOM     16  C   UNL     1      -0.060  13.616  22.064  0.00  0.00    +0.000 A 
ATOM     17  C   UNL     1      -0.541  12.383  21.661  0.00  0.00    +0.000 A 
ATOM     18  N   UNL     1      -1.758  12.129  22.290  0.00  0.00    +0.000 NA
ATOM     19  C   UNL     1      -1.963  13.164  23.080  0.00  0.00    +0.000 A 
ATOM     20  C   UNL     1      -3.039  13.427  24.011  0.00  0.00    +0.000 A 
ATOM     21  C   UNL     1      -4.186  12.462  24.148  0.00  0.00    +0.000 C 
ATOM     22  N   UNL     1      -3.044  14.500  24.758  0.00  0.00    +0.000 NA
ENDBRANCH   1  17
BRANCH   6  23
ATOM     23  N   UNL     1       3.137   6.336  18.050  0.00  0.00    +0.000 N 
ATOM     24  C   UNL     1       2.735   4.941  17.887  0.00  0.00    +0.000 C 
ATOM     25  C   UNL     1       4.024   4.241  17.471  0.00  0.00    +0.000 C 
ATOM     26  C   UNL     1       5.007   3.980  18.607  0.00  0.00    +0.000 C 
ATOM     27  N   UNL     1       6.340   4.045  17.990  0.00  0.00    +0.000 NA
ATOM     28  C   UNL     1       6.216   4.858  16.767  0.00  0.00    +0.000 C 
ATOM     29  C   UNL     1       4.757   5.272  16.633  0.00  0.00    +0.000 C 
ATOM     30  C   UNL     1       4.373   6.612  17.295  0.00  0.00    +0.000 C 
ATOM     31  H   UNL     1       6.645   3.105  17.739  0.00  0.00    +0.000 HD
ENDBRANCH   6  23
TORSDOF 2
ENDMDL
MODEL 4
REMARK VINA RESULT:      -9.1      1.879      2.356
REMARK  Name = 
REMARK  4 active torsions:
REMARK  status: ('A' for Active; 'I' for Inactive)
REMARK    1  A    between atoms: C_1  and  C_2
REMARK    2  A    between atoms: C_6  and  C_7
REMARK    3  A    between atoms: C_12  and  N_13
REMARK    4  A    between atoms: C_28  and  C_29
REMARK                            x       y       z     vdW  Elec       q    Type
REMARK                         _______ _______ _______ _____ _____    ______ ____
ROOT
ATOM      1  C   UNL     1       0.209  10.844  20.141  0.00  0.00    +0.000 A 
ATOM      2  C   UNL     1       0.490   9.590  20.546  0.00  0.00    +0.000 A 
ATOM      3  C   UNL     1       1.337   8.682  19.784  0.00  0.00    +0.000 A 
ATOM      4  C   UNL     1       1.755   7.457  20.289  0.00  0.00    +0.000 A 
ATOM      5  C   UNL     1       2.609   6.629  19.534  0.00  0.00    +0.000 A 
ATOM      6  C   UNL     1       3.045   6.965  18.240  0.00  0.00    +0.000 A 
ATOM      7  C   UNL     1       2.600   8.209  17.751  0.00  0.00    +0.000 A 
ATOM      8  C   UNL     1       1.780   9.051  18.530  0.00  0.00    +0.000 A 
ATOM      9  O   UNL     1       1.432  10.326  18.035  0.00  0.00    +0.000 OA
ATOM     10  C   UNL     1       0.727  11.276  18.795  0.00  0.00    +0.000 A 
ATOM     11  O   UNL     1       0.545  12.405  18.340  0.00  0.00    +0.000 OA
ENDROOT
BRANCH   1  17
ATOM     12  C   UNL     1      -2.930  15.160  25.222  0.00  0.00    +0.000 C 
ATOM     13  C   UNL     1      -2.636  14.311  24.017  0.00  0.00    +0.000 A 
ATOM     14  C   UNL     1      -1.379  13.943  23.686  0.00  0.00    +0.000 A 
ATOM     15  N   UNL     1      -1.193  13.120  22.585  0.00  0.00    +0.000 N 
ATOM     16  C   UNL     1      -0.076  12.556  22.034  0.00  0.00    +0.000 A 
ATOM     17  C   UNL     1      -0.525  11.754  20.999  0.00  0.00    +0.000 A 
ATOM     18  N   UNL     1      -1.908  11.876  20.881  0.00  0.00    +0.000 NA
ATOM     19  C   UNL     1      -2.269  12.691  21.853  0.00  0.00    +0.000 A 
ATOM     20  C   UNL     1      -3.584  13.142  22.250  0.00  0.00    +0.000 A 
ATOM     21  C   UNL     1      -4.805  12.723  21.475  0.00  0.00    +0.000 C 
ATOM     22  N   UNL     1      -3.751  13.920  23.288  0.00  0.00    +0.000 NA
ENDBRANCH   1  17
BRANCH   6  23
ATOM     23  N   UNL     1       3.853   6.113  17.516  0.00  0.00    +0.000 N 
ATOM     24  C   UNL     1       3.864   4.660  17.655  0.00  0.00    +0.000 C 
ATOM     25  C   UNL     1       5.226   4.254  17.101  0.00  0.00    +0.000 C 
ATOM     26  C   UNL     1       6.399   4.501  18.042  0.00  0.00    +0.000 C 
ATOM     27  N   UNL     1       7.545   4.788  17.166  0.00  0.00    +0.000 NA
ATOM     28  C   UNL     1       7.006   5.270  15.883  0.00  0.00    +0.000 C 
ATOM     29  C   UNL     1       5.486   5.247  15.983  0.00  0.00    +0.000 C 
ATOM     30  C   UNL     1       4.825   6.545  16.493  0.00  0.00    +0.000 C 
ATOM     31  H   UNL     1       8.075   3.931  17.008  0.00  0.00    +0.000 HD
ENDBRANCH   6  23
TORSDOF 2
ENDMDL
MODEL 5
REMARK VINA RESULT:      -9.1      1.123      1.488
REMARK  Name = 
REMARK  4 active torsions:
REMARK  status: ('A' for Active; 'I' for Inactive)
REMARK    1  A    between atoms: C_1  and  C_2
REMARK    2  A    between atoms: C_6  and  C_7
REMARK    3  A    between atoms: C_12  and  N_13
REMARK    4  A    between atoms: C_28  and  C_29
REMARK                            x       y       z     vdW  Elec       q    Type
REMARK                         _______ _______ _______ _____ _____    ______ ____
ROOT
ATOM      1  C   UNL     1      -0.015  10.683  21.528  0.00  0.00    +0.000 A 
ATOM      2  C   UNL     1       0.450  10.488  20.279  0.00  0.00    +0.000 A 
ATOM      3  C   UNL     1       1.153   9.278  19.874  0.00  0.00    +0.000 A 
ATOM      4  C   UNL     1       1.478   9.016  18.549  0.00  0.00    +0.000 A 
ATOM      5  C   UNL     1       2.121   7.813  18.197  0.00  0.00    +0.000 A 
ATOM      6  C   UNL     1       2.499   6.847  19.147  0.00  0.00    +0.000 A 
ATOM      7  C   UNL     1       2.163   7.142  20.483  0.00  0.00    +0.000 A 
ATOM      8  C   UNL     1       1.482   8.329  20.822  0.00  0.00    +0.000 A 
ATOM      9  O   UNL     1       1.087   8.542  22.160  0.00  0.00    +0.000 OA
ATOM     10  C   UNL     1       0.295   9.632  22.561  0.00  0.00    +0.000 A 
ATOM     11  O   UNL     1      -0.097   9.702  23.725  0.00  0.00    +0.000 OA
ENDROOT
BRANCH   1  17
ATOM     12  C   UNL     1      -3.293  17.075  23.171  0.00  0.00    +0.000 C 
ATOM     13  C   UNL     1      -2.940  15.624  23.002  0.00  0.00    +0.000 A 
ATOM     14  C   UNL     1      -1.941  15.215  22.190  0.00  0.00    +0.000 A 
ATOM     15  N   UNL     1      -1.645  13.862  22.124  0.00  0.00    +0.000 N 
ATOM     16  C   UNL     1      -0.690  13.159  21.444  0.00  0.00    +0.000 A 
ATOM     17  C   UNL     1      -0.827  11.842  21.846  0.00  0.00    +0.000 A 
ATOM     18  N   UNL     1      -1.903  11.733  22.723  0.00  0.00    +0.000 NA
ATOM     19  C   UNL     1      -2.357  12.961  22.871  0.00  0.00    +0.000 A 
ATOM     20  C   UNL     1      -3.429  13.465  23.702  0.00  0.00    +0.000 A 
ATOM     21  C   UNL     1      -4.261  12.525  24.533  0.00  0.00    +0.000 C 
ATOM     22  N   UNL     1      -3.703  14.742  23.758  0.00  0.00    +0.000 NA
ENDBRANCH   1  17
BRANCH   6  23
ATOM     23  N   UNL     1       3.159   5.695  18.771  0.00  0.00    +0.000 N 
ATOM     24  C   UNL     1       3.684   5.439  17.432  0.00  0.00    +0.000 C 
ATOM     25  C   UNL     1       3.797   3.919  17.374  0.00  0.00    +0.000 C 
ATOM     26  C   UNL     1       2.478   3.186  17.159  0.00  0.00    +0.000 C 
ATOM     27  N   UNL     1       2.629   1.901  17.858  0.00  0.00    +0.000 NA
ATOM     28  C   UNL     1       3.665   2.083  18.890  0.00  0.00    +0.000 C 
ATOM     29  C   UNL     1       4.169   3.517  18.790  0.00  0.00    +0.000 C 
ATOM     30  C   UNL     1       3.432   4.554  19.664  0.00  0.00    +0.000 C 
ATOM     31  H   UNL     1       2.937   1.188  17.196  0.00  0.00    +0.000 HD
ENDBRANCH   6  23
TORSDOF 2
ENDMDL
MODEL 6
REMARK VINA RESULT:      -9.0      1.650     10.578
REMARK  Name = 
REMARK  4 active torsions:
REMARK  status: ('A' for Active; 'I' for Inactive)
REMARK    1  A    between atoms: C_1  and  C_2
REMARK    2  A    between atoms: C_6  and  C_7
REMARK    3  A    between atoms: C_12  and  N_13
REMARK    4  A    between atoms: C_28  and  C_29
REMARK                            x       y       z     vdW  Elec       q    Type
REMARK                         _______ _______ _______ _____ _____    ______ ____
ROOT
ATOM      1  C   UNL     1       1.925   8.460  19.330  0.00  0.00    +0.000 A 
ATOM      2  C   UNL     1       1.501   8.353  20.605  0.00  0.00    +0.000 A 
ATOM      3  C   UNL     1       0.664   9.356  21.249  0.00  0.00    +0.000 A 
ATOM      4  C   UNL     1       0.096   9.157  22.501  0.00  0.00    +0.000 A 
ATOM      5  C   UNL     1      -0.742  10.136  23.067  0.00  0.00    +0.000 A 
ATOM      6  C   UNL     1      -1.016  11.362  22.434  0.00  0.00    +0.000 A 
ATOM      7  C   UNL     1      -0.421  11.540  21.169  0.00  0.00    +0.000 A 
ATOM      8  C   UNL     1       0.382  10.536  20.590  0.00  0.00    +0.000 A 
ATOM      9  O   UNL     1       0.884  10.721  19.284  0.00  0.00    +0.000 OA
ATOM     10  C   UNL     1       1.584   9.722  18.584  0.00  0.00    +0.000 A 
ATOM     11  O   UNL     1       1.904   9.913  17.411  0.00  0.00    +0.000 OA
ENDROOT
BRANCH   1  17
ATOM     12  C   UNL     1       5.765   3.573  15.370  0.00  0.00    +0.000 C 
ATOM     13  C   UNL     1       4.811   4.251  16.314  0.00  0.00    +0.000 A 
ATOM     14  C   UNL     1       4.935   5.554  16.650  0.00  0.00    +0.000 A 
ATOM     15  N   UNL     1       3.989   6.119  17.491  0.00  0.00    +0.000 N 
ATOM     16  C   UNL     1       3.822   7.389  17.970  0.00  0.00    +0.000 A 
ATOM     17  C   UNL     1       2.641   7.372  18.692  0.00  0.00    +0.000 A 
ATOM     18  N   UNL     1       2.122   6.080  18.705  0.00  0.00    +0.000 NA
ATOM     19  C   UNL     1       2.949   5.365  17.968  0.00  0.00    +0.000 A 
ATOM     20  C   UNL     1       2.890   3.971  17.586  0.00  0.00    +0.000 A 
ATOM     21  C   UNL     1       1.783   3.084  18.091  0.00  0.00    +0.000 C 
ATOM     22  N   UNL     1       3.787   3.445  16.794  0.00  0.00    +0.000 NA
ENDBRANCH   1  17
BRANCH   6  23
ATOM     23  N   UNL     1      -1.814  12.314  23.034  0.00  0.00    +0.000 N 
ATOM     24  C   UNL     1      -3.138  12.054  23.593  0.00  0.00    +0.000 C 
ATOM     25  C   UNL     1      -3.796  13.430  23.614  0.00  0.00    +0.000 C 
ATOM     26  C   UNL     1      -4.300  13.919  22.260  0.00  0.00    +0.000 C 
ATOM     27  N   UNL     1      -4.171  15.383  22.304  0.00  0.00    +0.000 NA
ATOM     28  C   UNL     1      -3.141  15.702  23.308  0.00  0.00    +0.000 C 
ATOM     29  C   UNL     1      -2.655  14.387  23.905  0.00  0.00    +0.000 C 
ATOM     30  C   UNL     1      -1.448  13.733  23.201  0.00  0.00    +0.000 C 
ATOM     31  H   UNL     1      -5.059  15.794  22.591  0.00  0.00    +0.000 HD
ENDBRANCH   6  23
TORSDOF 2
ENDMDL
MODEL 7
REMARK VINA RESULT:      -8.9      1.778      2.103
REMARK  Name = 
REMARK  4 active torsions:
REMARK  status: ('A' for Active; 'I' for Inactive)
REMARK    1  A    between atoms: C_1  and  C_2
REMARK    2  A    between atoms: C_6  and  C_7
REMARK    3  A    between atoms: C_12  and  N_13
REMARK    4  A    between atoms: C_28  and  C_29
REMARK                            x       y       z     vdW  Elec       q    Type
REMARK                         _______ _______ _______ _____ _____    ______ ____
ROOT
ATOM      1  C   UNL     1      -0.059  10.800  20.918  0.00  0.00    +0.000 A 
ATOM      2  C   UNL     1       0.583  10.564  19.758  0.00  0.00    +0.000 A 
ATOM      3  C   UNL     1       1.278   9.315  19.476  0.00  0.00    +0.000 A 
ATOM      4  C   UNL     1       1.790   9.017  18.219  0.00  0.00    +0.000 A 
ATOM      5  C   UNL     1       2.417   7.780  17.980  0.00  0.00    +0.000 A 
ATOM      6  C   UNL     1       2.595   6.811  18.983  0.00  0.00    +0.000 A 
ATOM      7  C   UNL     1       2.072   7.142  20.250  0.00  0.00    +0.000 A 
ATOM      8  C   UNL     1       1.408   8.366  20.470  0.00  0.00    +0.000 A 
ATOM      9  O   UNL     1       0.822   8.617  21.729  0.00  0.00    +0.000 OA
ATOM     10  C   UNL     1       0.034   9.751  21.995  0.00  0.00    +0.000 A 
ATOM     11  O   UNL     1      -0.529   9.858  23.083  0.00  0.00    +0.000 OA
ENDROOT
BRANCH   1  17
ATOM     12  C   UNL     1      -3.699  16.943  22.738  0.00  0.00    +0.000 C 
ATOM     13  C   UNL     1      -3.252  15.648  22.121  0.00  0.00    +0.000 A 
ATOM     14  C   UNL     1      -2.005  15.158  22.300  0.00  0.00    +0.000 A 
ATOM     15  N   UNL     1      -1.682  13.934  21.736  0.00  0.00    +0.000 N 
ATOM     16  C   UNL     1      -0.546  13.173  21.771  0.00  0.00    +0.000 A 
ATOM     17  C   UNL     1      -0.850  12.002  21.098  0.00  0.00    +0.000 A 
ATOM     18  N   UNL     1      -2.150  12.074  20.602  0.00  0.00    +0.000 NA
ATOM     19  C   UNL     1      -2.615  13.237  21.013  0.00  0.00    +0.000 A 
ATOM     20  C   UNL     1      -3.923  13.830  20.843  0.00  0.00    +0.000 A 
ATOM     21  C   UNL     1      -4.986  13.125  20.044  0.00  0.00    +0.000 C 
ATOM     22  N   UNL     1      -4.220  14.987  21.376  0.00  0.00    +0.000 NA
ENDBRANCH   1  17
BRANCH   6  23
ATOM     23  N   UNL     1       3.246   5.623  18.722  0.00  0.00    +0.000 N 
ATOM     24  C   UNL     1       3.805   5.250  17.426  0.00  0.00    +0.000 C 
ATOM     25  C   UNL     1       3.894   3.729  17.496  0.00  0.00    +0.000 C 
ATOM     26  C   UNL     1       2.570   2.999  17.301  0.00  0.00    +0.000 C 
ATOM     27  N   UNL     1       2.679   1.774  18.107  0.00  0.00    +0.000 NA
ATOM     28  C   UNL     1       3.688   2.026  19.151  0.00  0.00    +0.000 C 
ATOM     29  C   UNL     1       4.218   3.439  18.949  0.00  0.00    +0.000 C 
ATOM     30  C   UNL     1       3.474   4.554  19.714  0.00  0.00    +0.000 C 
ATOM     31  H   UNL     1       2.993   1.005  17.515  0.00  0.00    +0.000 HD
ENDBRANCH   6  23
TORSDOF 2
ENDMDL
MODEL 8
REMARK VINA RESULT:      -8.9      1.829     10.598
REMARK  Name = 
REMARK  4 active torsions:
REMARK  status: ('A' for Active; 'I' for Inactive)
REMARK    1  A    between atoms: C_1  and  C_2
REMARK    2  A    between atoms: C_6  and  C_7
REMARK    3  A    between atoms: C_12  and  N_13
REMARK    4  A    between atoms: C_28  and  C_29
REMARK                            x       y       z     vdW  Elec       q    Type
REMARK                         _______ _______ _______ _____ _____    ______ ____
ROOT
ATOM      1  C   UNL     1       1.813   8.455  19.167  0.00  0.00    +0.000 A 
ATOM      2  C   UNL     1       1.404   8.417  20.450  0.00  0.00    +0.000 A 
ATOM      3  C   UNL     1       0.491   9.397  21.021  0.00  0.00    +0.000 A 
ATOM      4  C   UNL     1      -0.054   9.254  22.290  0.00  0.00    +0.000 A 
ATOM      5  C   UNL     1      -0.967  10.205  22.786  0.00  0.00    +0.000 A 
ATOM      6  C   UNL     1      -1.343  11.349  22.060  0.00  0.00    +0.000 A 
ATOM      7  C   UNL     1      -0.770  11.472  20.778  0.00  0.00    +0.000 A 
ATOM      8  C   UNL     1       0.110  10.494  20.272  0.00  0.00    +0.000 A 
ATOM      9  O   UNL     1       0.590  10.613  18.950  0.00  0.00    +0.000 OA
ATOM     10  C   UNL     1       1.366   9.621  18.326  0.00  0.00    +0.000 A 
ATOM     11  O   UNL     1       1.666   9.742  17.138  0.00  0.00    +0.000 OA
ENDROOT
BRANCH   1  17
ATOM     12  C   UNL     1       6.059   3.610  15.590  0.00  0.00    +0.000 C 
ATOM     13  C   UNL     1       5.039   4.277  16.470  0.00  0.00    +0.000 A 
ATOM     14  C   UNL     1       5.073   5.601  16.733  0.00  0.00    +0.000 A 
ATOM     15  N   UNL     1       4.070   6.152  17.517  0.00  0.00    +0.000 N 
ATOM     16  C   UNL     1       3.810   7.433  17.917  0.00  0.00    +0.000 A 
ATOM     17  C   UNL     1       2.613   7.381  18.610  0.00  0.00    +0.000 A 
ATOM     18  N   UNL     1       2.175   6.061  18.685  0.00  0.00    +0.000 NA
ATOM     19  C   UNL     1       3.066   5.361  18.011  0.00  0.00    +0.000 A 
ATOM     20  C   UNL     1       3.105   3.946  17.709  0.00  0.00    +0.000 A 
ATOM     21  C   UNL     1       2.042   3.020  18.238  0.00  0.00    +0.000 C 
ATOM     22  N   UNL     1       4.055   3.435  16.971  0.00  0.00    +0.000 NA
ENDBRANCH   1  17
BRANCH   6  23
ATOM     23  N   UNL     1      -2.214  12.278  22.590  0.00  0.00    +0.000 N 
ATOM     24  C   UNL     1      -2.018  12.967  23.863  0.00  0.00    +0.000 C 
ATOM     25  C   UNL     1      -3.423  13.418  24.248  0.00  0.00    +0.000 C 
ATOM     26  C   UNL     1      -4.317  12.319  24.811  0.00  0.00    +0.000 C 
ATOM     27  N   UNL     1      -5.683  12.686  24.408  0.00  0.00    +0.000 NA
ATOM     28  C   UNL     1      -5.572  13.556  23.225  0.00  0.00    +0.000 C 
ATOM     29  C   UNL     1      -4.090  13.738  22.923  0.00  0.00    +0.000 C 
ATOM     30  C   UNL     1      -3.470  12.714  21.951  0.00  0.00    +0.000 C 
ATOM     31  H   UNL     1      -6.133  13.202  25.164  0.00  0.00    +0.000 HD
ENDBRANCH   6  23
TORSDOF 2
ENDMDL
MODEL 9
REMARK VINA RESULT:      -8.9      1.941     10.520
REMARK  Name = 
REMARK  4 active torsions:
REMARK  status: ('A' for Active; 'I' for Inactive)
REMARK    1  A    between atoms: C_1  and  C_2
REMARK    2  A    between atoms: C_6  and  C_7
REMARK    3  A    between atoms: C_12  and  N_13
REMARK    4  A    between atoms: C_28  and  C_29
REMARK                            x       y       z     vdW  Elec       q    Type
REMARK                         _______ _______ _______ _____ _____    ______ ____
ROOT
ATOM      1  C   UNL     1       1.536   8.059  20.247  0.00  0.00    +0.000 A 
ATOM      2  C   UNL     1       0.980   8.332  21.443  0.00  0.00    +0.000 A 
ATOM      3  C   UNL     1       0.326   9.598  21.744  0.00  0.00    +0.000 A 
ATOM      4  C   UNL     1      -0.389   9.805  22.917  0.00  0.00    +0.000 A 
ATOM      5  C   UNL     1      -1.042  11.031  23.147  0.00  0.00    +0.000 A 
ATOM      6  C   UNL     1      -0.978  12.108  22.245  0.00  0.00    +0.000 A 
ATOM      7  C   UNL     1      -0.242  11.873  21.066  0.00  0.00    +0.000 A 
ATOM      8  C   UNL     1       0.374  10.627  20.824  0.00  0.00    +0.000 A 
ATOM      9  O   UNL     1       1.026  10.407  19.592  0.00  0.00    +0.000 OA
ATOM     10  C   UNL     1       1.553   9.158  19.217  0.00  0.00    +0.000 A 
ATOM     11  O   UNL     1       2.018   9.010  18.088  0.00  0.00    +0.000 OA
ENDROOT
BRANCH   1  17
ATOM     12  C   UNL     1       4.028   1.569  17.805  0.00  0.00    +0.000 C 
ATOM     13  C   UNL     1       3.441   2.687  18.620  0.00  0.00    +0.000 A 
ATOM     14  C   UNL     1       3.568   3.983  18.261  0.00  0.00    +0.000 A 
ATOM     15  N   UNL     1       2.959   4.955  19.041  0.00  0.00    +0.000 N 
ATOM     16  C   UNL     1       2.873   6.314  18.920  0.00  0.00    +0.000 A 
ATOM     17  C   UNL     1       2.054   6.737  19.952  0.00  0.00    +0.000 A 
ATOM     18  N   UNL     1       1.692   5.645  20.737  0.00  0.00    +0.000 NA
ATOM     19  C   UNL     1       2.243   4.599  20.153  0.00  0.00    +0.000 A 
ATOM     20  C   UNL     1       2.167   3.195  20.493  0.00  0.00    +0.000 A 
ATOM     21  C   UNL     1       1.412   2.742  21.713  0.00  0.00    +0.000 C 
ATOM     22  N   UNL     1       2.746   2.285  19.753  0.00  0.00    +0.000 NA
ENDBRANCH   1  17
BRANCH   6  23
ATOM     23  N   UNL     1      -1.602  13.308  22.519  0.00  0.00    +0.000 N 
ATOM     24  C   UNL     1      -1.046  14.357  23.370  0.00  0.00    +0.000 C 
ATOM     25  C   UNL     1      -2.269  15.164  23.791  0.00  0.00    +0.000 C 
ATOM     26  C   UNL     1      -3.116  14.521  24.883  0.00  0.00    +0.000 C 
ATOM     27  N   UNL     1      -4.493  14.964  24.618  0.00  0.00    +0.000 NA
ATOM     28  C   UNL     1      -4.571  15.320  23.190  0.00  0.00    +0.000 C 
ATOM     29  C   UNL     1      -3.189  15.108  22.586  0.00  0.00    +0.000 C 
ATOM     30  C   UNL     1      -2.920  13.709  21.992  0.00  0.00    +0.000 C 
ATOM     31  H   UNL     1      -4.700  15.788  25.181  0.00  0.00    +0.000 HD
ENDBRANCH   6  23
TORSDOF 2
ENDMDL
