MODEL 1
REMARK VINA RESULT:      -6.7      0.000      0.000
REMARK  Name = 
REMARK  6 active torsions:
REMARK  status: ('A' for Active; 'I' for Inactive)
REMARK    1  A    between atoms: C_1  and  C_2
REMARK    2  A    between atoms: C_4  and  C_5
REMARK    3  A    between atoms: C_7  and  C_8
REMARK    4  A    between atoms: N_10  and  C_11
REMARK    5  A    between atoms: C_11  and  C_12
REMARK    6  A    between atoms: C_14  and  C_15
REMARK                            x       y       z     vdW  Elec       q    Type
REMARK                         _______ _______ _______ _____ _____    ______ ____
ROOT
ATOM      1  C   UNL     1       5.408   5.503  18.924  0.00  0.00    +0.000 C 
ENDROOT
BRANCH   1   7
ATOM      2  C   UNL     1       3.066   7.348  18.049  0.00  0.00    +0.000 C 
ATOM      3  C   UNL     1       2.944   5.933  18.489  0.00  0.00    +0.000 A 
ATOM      4  N   UNL     1       1.800   5.291  18.631  0.00  0.00    +0.000 NA
ATOM      5  C   UNL     1       2.118   4.037  19.090  0.00  0.00    +0.000 A 
ATOM      6  C   UNL     1       3.480   3.903  19.231  0.00  0.00    +0.000 A 
ATOM      7  N   UNL     1       4.006   5.114  18.833  0.00  0.00    +0.000 N 
BRANCH   5   8
ATOM      8  C   UNL     1       1.102   3.076  19.392  0.00  0.00    +0.000 C 
ATOM      9  N   UNL     1       0.299   2.273  19.635  0.00  0.00    +0.000 NA
ENDBRANCH   5   8
BRANCH   6  10
ATOM     10  C   UNL     1       4.205   2.786  19.715  0.00  0.00    +0.000 C 
ATOM     11  N   UNL     1       4.757   1.842  20.101  0.00  0.00    +0.000 NA
ENDBRANCH   6  10
ENDBRANCH   1   7
BRANCH   1  12
ATOM     12  C   UNL     1       6.144   5.250  17.664  0.00  0.00    +0.000 A 
ATOM     13  N   UNL     1       5.731   5.257  16.413  0.00  0.00    +0.000 NA
ATOM     14  C   UNL     1       6.830   4.767  15.733  0.00  0.00    +0.000 A 
ATOM     15  N   UNL     1       7.879   4.497  16.527  0.00  0.00    +0.000 NA
ATOM     16  O   UNL     1       7.427   4.813  17.801  0.00  0.00    +0.000 OA
BRANCH  14  17
ATOM     17  C   UNL     1       6.845   4.518  14.254  0.00  0.00    +0.000 A 
ATOM     18  C   UNL     1       5.989   3.661  13.592  0.00  0.00    +0.000 A 
ATOM     19  C   UNL     1       6.251   3.615  12.186  0.00  0.00    +0.000 A 
ATOM     20  C   UNL     1       7.302   4.432  11.831  0.00  0.00    +0.000 A 
ATOM     21  S   UNL     1       7.954   5.257  13.178  0.00  0.00    +0.000 S 
ENDBRANCH  14  17
ENDBRANCH   1  12
TORSDOF 5
ENDMDL
MODEL 2
REMARK VINA RESULT:      -6.5      4.204      6.926
REMARK  Name = 
REMARK  6 active torsions:
REMARK  status: ('A' for Active; 'I' for Inactive)
REMARK    1  A    between atoms: C_1  and  C_2
REMARK    2  A    between atoms: C_4  and  C_5
REMARK    3  A    between atoms: C_7  and  C_8
REMARK    4  A    between atoms: N_10  and  C_11
REMARK    5  A    between atoms: C_11  and  C_12
REMARK    6  A    between atoms: C_14  and  C_15
REMARK                            x       y       z     vdW  Elec       q    Type
REMARK                         _______ _______ _______ _____ _____    ______ ____
ROOT
ATOM      1  C   UNL     1       3.823   6.264  17.464  0.00  0.00    +0.000 C 
ENDROOT
BRANCH   1   7
ATOM      2  C   UNL     1       1.318   4.426  17.432  0.00  0.00    +0.000 C 
ATOM      3  C   UNL     1       2.578   4.171  18.180  0.00  0.00    +0.000 A 
ATOM      4  N   UNL     1       2.769   3.149  18.992  0.00  0.00    +0.000 NA
ATOM      5  C   UNL     1       4.031   3.302  19.510  0.00  0.00    +0.000 A 
ATOM      6  C   UNL     1       4.628   4.435  19.007  0.00  0.00    +0.000 A 
ATOM      7  N   UNL     1       3.699   4.981  18.146  0.00  0.00    +0.000 N 
BRANCH   5   8
ATOM      8  C   UNL     1       4.559   2.380  20.468  0.00  0.00    +0.000 C 
ATOM      9  N   UNL     1       4.999   1.613  21.222  0.00  0.00    +0.000 NA
ENDBRANCH   5   8
BRANCH   6  10
ATOM     10  C   UNL     1       5.904   4.966  19.320  0.00  0.00    +0.000 C 
ATOM     11  N   UNL     1       6.937   5.442  19.545  0.00  0.00    +0.000 NA
ENDBRANCH   6  10
ENDBRANCH   1   7
BRANCH   1  12
ATOM     12  C   UNL     1       3.034   7.330  18.122  0.00  0.00    +0.000 A 
ATOM     13  N   UNL     1       2.568   7.417  19.351  0.00  0.00    +0.000 NA
ATOM     14  C   UNL     1       1.768   8.543  19.287  0.00  0.00    +0.000 A 
ATOM     15  N   UNL     1       1.765   9.135  18.082  0.00  0.00    +0.000 NA
ATOM     16  O   UNL     1       2.598   8.334  17.312  0.00  0.00    +0.000 OA
BRANCH  14  17
ATOM     17  C   UNL     1       0.946   9.041  20.440  0.00  0.00    +0.000 A 
ATOM     18  C   UNL     1       0.440   8.244  21.447  0.00  0.00    +0.000 A 
ATOM     19  C   UNL     1      -0.319   8.994  22.399  0.00  0.00    +0.000 A 
ATOM     20  C   UNL     1      -0.370  10.333  22.078  0.00  0.00    +0.000 A 
ATOM     21  S   UNL     1       0.502  10.681  20.651  0.00  0.00    +0.000 S 
ENDBRANCH  14  17
ENDBRANCH   1  12
TORSDOF 5
ENDMDL
MODEL 3
REMARK VINA RESULT:      -6.3      4.215      6.737
REMARK  Name = 
REMARK  6 active torsions:
REMARK  status: ('A' for Active; 'I' for Inactive)
REMARK    1  A    between atoms: C_1  and  C_2
REMARK    2  A    between atoms: C_4  and  C_5
REMARK    3  A    between atoms: C_7  and  C_8
REMARK    4  A    between atoms: N_10  and  C_11
REMARK    5  A    between atoms: C_11  and  C_12
REMARK    6  A    between atoms: C_14  and  C_15
REMARK                            x       y       z     vdW  Elec       q    Type
REMARK                         _______ _______ _______ _____ _____    ______ ____
ROOT
ATOM      1  C   UNL     1       3.710   6.333  17.711  0.00  0.00    +0.000 C 
ENDROOT
BRANCH   1   7
ATOM      2  C   UNL     1       1.317   4.360  17.547  0.00  0.00    +0.000 C 
ATOM      3  C   UNL     1       2.601   4.116  18.256  0.00  0.00    +0.000 A 
ATOM      4  N   UNL     1       2.866   3.041  18.973  0.00  0.00    +0.000 NA
ATOM      5  C   UNL     1       4.125   3.223  19.487  0.00  0.00    +0.000 A 
ATOM      6  C   UNL     1       4.646   4.429  19.078  0.00  0.00    +0.000 A 
ATOM      7  N   UNL     1       3.673   4.991  18.280  0.00  0.00    +0.000 N 
BRANCH   5   8
ATOM      8  C   UNL     1       4.722   2.254  20.355  0.00  0.00    +0.000 C 
ATOM      9  N   UNL     1       5.228   1.462  21.036  0.00  0.00    +0.000 NA
ENDBRANCH   5   8
BRANCH   6  10
ATOM     10  C   UNL     1       5.894   5.006  19.422  0.00  0.00    +0.000 C 
ATOM     11  N   UNL     1       6.926   5.481  19.653  0.00  0.00    +0.000 NA
ENDBRANCH   6  10
ENDBRANCH   1   7
BRANCH   1  12
ATOM     12  C   UNL     1       2.733   7.243  18.351  0.00  0.00    +0.000 A 
ATOM     13  N   UNL     1       2.046   8.251  17.853  0.00  0.00    +0.000 NA
ATOM     14  C   UNL     1       1.467   8.803  18.980  0.00  0.00    +0.000 A 
ATOM     15  N   UNL     1       1.763   8.149  20.114  0.00  0.00    +0.000 NA
ATOM     16  O   UNL     1       2.600   7.121  19.701  0.00  0.00    +0.000 OA
BRANCH  14  17
ATOM     17  C   UNL     1       0.620  10.041  18.954  0.00  0.00    +0.000 A 
ATOM     18  C   UNL     1      -0.525  10.195  18.197  0.00  0.00    +0.000 A 
ATOM     19  C   UNL     1      -1.112  11.489  18.363  0.00  0.00    +0.000 A 
ATOM     20  C   UNL     1      -0.390  12.275  19.233  0.00  0.00    +0.000 A 
ATOM     21  S   UNL     1       0.974  11.454  19.854  0.00  0.00    +0.000 S 
ENDBRANCH  14  17
ENDBRANCH   1  12
TORSDOF 5
ENDMDL
MODEL 4
REMARK VINA RESULT:      -6.3      3.360      7.003
REMARK  Name = 
REMARK  6 active torsions:
REMARK  status: ('A' for Active; 'I' for Inactive)
REMARK    1  A    between atoms: C_1  and  C_2
REMARK    2  A    between atoms: C_4  and  C_5
REMARK    3  A    between atoms: C_7  and  C_8
REMARK    4  A    between atoms: N_10  and  C_11
REMARK    5  A    between atoms: C_11  and  C_12
REMARK    6  A    between atoms: C_14  and  C_15
REMARK                            x       y       z     vdW  Elec       q    Type
REMARK                         _______ _______ _______ _____ _____    ______ ____
ROOT
ATOM      1  C   UNL     1       4.565   4.585  19.340  0.00  0.00    +0.000 C 
ENDROOT
BRANCH   1   7
ATOM      2  C   UNL     1       3.012   3.103  17.094  0.00  0.00    +0.000 C 
ATOM      3  C   UNL     1       4.260   3.892  16.917  0.00  0.00    +0.000 A 
ATOM      4  N   UNL     1       4.914   4.009  15.777  0.00  0.00    +0.000 NA
ATOM      5  C   UNL     1       6.021   4.773  16.047  0.00  0.00    +0.000 A 
ATOM      6  C   UNL     1       6.049   5.137  17.373  0.00  0.00    +0.000 A 
ATOM      7  N   UNL     1       4.913   4.581  17.924  0.00  0.00    +0.000 N 
BRANCH   5   8
ATOM      8  C   UNL     1       6.985   5.072  15.031  0.00  0.00    +0.000 C 
ATOM      9  N   UNL     1       7.776   5.284  14.208  0.00  0.00    +0.000 NA
ENDBRANCH   5   8
BRANCH   6  10
ATOM     10  C   UNL     1       7.039   5.886  18.056  0.00  0.00    +0.000 C 
ATOM     11  N   UNL     1       7.867   6.515  18.570  0.00  0.00    +0.000 NA
ENDBRANCH   6  10
ENDBRANCH   1   7
BRANCH   1  12
ATOM     12  C   UNL     1       3.423   5.479  19.636  0.00  0.00    +0.000 A 
ATOM     13  N   UNL     1       3.169   6.708  19.235  0.00  0.00    +0.000 NA
ATOM     14  C   UNL     1       2.067   7.049  19.996  0.00  0.00    +0.000 A 
ATOM     15  N   UNL     1       1.646   6.065  20.807  0.00  0.00    +0.000 NA
ATOM     16  O   UNL     1       2.542   5.029  20.572  0.00  0.00    +0.000 OA
BRANCH  14  17
ATOM     17  C   UNL     1       1.419   8.402  19.957  0.00  0.00    +0.000 A 
ATOM     18  C   UNL     1       0.742   8.980  21.012  0.00  0.00    +0.000 A 
ATOM     19  C   UNL     1       0.216  10.267  20.676  0.00  0.00    +0.000 A 
ATOM     20  C   UNL     1       0.506  10.619  19.376  0.00  0.00    +0.000 A 
ATOM     21  S   UNL     1       1.415   9.413  18.576  0.00  0.00    +0.000 S 
ENDBRANCH  14  17
ENDBRANCH   1  12
TORSDOF 5
ENDMDL
MODEL 5
REMARK VINA RESULT:      -6.3      3.364      6.506
REMARK  Name = 
REMARK  6 active torsions:
REMARK  status: ('A' for Active; 'I' for Inactive)
REMARK    1  A    between atoms: C_1  and  C_2
REMARK    2  A    between atoms: C_4  and  C_5
REMARK    3  A    between atoms: C_7  and  C_8
REMARK    4  A    between atoms: N_10  and  C_11
REMARK    5  A    between atoms: C_11  and  C_12
REMARK    6  A    between atoms: C_14  and  C_15
REMARK                            x       y       z     vdW  Elec       q    Type
REMARK                         _______ _______ _______ _____ _____    ______ ____
ROOT
ATOM      1  C   UNL     1       4.935   4.371  19.555  0.00  0.00    +0.000 C 
ENDROOT
BRANCH   1   7
ATOM      2  C   UNL     1       7.761   5.486  18.902  0.00  0.00    +0.000 C 
ATOM      3  C   UNL     1       6.808   4.896  17.924  0.00  0.00    +0.000 A 
ATOM      4  N   UNL     1       7.019   4.831  16.623  0.00  0.00    +0.000 NA
ATOM      5  C   UNL     1       5.893   4.263  16.081  0.00  0.00    +0.000 A 
ATOM      6  C   UNL     1       4.976   3.970  17.063  0.00  0.00    +0.000 A 
ATOM      7  N   UNL     1       5.571   4.365  18.243  0.00  0.00    +0.000 N 
BRANCH   5   8
ATOM      8  C   UNL     1       5.763   4.074  14.668  0.00  0.00    +0.000 C 
ATOM      9  N   UNL     1       5.680   3.899  13.523  0.00  0.00    +0.000 NA
ENDBRANCH   5   8
BRANCH   6  10
ATOM     10  C   UNL     1       3.679   3.418  16.915  0.00  0.00    +0.000 C 
ATOM     11  N   UNL     1       2.600   3.005  16.823  0.00  0.00    +0.000 NA
ENDBRANCH   6  10
ENDBRANCH   1   7
BRANCH   1  12
ATOM     12  C   UNL     1       3.774   5.288  19.613  0.00  0.00    +0.000 A 
ATOM     13  N   UNL     1       3.589   6.472  19.067  0.00  0.00    +0.000 NA
ATOM     14  C   UNL     1       2.401   6.884  19.642  0.00  0.00    +0.000 A 
ATOM     15  N   UNL     1       1.869   5.983  20.483  0.00  0.00    +0.000 NA
ATOM     16  O   UNL     1       2.775   4.930  20.467  0.00  0.00    +0.000 OA
BRANCH  14  17
ATOM     17  C   UNL     1       1.779   8.226  19.389  0.00  0.00    +0.000 A 
ATOM     18  C   UNL     1       1.852   8.912  18.194  0.00  0.00    +0.000 A 
ATOM     19  C   UNL     1       1.179  10.174  18.254  0.00  0.00    +0.000 A 
ATOM     20  C   UNL     1       0.626  10.404  19.495  0.00  0.00    +0.000 A 
ATOM     21  S   UNL     1       0.904   9.105  20.569  0.00  0.00    +0.000 S 
ENDBRANCH  14  17
ENDBRANCH   1  12
TORSDOF 5
ENDMDL
MODEL 6
REMARK VINA RESULT:      -6.2      3.718      6.927
REMARK  Name = 
REMARK  6 active torsions:
REMARK  status: ('A' for Active; 'I' for Inactive)
REMARK    1  A    between atoms: C_1  and  C_2
REMARK    2  A    between atoms: C_4  and  C_5
REMARK    3  A    between atoms: C_7  and  C_8
REMARK    4  A    between atoms: N_10  and  C_11
REMARK    5  A    between atoms: C_11  and  C_12
REMARK    6  A    between atoms: C_14  and  C_15
REMARK                            x       y       z     vdW  Elec       q    Type
REMARK                         _______ _______ _______ _____ _____    ______ ____
ROOT
ATOM      1  C   UNL     1       3.549   4.534  19.828  0.00  0.00    +0.000 C 
ENDROOT
BRANCH   1   7
ATOM      2  C   UNL     1       2.140   3.529  17.248  0.00  0.00    +0.000 C 
ATOM      3  C   UNL     1       3.545   4.006  17.345  0.00  0.00    +0.000 A 
ATOM      4  N   UNL     1       4.406   4.001  16.345  0.00  0.00    +0.000 NA
ATOM      5  C   UNL     1       5.588   4.475  16.856  0.00  0.00    +0.000 A 
ATOM      6  C   UNL     1       5.454   4.781  18.190  0.00  0.00    +0.000 A 
ATOM      7  N   UNL     1       4.140   4.491  18.496  0.00  0.00    +0.000 N 
BRANCH   5   8
ATOM      8  C   UNL     1       6.764   4.569  16.045  0.00  0.00    +0.000 C 
ATOM      9  N   UNL     1       7.733   4.629  15.408  0.00  0.00    +0.000 NA
ENDBRANCH   5   8
BRANCH   6  10
ATOM     10  C   UNL     1       6.445   5.254  19.085  0.00  0.00    +0.000 C 
ATOM     11  N   UNL     1       7.231   5.617  19.857  0.00  0.00    +0.000 NA
ENDBRANCH   6  10
ENDBRANCH   1   7
BRANCH   1  12
ATOM     12  C   UNL     1       2.656   5.701  20.011  0.00  0.00    +0.000 A 
ATOM     13  N   UNL     1       2.610   6.853  19.373  0.00  0.00    +0.000 NA
ATOM     14  C   UNL     1       1.701   7.573  20.125  0.00  0.00    +0.000 A 
ATOM     15  N   UNL     1       1.192   6.887  21.160  0.00  0.00    +0.000 NA
ATOM     16  O   UNL     1       1.823   5.652  21.087  0.00  0.00    +0.000 OA
BRANCH  14  17
ATOM     17  C   UNL     1       1.341   9.003  19.843  0.00  0.00    +0.000 A 
ATOM     18  C   UNL     1       1.486   9.623  18.618  0.00  0.00    +0.000 A 
ATOM     19  C   UNL     1       1.077  10.993  18.655  0.00  0.00    +0.000 A 
ATOM     20  C   UNL     1       0.642  11.368  19.907  0.00  0.00    +0.000 A 
ATOM     21  S   UNL     1       0.714  10.075  21.022  0.00  0.00    +0.000 S 
ENDBRANCH  14  17
ENDBRANCH   1  12
TORSDOF 5
ENDMDL
MODEL 7
REMARK VINA RESULT:      -6.1      4.254      7.591
REMARK  Name = 
REMARK  6 active torsions:
REMARK  status: ('A' for Active; 'I' for Inactive)
REMARK    1  A    between atoms: C_1  and  C_2
REMARK    2  A    between atoms: C_4  and  C_5
REMARK    3  A    between atoms: C_7  and  C_8
REMARK    4  A    between atoms: N_10  and  C_11
REMARK    5  A    between atoms: C_11  and  C_12
REMARK    6  A    between atoms: C_14  and  C_15
REMARK                            x       y       z     vdW  Elec       q    Type
REMARK                         _______ _______ _______ _____ _____    ______ ____
ROOT
ATOM      1  C   UNL     1       3.008   5.036  19.998  0.00  0.00    +0.000 C 
ENDROOT
BRANCH   1   7
ATOM      2  C   UNL     1       1.375   4.022  17.557  0.00  0.00    +0.000 C 
ATOM      3  C   UNL     1       2.841   4.269  17.583  0.00  0.00    +0.000 A 
ATOM      4  N   UNL     1       3.658   4.021  16.578  0.00  0.00    +0.000 NA
ATOM      5  C   UNL     1       4.917   4.343  17.018  0.00  0.00    +0.000 A 
ATOM      6  C   UNL     1       4.876   4.800  18.315  0.00  0.00    +0.000 A 
ATOM      7  N   UNL     1       3.543   4.763  18.669  0.00  0.00    +0.000 N 
BRANCH   5   8
ATOM      8  C   UNL     1       6.066   4.160  16.185  0.00  0.00    +0.000 C 
ATOM      9  N   UNL     1       6.984   4.028  15.486  0.00  0.00    +0.000 NA
ENDBRANCH   5   8
BRANCH   6  10
ATOM     10  C   UNL     1       5.958   5.192  19.142  0.00  0.00    +0.000 C 
ATOM     11  N   UNL     1       6.862   5.464  19.815  0.00  0.00    +0.000 NA
ENDBRANCH   6  10
ENDBRANCH   1   7
BRANCH   1  12
ATOM     12  C   UNL     1       2.474   6.412  20.117  0.00  0.00    +0.000 A 
ATOM     13  N   UNL     1       1.777   6.981  21.079  0.00  0.00    +0.000 NA
ATOM     14  C   UNL     1       1.429   8.195  20.518  0.00  0.00    +0.000 A 
ATOM     15  N   UNL     1       1.912   8.375  19.279  0.00  0.00    +0.000 NA
ATOM     16  O   UNL     1       2.600   7.198  19.012  0.00  0.00    +0.000 OA
BRANCH  14  17
ATOM     17  C   UNL     1       0.559   9.206  21.205  0.00  0.00    +0.000 A 
ATOM     18  C   UNL     1       0.218   9.170  22.543  0.00  0.00    +0.000 A 
ATOM     19  C   UNL     1      -0.638  10.256  22.911  0.00  0.00    +0.000 A 
ATOM     20  C   UNL     1      -0.922  11.074  21.840  0.00  0.00    +0.000 A 
ATOM     21  S   UNL     1      -0.153  10.544  20.409  0.00  0.00    +0.000 S 
ENDBRANCH  14  17
ENDBRANCH   1  12
TORSDOF 5
ENDMDL
MODEL 8
REMARK VINA RESULT:      -6.1      4.102      7.176
REMARK  Name = 
REMARK  6 active torsions:
REMARK  status: ('A' for Active; 'I' for Inactive)
REMARK    1  A    between atoms: C_1  and  C_2
REMARK    2  A    between atoms: C_4  and  C_5
REMARK    3  A    between atoms: C_7  and  C_8
REMARK    4  A    between atoms: N_10  and  C_11
REMARK    5  A    between atoms: C_11  and  C_12
REMARK    6  A    between atoms: C_14  and  C_15
REMARK                            x       y       z     vdW  Elec       q    Type
REMARK                         _______ _______ _______ _____ _____    ______ ____
ROOT
ATOM      1  C   UNL     1       3.222   6.421  17.323  0.00  0.00    +0.000 C 
ENDROOT
BRANCH   1   7
ATOM      2  C   UNL     1       6.295   6.633  17.731  0.00  0.00    +0.000 C 
ATOM      3  C   UNL     1       5.409   5.584  18.304  0.00  0.00    +0.000 A 
ATOM      4  N   UNL     1       5.832   4.557  19.015  0.00  0.00    +0.000 NA
ATOM      5  C   UNL     1       4.718   3.812  19.312  0.00  0.00    +0.000 A 
ATOM      6  C   UNL     1       3.590   4.392  18.780  0.00  0.00    +0.000 A 
ATOM      7  N   UNL     1       4.035   5.533  18.146  0.00  0.00    +0.000 N 
BRANCH   5   8
ATOM      8  C   UNL     1       4.816   2.590  20.050  0.00  0.00    +0.000 C 
ATOM      9  N   UNL     1       4.924   1.595  20.638  0.00  0.00    +0.000 NA
ENDBRANCH   5   8
BRANCH   6  10
ATOM     10  C   UNL     1       2.256   3.918  18.825  0.00  0.00    +0.000 C 
ATOM     11  N   UNL     1       1.181   3.482  18.857  0.00  0.00    +0.000 NA
ENDBRANCH   6  10
ENDBRANCH   1   7
BRANCH   1  12
ATOM     12  C   UNL     1       2.632   7.531  18.107  0.00  0.00    +0.000 A 
ATOM     13  N   UNL     1       2.216   7.571  19.356  0.00  0.00    +0.000 NA
ATOM     14  C   UNL     1       1.609   8.811  19.427  0.00  0.00    +0.000 A 
ATOM     15  N   UNL     1       1.673   9.510  18.283  0.00  0.00    +0.000 NA
ATOM     16  O   UNL     1       2.347   8.665  17.410  0.00  0.00    +0.000 OA
BRANCH  14  17
ATOM     17  C   UNL     1       0.906   9.320  20.651  0.00  0.00    +0.000 A 
ATOM     18  C   UNL     1       0.988   8.742  21.902  0.00  0.00    +0.000 A 
ATOM     19  C   UNL     1       0.196   9.436  22.871  0.00  0.00    +0.000 A 
ATOM     20  C   UNL     1      -0.465  10.512  22.321  0.00  0.00    +0.000 A 
ATOM     21  S   UNL     1      -0.122  10.689  20.656  0.00  0.00    +0.000 S 
ENDBRANCH  14  17
ENDBRANCH   1  12
TORSDOF 5
ENDMDL
MODEL 9
REMARK VINA RESULT:      -6.0      3.996      6.709
REMARK  Name = 
REMARK  6 active torsions:
REMARK  status: ('A' for Active; 'I' for Inactive)
REMARK    1  A    between atoms: C_1  and  C_2
REMARK    2  A    between atoms: C_4  and  C_5
REMARK    3  A    between atoms: C_7  and  C_8
REMARK    4  A    between atoms: N_10  and  C_11
REMARK    5  A    between atoms: C_11  and  C_12
REMARK    6  A    between atoms: C_14  and  C_15
REMARK                            x       y       z     vdW  Elec       q    Type
REMARK                         _______ _______ _______ _____ _____    ______ ____
ROOT
ATOM      1  C   UNL     1       2.961   4.791  17.495  0.00  0.00    +0.000 C 
ENDROOT
BRANCH   1   7
ATOM      2  C   UNL     1       0.754   2.910  18.609  0.00  0.00    +0.000 C 
ATOM      3  C   UNL     1       2.193   2.881  18.980  0.00  0.00    +0.000 A 
ATOM      4  N   UNL     1       2.712   2.084  19.894  0.00  0.00    +0.000 NA
ATOM      5  C   UNL     1       4.046   2.399  19.964  0.00  0.00    +0.000 A 
ATOM      6  C   UNL     1       4.355   3.403  19.077  0.00  0.00    +0.000 A 
ATOM      7  N   UNL     1       3.169   3.700  18.439  0.00  0.00    +0.000 N 
BRANCH   5   8
ATOM      8  C   UNL     1       4.917   1.744  20.892  0.00  0.00    +0.000 C 
ATOM      9  N   UNL     1       5.640   1.240  21.649  0.00  0.00    +0.000 NA
ENDBRANCH   5   8
BRANCH   6  10
ATOM     10  C   UNL     1       5.606   4.037  18.871  0.00  0.00    +0.000 C 
ATOM     11  N   UNL     1       6.627   4.543  18.653  0.00  0.00    +0.000 NA
ENDBRANCH   6  10
ENDBRANCH   1   7
BRANCH   1  12
ATOM     12  C   UNL     1       2.749   6.090  18.174  0.00  0.00    +0.000 A 
ATOM     13  N   UNL     1       2.062   6.389  19.258  0.00  0.00    +0.000 NA
ATOM     14  C   UNL     1       2.098   7.771  19.261  0.00  0.00    +0.000 A 
ATOM     15  N   UNL     1       2.796   8.295  18.242  0.00  0.00    +0.000 NA
ATOM     16  O   UNL     1       3.225   7.187  17.522  0.00  0.00    +0.000 OA
BRANCH  14  17
ATOM     17  C   UNL     1       1.391   8.615  20.281  0.00  0.00    +0.000 A 
ATOM     18  C   UNL     1       1.292   8.308  21.623  0.00  0.00    +0.000 A 
ATOM     19  C   UNL     1       0.544   9.289  22.348  0.00  0.00    +0.000 A 
ATOM     20  C   UNL     1       0.096  10.304  21.530  0.00  0.00    +0.000 A 
ATOM     21  S   UNL     1       0.586  10.079  19.908  0.00  0.00    +0.000 S 
ENDBRANCH  14  17
ENDBRANCH   1  12
TORSDOF 5
ENDMDL
