MODEL 1
REMARK VINA RESULT:      -7.8      0.000      0.000
REMARK  Name = 
REMARK  6 active torsions:
REMARK  status: ('A' for Active; 'I' for Inactive)
REMARK    1  A    between atoms: C_1  and  O_2
REMARK    2  A    between atoms: O_2  and  C_3
REMARK    3  A    between atoms: C_7  and  O_8
REMARK    4  A    between atoms: O_8  and  C_9
REMARK    5  A    between atoms: C_10  and  C_11
REMARK    6  A    between atoms: C_17  and  C_18
REMARK                            x       y       z     vdW  Elec       q    Type
REMARK                         _______ _______ _______ _____ _____    ______ ____
ROOT
ATOM      1  C   UNL     1       4.199   4.583  18.597  0.00  0.00    +0.000 A 
ATOM      2  N   UNL     1       5.397   5.113  18.785  0.00  0.00    +0.000 NA
ATOM      3  C   UNL     1       5.882   5.513  17.549  0.00  0.00    +0.000 A 
ATOM      4  C   UNL     1       4.954   5.206  16.571  0.00  0.00    +0.000 A 
ATOM      5  N   UNL     1       3.899   4.661  17.253  0.00  0.00    +0.000 N 
ATOM      6  C   UNL     1       4.922   5.448  15.103  0.00  0.00    +0.000 C 
ATOM      7  C   UNL     1       6.251   5.206  14.345  0.00  0.00    +0.000 C 
ATOM      8  C   UNL     1       7.489   4.918  15.214  0.00  0.00    +0.000 C 
ATOM      9  N   UNL     1       7.805   5.988  16.138  0.00  0.00    +0.000 N 
ATOM     10  C   UNL     1       7.179   6.163  17.358  0.00  0.00    +0.000 C 
ATOM     11  O   UNL     1       7.740   6.849  18.213  0.00  0.00    +0.000 OA
ATOM     12  H   UNL     1       3.012   4.369  16.865  0.00  0.00    +0.000 HD
ATOM     13  H   UNL     1       8.737   6.381  16.130  0.00  0.00    +0.000 HD
ENDROOT
BRANCH   1  19
ATOM     14  C   UNL     1       3.596   2.781  20.282  0.00  0.00    +0.000 A 
ATOM     15  C   UNL     1       2.738   2.256  21.263  0.00  0.00    +0.000 A 
ATOM     16  C   UNL     1       1.529   2.868  21.546  0.00  0.00    +0.000 A 
ATOM     17  C   UNL     1       1.177   4.033  20.878  0.00  0.00    +0.000 A 
ATOM     18  C   UNL     1       2.042   4.621  19.940  0.00  0.00    +0.000 A 
ATOM     19  C   UNL     1       3.275   3.995  19.607  0.00  0.00    +0.000 A 
BRANCH  14  21
ATOM     20  C   UNL     1       5.267   1.243  20.981  0.00  0.00    +0.000 C 
ATOM     21  O   UNL     1       4.790   2.152  19.988  0.00  0.00    +0.000 OA
ENDBRANCH  14  21
BRANCH  18  22
ATOM     22  O   UNL     1       1.708   5.797  19.311  0.00  0.00    +0.000 OA
ATOM     23  C   UNL     1       2.171   7.008  19.910  0.00  0.00    +0.000 C 
ENDBRANCH  18  22
ENDBRANCH   1  19
BRANCH   7  24
ATOM     24  C   UNL     1       6.031   4.133  13.282  0.00  0.00    +0.000 A 
ATOM     25  C   UNL     1       7.144   3.516  12.684  0.00  0.00    +0.000 A 
ATOM     26  C   UNL     1       6.976   2.591  11.656  0.00  0.00    +0.000 A 
ATOM     27  C   UNL     1       5.696   2.268  11.210  0.00  0.00    +0.000 A 
ATOM     28  C   UNL     1       4.584   2.865  11.796  0.00  0.00    +0.000 A 
ATOM     29  C   UNL     1       4.751   3.799  12.821  0.00  0.00    +0.000 A 
ENDBRANCH   7  24
TORSDOF 4
ENDMDL
MODEL 2
REMARK VINA RESULT:      -7.7      0.615      2.421
REMARK  Name = 
REMARK  6 active torsions:
REMARK  status: ('A' for Active; 'I' for Inactive)
REMARK    1  A    between atoms: C_1  and  O_2
REMARK    2  A    between atoms: O_2  and  C_3
REMARK    3  A    between atoms: C_7  and  O_8
REMARK    4  A    between atoms: O_8  and  C_9
REMARK    5  A    between atoms: C_10  and  C_11
REMARK    6  A    between atoms: C_17  and  C_18
REMARK                            x       y       z     vdW  Elec       q    Type
REMARK                         _______ _______ _______ _____ _____    ______ ____
ROOT
ATOM      1  C   UNL     1       4.092   4.724  18.473  0.00  0.00    +0.000 A 
ATOM      2  N   UNL     1       5.302   5.216  18.692  0.00  0.00    +0.000 NA
ATOM      3  C   UNL     1       5.840   5.578  17.466  0.00  0.00    +0.000 A 
ATOM      4  C   UNL     1       4.933   5.288  16.463  0.00  0.00    +0.000 A 
ATOM      5  N   UNL     1       3.838   4.790  17.119  0.00  0.00    +0.000 N 
ATOM      6  C   UNL     1       4.956   5.507  14.991  0.00  0.00    +0.000 C 
ATOM      7  C   UNL     1       6.299   5.207  14.280  0.00  0.00    +0.000 C 
ATOM      8  C   UNL     1       7.498   4.891  15.193  0.00  0.00    +0.000 C 
ATOM      9  N   UNL     1       7.822   5.964  16.111  0.00  0.00    +0.000 N 
ATOM     10  C   UNL     1       7.164   6.180  17.307  0.00  0.00    +0.000 C 
ATOM     11  O   UNL     1       7.721   6.860  18.169  0.00  0.00    +0.000 OA
ATOM     12  H   UNL     1       2.955   4.522  16.707  0.00  0.00    +0.000 HD
ATOM     13  H   UNL     1       8.767   6.324  16.127  0.00  0.00    +0.000 HD
ENDROOT
BRANCH   1  19
ATOM     14  C   UNL     1       2.021   4.970  19.921  0.00  0.00    +0.000 A 
ATOM     15  C   UNL     1       1.082   4.438  20.822  0.00  0.00    +0.000 A 
ATOM     16  C   UNL     1       1.241   3.163  21.336  0.00  0.00    +0.000 A 
ATOM     17  C   UNL     1       2.319   2.389  20.930  0.00  0.00    +0.000 A 
ATOM     18  C   UNL     1       3.238   2.865  19.980  0.00  0.00    +0.000 A 
ATOM     19  C   UNL     1       3.117   4.184  19.461  0.00  0.00    +0.000 A 
BRANCH  14  21
ATOM     20  C   UNL     1       1.873   7.290  20.411  0.00  0.00    +0.000 C 
ATOM     21  O   UNL     1       1.870   6.253  19.430  0.00  0.00    +0.000 OA
ENDBRANCH  14  21
BRANCH  18  22
ATOM     22  O   UNL     1       4.282   2.080  19.551  0.00  0.00    +0.000 OA
ATOM     23  C   UNL     1       4.007   1.158  18.495  0.00  0.00    +0.000 C 
ENDBRANCH  18  22
ENDBRANCH   1  19
BRANCH   7  24
ATOM     24  C   UNL     1       6.076   4.125  13.227  0.00  0.00    +0.000 A 
ATOM     25  C   UNL     1       7.187   3.511  12.623  0.00  0.00    +0.000 A 
ATOM     26  C   UNL     1       7.015   2.578  11.602  0.00  0.00    +0.000 A 
ATOM     27  C   UNL     1       5.733   2.243  11.172  0.00  0.00    +0.000 A 
ATOM     28  C   UNL     1       4.623   2.837  11.765  0.00  0.00    +0.000 A 
ATOM     29  C   UNL     1       4.794   3.779  12.782  0.00  0.00    +0.000 A 
ENDBRANCH   7  24
TORSDOF 4
ENDMDL
MODEL 3
REMARK VINA RESULT:      -7.6      0.113      2.597
REMARK  Name = 
REMARK  6 active torsions:
REMARK  status: ('A' for Active; 'I' for Inactive)
REMARK    1  A    between atoms: C_1  and  O_2
REMARK    2  A    between atoms: O_2  and  C_3
REMARK    3  A    between atoms: C_7  and  O_8
REMARK    4  A    between atoms: O_8  and  C_9
REMARK    5  A    between atoms: C_10  and  C_11
REMARK    6  A    between atoms: C_17  and  C_18
REMARK                            x       y       z     vdW  Elec       q    Type
REMARK                         _______ _______ _______ _____ _____    ______ ____
ROOT
ATOM      1  C   UNL     1       4.233   4.623  18.589  0.00  0.00    +0.000 A 
ATOM      2  N   UNL     1       5.443   5.117  18.797  0.00  0.00    +0.000 NA
ATOM      3  C   UNL     1       5.944   5.539  17.575  0.00  0.00    +0.000 A 
ATOM      4  C   UNL     1       5.013   5.286  16.585  0.00  0.00    +0.000 A 
ATOM      5  N   UNL     1       3.941   4.748  17.247  0.00  0.00    +0.000 N 
ATOM      6  C   UNL     1       4.993   5.571  15.124  0.00  0.00    +0.000 C 
ATOM      7  C   UNL     1       6.318   5.318  14.364  0.00  0.00    +0.000 C 
ATOM      8  C   UNL     1       7.545   4.973  15.229  0.00  0.00    +0.000 C 
ATOM      9  N   UNL     1       7.884   6.006  16.186  0.00  0.00    +0.000 N 
ATOM     10  C   UNL     1       7.258   6.162  17.408  0.00  0.00    +0.000 C 
ATOM     11  O   UNL     1       7.832   6.808  18.284  0.00  0.00    +0.000 OA
ATOM     12  H   UNL     1       3.049   4.490  16.847  0.00  0.00    +0.000 HD
ATOM     13  H   UNL     1       8.826   6.376  16.192  0.00  0.00    +0.000 HD
ENDROOT
BRANCH   1  19
ATOM     14  C   UNL     1       2.038   4.646  19.866  0.00  0.00    +0.000 A 
ATOM     15  C   UNL     1       1.137   4.056  20.770  0.00  0.00    +0.000 A 
ATOM     16  C   UNL     1       1.475   2.901  21.452  0.00  0.00    +0.000 A 
ATOM     17  C   UNL     1       2.703   2.298  21.214  0.00  0.00    +0.000 A 
ATOM     18  C   UNL     1       3.599   2.824  20.267  0.00  0.00    +0.000 A 
ATOM     19  C   UNL     1       3.290   4.029  19.578  0.00  0.00    +0.000 A 
BRANCH  14  21
ATOM     20  C   UNL     1       2.090   7.022  19.865  0.00  0.00    +0.000 C 
ATOM     21  O   UNL     1       1.704   5.814  19.207  0.00  0.00    +0.000 OA
ENDBRANCH  14  21
BRANCH  18  22
ATOM     22  O   UNL     1       4.796   2.201  20.005  0.00  0.00    +0.000 OA
ATOM     23  C   UNL     1       5.232   1.215  20.942  0.00  0.00    +0.000 C 
ENDBRANCH  18  22
ENDBRANCH   1  19
BRANCH   7  24
ATOM     24  C   UNL     1       6.076   4.283  13.269  0.00  0.00    +0.000 A 
ATOM     25  C   UNL     1       4.757   3.933  12.930  0.00  0.00    +0.000 A 
ATOM     26  C   UNL     1       4.506   2.935  11.991  0.00  0.00    +0.000 A 
ATOM     27  C   UNL     1       5.566   2.273  11.376  0.00  0.00    +0.000 A 
ATOM     28  C   UNL     1       6.877   2.612  11.695  0.00  0.00    +0.000 A 
ATOM     29  C   UNL     1       7.131   3.607  12.643  0.00  0.00    +0.000 A 
ENDBRANCH   7  24
TORSDOF 4
ENDMDL
MODEL 4
REMARK VINA RESULT:      -7.5      1.016      1.376
REMARK  Name = 
REMARK  6 active torsions:
REMARK  status: ('A' for Active; 'I' for Inactive)
REMARK    1  A    between atoms: C_1  and  O_2
REMARK    2  A    between atoms: O_2  and  C_3
REMARK    3  A    between atoms: C_7  and  O_8
REMARK    4  A    between atoms: O_8  and  C_9
REMARK    5  A    between atoms: C_10  and  C_11
REMARK    6  A    between atoms: C_17  and  C_18
REMARK                            x       y       z     vdW  Elec       q    Type
REMARK                         _______ _______ _______ _____ _____    ______ ____
ROOT
ATOM      1  C   UNL     1       3.935   4.681  18.028  0.00  0.00    +0.000 A 
ATOM      2  N   UNL     1       5.140   5.149  18.310  0.00  0.00    +0.000 NA
ATOM      3  C   UNL     1       5.752   5.492  17.114  0.00  0.00    +0.000 A 
ATOM      4  C   UNL     1       4.897   5.214  16.064  0.00  0.00    +0.000 A 
ATOM      5  N   UNL     1       3.757   4.744  16.661  0.00  0.00    +0.000 N 
ATOM      6  C   UNL     1       5.005   5.422  14.594  0.00  0.00    +0.000 C 
ATOM      7  C   UNL     1       6.379   5.090  13.960  0.00  0.00    +0.000 C 
ATOM      8  C   UNL     1       7.519   4.756  14.940  0.00  0.00    +0.000 C 
ATOM      9  N   UNL     1       7.814   5.828  15.868  0.00  0.00    +0.000 N 
ATOM     10  C   UNL     1       7.096   6.066  17.025  0.00  0.00    +0.000 C 
ATOM     11  O   UNL     1       7.618   6.740  17.913  0.00  0.00    +0.000 OA
ATOM     12  H   UNL     1       2.892   4.491  16.202  0.00  0.00    +0.000 HD
ATOM     13  H   UNL     1       8.764   6.169  15.935  0.00  0.00    +0.000 HD
ENDROOT
BRANCH   1  19
ATOM     14  C   UNL     1       2.502   2.798  18.950  0.00  0.00    +0.000 A 
ATOM     15  C   UNL     1       1.550   2.315  19.865  0.00  0.00    +0.000 A 
ATOM     16  C   UNL     1       0.923   3.173  20.752  0.00  0.00    +0.000 A 
ATOM     17  C   UNL     1       1.264   4.518  20.762  0.00  0.00    +0.000 A 
ATOM     18  C   UNL     1       2.260   5.022  19.908  0.00  0.00    +0.000 A 
ATOM     19  C   UNL     1       2.895   4.168  18.963  0.00  0.00    +0.000 A 
BRANCH  14  21
ATOM     20  C   UNL     1       4.021   1.002  18.617  0.00  0.00    +0.000 C 
ATOM     21  O   UNL     1       3.106   1.942  18.050  0.00  0.00    +0.000 OA
ENDBRANCH  14  21
BRANCH  18  22
ATOM     22  O   UNL     1       2.623   6.347  19.949  0.00  0.00    +0.000 OA
ATOM     23  C   UNL     1       1.682   7.259  20.517  0.00  0.00    +0.000 C 
ENDBRANCH  18  22
ENDBRANCH   1  19
BRANCH   7  24
ATOM     24  C   UNL     1       6.192   4.006  12.903  0.00  0.00    +0.000 A 
ATOM     25  C   UNL     1       4.892   3.655  12.498  0.00  0.00    +0.000 A 
ATOM     26  C   UNL     1       4.687   2.615  11.593  0.00  0.00    +0.000 A 
ATOM     27  C   UNL     1       5.775   1.913  11.078  0.00  0.00    +0.000 A 
ATOM     28  C   UNL     1       7.067   2.254  11.463  0.00  0.00    +0.000 A 
ATOM     29  C   UNL     1       7.275   3.290  12.377  0.00  0.00    +0.000 A 
ENDBRANCH   7  24
TORSDOF 4
ENDMDL
MODEL 5
REMARK VINA RESULT:      -7.3      3.446      7.871
REMARK  Name = 
REMARK  6 active torsions:
REMARK  status: ('A' for Active; 'I' for Inactive)
REMARK    1  A    between atoms: C_1  and  O_2
REMARK    2  A    between atoms: O_2  and  C_3
REMARK    3  A    between atoms: C_7  and  O_8
REMARK    4  A    between atoms: O_8  and  C_9
REMARK    5  A    between atoms: C_10  and  C_11
REMARK    6  A    between atoms: C_17  and  C_18
REMARK                            x       y       z     vdW  Elec       q    Type
REMARK                         _______ _______ _______ _____ _____    ______ ____
ROOT
ATOM      1  C   UNL     1       3.870   6.378  17.873  0.00  0.00    +0.000 A 
ATOM      2  N   UNL     1       3.340   5.996  19.024  0.00  0.00    +0.000 NA
ATOM      3  C   UNL     1       2.345   6.904  19.355  0.00  0.00    +0.000 A 
ATOM      4  C   UNL     1       2.271   7.880  18.379  0.00  0.00    +0.000 A 
ATOM      5  N   UNL     1       3.206   7.511  17.448  0.00  0.00    +0.000 N 
ATOM      6  C   UNL     1       1.371   9.051  18.191  0.00  0.00    +0.000 C 
ATOM      7  C   UNL     1       1.052   9.873  19.464  0.00  0.00    +0.000 C 
ATOM      8  C   UNL     1       1.551   9.287  20.798  0.00  0.00    +0.000 C 
ATOM      9  N   UNL     1       1.014   7.973  21.087  0.00  0.00    +0.000 N 
ATOM     10  C   UNL     1       1.519   6.799  20.559  0.00  0.00    +0.000 C 
ATOM     11  O   UNL     1       1.251   5.738  21.122  0.00  0.00    +0.000 OA
ATOM     12  H   UNL     1       3.393   7.964  16.564  0.00  0.00    +0.000 HD
ATOM     13  H   UNL     1       0.546   7.820  21.971  0.00  0.00    +0.000 HD
ENDROOT
BRANCH   1  19
ATOM     14  C   UNL     1       4.844   4.439  16.554  0.00  0.00    +0.000 A 
ATOM     15  C   UNL     1       5.882   3.868  15.797  0.00  0.00    +0.000 A 
ATOM     16  C   UNL     1       7.083   4.534  15.630  0.00  0.00    +0.000 A 
ATOM     17  C   UNL     1       7.253   5.794  16.186  0.00  0.00    +0.000 A 
ATOM     18  C   UNL     1       6.213   6.422  16.892  0.00  0.00    +0.000 A 
ATOM     19  C   UNL     1       4.980   5.746  17.106  0.00  0.00    +0.000 A 
BRANCH  14  21
ATOM     20  C   UNL     1       3.690   2.715  17.711  0.00  0.00    +0.000 C 
ATOM     21  O   UNL     1       3.656   3.760  16.738  0.00  0.00    +0.000 OA
ENDBRANCH  14  21
BRANCH  18  22
ATOM     22  O   UNL     1       6.371   7.687  17.406  0.00  0.00    +0.000 OA
ATOM     23  C   UNL     1       7.710   8.135  17.626  0.00  0.00    +0.000 C 
ENDBRANCH  18  22
ENDBRANCH   1  19
BRANCH   7  24
ATOM     24  C   UNL     1       1.513  11.312  19.258  0.00  0.00    +0.000 A 
ATOM     25  C   UNL     1       2.264  11.639  18.115  0.00  0.00    +0.000 A 
ATOM     26  C   UNL     1       2.766  12.927  17.940  0.00  0.00    +0.000 A 
ATOM     27  C   UNL     1       2.526  13.907  18.901  0.00  0.00    +0.000 A 
ATOM     28  C   UNL     1       1.779  13.601  20.034  0.00  0.00    +0.000 A 
ATOM     29  C   UNL     1       1.281  12.308  20.216  0.00  0.00    +0.000 A 
ENDBRANCH   7  24
TORSDOF 4
ENDMDL
MODEL 6
REMARK VINA RESULT:      -7.3      3.478      8.062
REMARK  Name = 
REMARK  6 active torsions:
REMARK  status: ('A' for Active; 'I' for Inactive)
REMARK    1  A    between atoms: C_1  and  O_2
REMARK    2  A    between atoms: O_2  and  C_3
REMARK    3  A    between atoms: C_7  and  O_8
REMARK    4  A    between atoms: O_8  and  C_9
REMARK    5  A    between atoms: C_10  and  C_11
REMARK    6  A    between atoms: C_17  and  C_18
REMARK                            x       y       z     vdW  Elec       q    Type
REMARK                         _______ _______ _______ _____ _____    ______ ____
ROOT
ATOM      1  C   UNL     1       3.881   6.406  17.856  0.00  0.00    +0.000 A 
ATOM      2  N   UNL     1       3.353   6.020  19.007  0.00  0.00    +0.000 NA
ATOM      3  C   UNL     1       2.360   6.929  19.343  0.00  0.00    +0.000 A 
ATOM      4  C   UNL     1       2.287   7.909  18.371  0.00  0.00    +0.000 A 
ATOM      5  N   UNL     1       3.219   7.541  17.437  0.00  0.00    +0.000 N 
ATOM      6  C   UNL     1       1.389   9.082  18.190  0.00  0.00    +0.000 C 
ATOM      7  C   UNL     1       1.074   9.900  19.467  0.00  0.00    +0.000 C 
ATOM      8  C   UNL     1       1.575   9.307  20.797  0.00  0.00    +0.000 C 
ATOM      9  N   UNL     1       1.035   7.993  21.082  0.00  0.00    +0.000 N 
ATOM     10  C   UNL     1       1.536   6.821  20.548  0.00  0.00    +0.000 C 
ATOM     11  O   UNL     1       1.267   5.758  21.108  0.00  0.00    +0.000 OA
ATOM     12  H   UNL     1       3.406   7.997  16.554  0.00  0.00    +0.000 HD
ATOM     13  H   UNL     1       0.569   7.838  21.966  0.00  0.00    +0.000 HD
ENDROOT
BRANCH   1  19
ATOM     14  C   UNL     1       6.221   6.458  16.870  0.00  0.00    +0.000 A 
ATOM     15  C   UNL     1       7.275   5.838  16.177  0.00  0.00    +0.000 A 
ATOM     16  C   UNL     1       7.114   4.577  15.628  0.00  0.00    +0.000 A 
ATOM     17  C   UNL     1       5.912   3.904  15.794  0.00  0.00    +0.000 A 
ATOM     18  C   UNL     1       4.862   4.467  16.539  0.00  0.00    +0.000 A 
ATOM     19  C   UNL     1       4.988   5.775  17.085  0.00  0.00    +0.000 A 
BRANCH  14  21
ATOM     20  C   UNL     1       7.727   8.119  17.655  0.00  0.00    +0.000 C 
ATOM     21  O   UNL     1       6.379   7.725  17.395  0.00  0.00    +0.000 OA
ENDBRANCH  14  21
BRANCH  18  22
ATOM     22  O   UNL     1       3.687   3.780  16.735  0.00  0.00    +0.000 OA
ATOM     23  C   UNL     1       3.707   2.723  17.695  0.00  0.00    +0.000 C 
ENDBRANCH  18  22
ENDBRANCH   1  19
BRANCH   7  24
ATOM     24  C   UNL     1       1.538  11.339  19.266  0.00  0.00    +0.000 A 
ATOM     25  C   UNL     1       1.170  12.321  20.203  0.00  0.00    +0.000 A 
ATOM     26  C   UNL     1       1.512  13.657  20.004  0.00  0.00    +0.000 A 
ATOM     27  C   UNL     1       2.228  14.032  18.870  0.00  0.00    +0.000 A 
ATOM     28  C   UNL     1       2.607  13.072  17.937  0.00  0.00    +0.000 A 
ATOM     29  C   UNL     1       2.257  11.734  18.130  0.00  0.00    +0.000 A 
ENDBRANCH   7  24
TORSDOF 4
ENDMDL
MODEL 7
REMARK VINA RESULT:      -6.7      7.736     10.938
REMARK  Name = 
REMARK  6 active torsions:
REMARK  status: ('A' for Active; 'I' for Inactive)
REMARK    1  A    between atoms: C_1  and  O_2
REMARK    2  A    between atoms: O_2  and  C_3
REMARK    3  A    between atoms: C_7  and  O_8
REMARK    4  A    between atoms: O_8  and  C_9
REMARK    5  A    between atoms: C_10  and  C_11
REMARK    6  A    between atoms: C_17  and  C_18
REMARK                            x       y       z     vdW  Elec       q    Type
REMARK                         _______ _______ _______ _____ _____    ______ ____
ROOT
ATOM      1  C   UNL     1      -2.746  12.715  20.728  0.00  0.00    +0.000 A 
ATOM      2  N   UNL     1      -1.933  13.665  20.295  0.00  0.00    +0.000 NA
ATOM      3  C   UNL     1      -1.076  13.099  19.364  0.00  0.00    +0.000 A 
ATOM      4  C   UNL     1      -1.367  11.754  19.231  0.00  0.00    +0.000 A 
ATOM      5  N   UNL     1      -2.434  11.546  20.064  0.00  0.00    +0.000 N 
ATOM      6  C   UNL     1      -0.813  10.686  18.355  0.00  0.00    +0.000 C 
ATOM      7  C   UNL     1       0.725  10.680  18.179  0.00  0.00    +0.000 C 
ATOM      8  C   UNL     1       1.485  11.877  18.781  0.00  0.00    +0.000 C 
ATOM      9  N   UNL     1       1.076  13.153  18.232  0.00  0.00    +0.000 N 
ATOM     10  C   UNL     1      -0.043  13.850  18.649  0.00  0.00    +0.000 C 
ATOM     11  O   UNL     1      -0.112  15.054  18.401  0.00  0.00    +0.000 OA
ATOM     12  H   UNL     1      -2.953  10.686  20.183  0.00  0.00    +0.000 HD
ATOM     13  H   UNL     1       1.781  13.766  17.843  0.00  0.00    +0.000 HD
ENDROOT
BRANCH   1  19
ATOM     14  C   UNL     1      -5.203  12.698  21.369  0.00  0.00    +0.000 A 
ATOM     15  C   UNL     1      -6.219  12.750  22.339  0.00  0.00    +0.000 A 
ATOM     16  C   UNL     1      -5.915  12.984  23.669  0.00  0.00    +0.000 A 
ATOM     17  C   UNL     1      -4.590  13.133  24.054  0.00  0.00    +0.000 A 
ATOM     18  C   UNL     1      -3.545  13.019  23.121  0.00  0.00    +0.000 A 
ATOM     19  C   UNL     1      -3.832  12.813  21.743  0.00  0.00    +0.000 A 
BRANCH  14  21
ATOM     20  C   UNL     1      -6.716  11.754  19.799  0.00  0.00    +0.000 C 
ATOM     21  O   UNL     1      -5.514  12.488  20.040  0.00  0.00    +0.000 OA
ENDBRANCH  14  21
BRANCH  18  22
ATOM     22  O   UNL     1      -2.232  13.127  23.513  0.00  0.00    +0.000 OA
ATOM     23  C   UNL     1      -1.792  14.411  23.959  0.00  0.00    +0.000 C 
ENDBRANCH  18  22
ENDBRANCH   1  19
BRANCH   7  24
ATOM     24  C   UNL     1       1.278   9.343  18.665  0.00  0.00    +0.000 A 
ATOM     25  C   UNL     1       1.119   8.980  20.014  0.00  0.00    +0.000 A 
ATOM     26  C   UNL     1       1.682   7.803  20.504  0.00  0.00    +0.000 A 
ATOM     27  C   UNL     1       2.410   6.972  19.655  0.00  0.00    +0.000 A 
ATOM     28  C   UNL     1       2.570   7.314  18.316  0.00  0.00    +0.000 A 
ATOM     29  C   UNL     1       2.014   8.497  17.825  0.00  0.00    +0.000 A 
ENDBRANCH   7  24
TORSDOF 4
ENDMDL
MODEL 8
REMARK VINA RESULT:      -6.7     10.308     12.772
REMARK  Name = 
REMARK  6 active torsions:
REMARK  status: ('A' for Active; 'I' for Inactive)
REMARK    1  A    between atoms: C_1  and  O_2
REMARK    2  A    between atoms: O_2  and  C_3
REMARK    3  A    between atoms: C_7  and  O_8
REMARK    4  A    between atoms: O_8  and  C_9
REMARK    5  A    between atoms: C_10  and  C_11
REMARK    6  A    between atoms: C_17  and  C_18
REMARK                            x       y       z     vdW  Elec       q    Type
REMARK                         _______ _______ _______ _____ _____    ______ ____
ROOT
ATOM      1  C   UNL     1      -2.965  12.723  20.013  0.00  0.00    +0.000 A 
ATOM      2  N   UNL     1      -1.879  12.025  20.306  0.00  0.00    +0.000 NA
ATOM      3  C   UNL     1      -0.828  12.918  20.453  0.00  0.00    +0.000 A 
ATOM      4  C   UNL     1      -1.284  14.204  20.233  0.00  0.00    +0.000 A 
ATOM      5  N   UNL     1      -2.626  14.060  19.996  0.00  0.00    +0.000 N 
ATOM      6  C   UNL     1      -0.620  15.534  20.306  0.00  0.00    +0.000 C 
ATOM      7  C   UNL     1       0.808  15.614  19.713  0.00  0.00    +0.000 C 
ATOM      8  C   UNL     1       1.443  14.280  19.280  0.00  0.00    +0.000 C 
ATOM      9  N   UNL     1       1.568  13.324  20.361  0.00  0.00    +0.000 N 
ATOM     10  C   UNL     1       0.536  12.515  20.799  0.00  0.00    +0.000 C 
ATOM     11  O   UNL     1       0.815  11.508  21.450  0.00  0.00    +0.000 OA
ATOM     12  H   UNL     1      -3.298  14.801  19.848  0.00  0.00    +0.000 HD
ATOM     13  H   UNL     1       2.475  12.918  20.552  0.00  0.00    +0.000 HD
ENDROOT
BRANCH   1  19
ATOM     14  C   UNL     1      -5.388  12.400  20.699  0.00  0.00    +0.000 A 
ATOM     15  C   UNL     1      -6.695  11.965  20.420  0.00  0.00    +0.000 A 
ATOM     16  C   UNL     1      -6.982  11.298  19.242  0.00  0.00    +0.000 A 
ATOM     17  C   UNL     1      -5.974  11.087  18.311  0.00  0.00    +0.000 A 
ATOM     18  C   UNL     1      -4.672  11.567  18.528  0.00  0.00    +0.000 A 
ATOM     19  C   UNL     1      -4.343  12.227  19.745  0.00  0.00    +0.000 A 
BRANCH  14  21
ATOM     20  C   UNL     1      -5.802  14.271  22.103  0.00  0.00    +0.000 C 
ATOM     21  O   UNL     1      -5.104  13.044  21.887  0.00  0.00    +0.000 OA
ENDBRANCH  14  21
BRANCH  18  22
ATOM     22  O   UNL     1      -3.687  11.391  17.585  0.00  0.00    +0.000 OA
ATOM     23  C   UNL     1      -3.227  10.056  17.370  0.00  0.00    +0.000 C 
ENDBRANCH  18  22
ENDBRANCH   1  19
BRANCH   7  24
ATOM     24  C   UNL     1       0.826  16.651  18.593  0.00  0.00    +0.000 A 
ATOM     25  C   UNL     1      -0.380  17.246  18.184  0.00  0.00    +0.000 A 
ATOM     26  C   UNL     1      -0.406  18.135  17.112  0.00  0.00    +0.000 A 
ATOM     27  C   UNL     1       0.772  18.446  16.435  0.00  0.00    +0.000 A 
ATOM     28  C   UNL     1       1.975  17.872  16.832  0.00  0.00    +0.000 A 
ATOM     29  C   UNL     1       2.001  16.973  17.901  0.00  0.00    +0.000 A 
ENDBRANCH   7  24
TORSDOF 4
ENDMDL
MODEL 9
REMARK VINA RESULT:      -6.7     10.447     12.783
REMARK  Name = 
REMARK  6 active torsions:
REMARK  status: ('A' for Active; 'I' for Inactive)
REMARK    1  A    between atoms: C_1  and  O_2
REMARK    2  A    between atoms: O_2  and  C_3
REMARK    3  A    between atoms: C_7  and  O_8
REMARK    4  A    between atoms: O_8  and  C_9
REMARK    5  A    between atoms: C_10  and  C_11
REMARK    6  A    between atoms: C_17  and  C_18
REMARK                            x       y       z     vdW  Elec       q    Type
REMARK                         _______ _______ _______ _____ _____    ______ ____
ROOT
ATOM      1  C   UNL     1      -3.093  12.753  20.080  0.00  0.00    +0.000 A 
ATOM      2  N   UNL     1      -1.995  12.080  20.389  0.00  0.00    +0.000 NA
ATOM      3  C   UNL     1      -0.965  12.996  20.539  0.00  0.00    +0.000 A 
ATOM      4  C   UNL     1      -1.446  14.271  20.304  0.00  0.00    +0.000 A 
ATOM      5  N   UNL     1      -2.782  14.097  20.056  0.00  0.00    +0.000 N 
ATOM      6  C   UNL     1      -0.811  15.615  20.373  0.00  0.00    +0.000 C 
ATOM      7  C   UNL     1       0.621  15.721  19.792  0.00  0.00    +0.000 C 
ATOM      8  C   UNL     1       1.288  14.397  19.376  0.00  0.00    +0.000 C 
ATOM      9  N   UNL     1       1.422  13.452  20.466  0.00  0.00    +0.000 N 
ATOM     10  C   UNL     1       0.404  12.625  20.901  0.00  0.00    +0.000 C 
ATOM     11  O   UNL     1       0.697  11.629  21.562  0.00  0.00    +0.000 OA
ATOM     12  H   UNL     1      -3.468  14.821  19.895  0.00  0.00    +0.000 HD
ATOM     13  H   UNL     1       2.336  13.068  20.669  0.00  0.00    +0.000 HD
ENDROOT
BRANCH   1  19
ATOM     14  C   UNL     1      -4.766  11.587  18.566  0.00  0.00    +0.000 A 
ATOM     15  C   UNL     1      -6.046  11.056  18.330  0.00  0.00    +0.000 A 
ATOM     16  C   UNL     1      -7.054  11.202  19.266  0.00  0.00    +0.000 A 
ATOM     17  C   UNL     1      -6.790  11.849  20.465  0.00  0.00    +0.000 A 
ATOM     18  C   UNL     1      -5.504  12.333  20.761  0.00  0.00    +0.000 A 
ATOM     19  C   UNL     1      -4.458  12.225  19.803  0.00  0.00    +0.000 A 
BRANCH  14  21
ATOM     20  C   UNL     1      -3.305  10.128  17.390  0.00  0.00    +0.000 C 
ATOM     21  O   UNL     1      -3.770  11.460  17.618  0.00  0.00    +0.000 OA
ENDBRANCH  14  21
BRANCH  18  22
ATOM     22  O   UNL     1      -5.236  12.937  21.967  0.00  0.00    +0.000 OA
ATOM     23  C   UNL     1      -6.359  13.341  22.753  0.00  0.00    +0.000 C 
ENDBRANCH  18  22
ENDBRANCH   1  19
BRANCH   7  24
ATOM     24  C   UNL     1       0.628  16.749  18.665  0.00  0.00    +0.000 A 
ATOM     25  C   UNL     1      -0.582  17.347  18.269  0.00  0.00    +0.000 A 
ATOM     26  C   UNL     1      -0.618  18.229  17.191  0.00  0.00    +0.000 A 
ATOM     27  C   UNL     1       0.550  18.528  16.494  0.00  0.00    +0.000 A 
ATOM     28  C   UNL     1       1.756  17.950  16.877  0.00  0.00    +0.000 A 
ATOM     29  C   UNL     1       1.794  17.059  17.952  0.00  0.00    +0.000 A 
ENDBRANCH   7  24
TORSDOF 4
ENDMDL
