MODEL 1
REMARK VINA RESULT:      -7.4      0.000      0.000
REMARK  Name = 
REMARK  3 active torsions:
REMARK  status: ('A' for Active; 'I' for Inactive)
REMARK    1  A    between atoms: C_3  and  C_4
REMARK    2  A    between atoms: C_10  and  C_11
REMARK    3  A    between atoms: C_14  and  C_15
REMARK                            x       y       z     vdW  Elec       q    Type
REMARK                         _______ _______ _______ _____ _____    ______ ____
ROOT
ATOM      1  C   UNL     1       5.049   6.441  16.247  0.00  0.00    +0.000 A 
ATOM      2  C   UNL     1       5.046   5.181  16.848  0.00  0.00    +0.000 A 
ATOM      3  C   UNL     1       4.169   4.916  17.898  0.00  0.00    +0.000 A 
ATOM      4  C   UNL     1       3.317   5.921  18.368  0.00  0.00    +0.000 A 
ATOM      5  C   UNL     1       3.307   7.190  17.775  0.00  0.00    +0.000 A 
ATOM      6  C   UNL     1       4.177   7.436  16.703  0.00  0.00    +0.000 A 
ENDROOT
BRANCH   3   7
ATOM      7  C   UNL     1       4.101   3.564  18.499  0.00  0.00    +0.000 C 
ATOM      8  N   UNL     1       4.801   3.237  19.552  0.00  0.00    +0.000 NA
ATOM      9  C   UNL     1       4.486   1.801  19.790  0.00  0.00    +0.000 C 
ATOM     10  C   UNL     1       3.565   1.345  18.656  0.00  0.00    +0.000 C 
ATOM     11  N   UNL     1       3.314   2.580  17.952  0.00  0.00    +0.000 N 
ATOM     12  H   UNL     1       3.321   2.527  16.938  0.00  0.00    +0.000 HD
ENDBRANCH   3   7
BRANCH   5  13
ATOM     13  C   UNL     1       2.405   8.216  18.278  0.00  0.00    +0.000 A 
ATOM     14  N   UNL     1       1.950   9.247  17.553  0.00  0.00    +0.000 NA
ATOM     15  O   UNL     1       1.139   9.947  18.445  0.00  0.00    +0.000 OA
ATOM     16  C   UNL     1       1.175   9.270  19.638  0.00  0.00    +0.000 A 
ATOM     17  N   UNL     1       1.930   8.195  19.574  0.00  0.00    +0.000 NA
BRANCH  16  18
ATOM     18  C   UNL     1       0.482   9.683  20.825  0.00  0.00    +0.000 A 
ATOM     19  C   UNL     1       0.255   8.925  21.961  0.00  0.00    +0.000 A 
ATOM     20  C   UNL     1      -0.448   9.646  22.969  0.00  0.00    +0.000 A 
ATOM     21  C   UNL     1      -0.741  10.931  22.572  0.00  0.00    +0.000 A 
ATOM     22  S   UNL     1      -0.174  11.257  20.990  0.00  0.00    +0.000 S 
ENDBRANCH  16  18
ENDBRANCH   5  13
TORSDOF 3
ENDMDL
MODEL 2
REMARK VINA RESULT:      -7.2      1.752      2.766
REMARK  Name = 
REMARK  3 active torsions:
REMARK  status: ('A' for Active; 'I' for Inactive)
REMARK    1  A    between atoms: C_3  and  C_4
REMARK    2  A    between atoms: C_10  and  C_11
REMARK    3  A    between atoms: C_14  and  C_15
REMARK                            x       y       z     vdW  Elec       q    Type
REMARK                         _______ _______ _______ _____ _____    ______ ____
ROOT
ATOM      1  C   UNL     1       2.460   4.035  20.567  0.00  0.00    +0.000 A 
ATOM      2  C   UNL     1       3.619   3.831  19.817  0.00  0.00    +0.000 A 
ATOM      3  C   UNL     1       4.178   4.890  19.103  0.00  0.00    +0.000 A 
ATOM      4  C   UNL     1       3.559   6.145  19.115  0.00  0.00    +0.000 A 
ATOM      5  C   UNL     1       2.397   6.366  19.864  0.00  0.00    +0.000 A 
ATOM      6  C   UNL     1       1.859   5.298  20.597  0.00  0.00    +0.000 A 
ENDROOT
BRANCH   3   7
ATOM      7  C   UNL     1       5.447   4.711  18.362  0.00  0.00    +0.000 C 
ATOM      8  N   UNL     1       6.611   4.807  18.946  0.00  0.00    +0.000 NA
ATOM      9  C   UNL     1       7.605   4.618  17.854  0.00  0.00    +0.000 C 
ATOM     10  C   UNL     1       6.821   4.486  16.546  0.00  0.00    +0.000 C 
ATOM     11  N   UNL     1       5.455   4.464  17.010  0.00  0.00    +0.000 N 
ATOM     12  H   UNL     1       4.787   4.998  16.464  0.00  0.00    +0.000 HD
ENDBRANCH   3   7
BRANCH   5  13
ATOM     13  C   UNL     1       1.777   7.683  19.865  0.00  0.00    +0.000 A 
ATOM     14  N   UNL     1       1.913   8.586  18.884  0.00  0.00    +0.000 NA
ATOM     15  O   UNL     1       1.157   9.671  19.325  0.00  0.00    +0.000 OA
ATOM     16  C   UNL     1       0.627   9.323  20.542  0.00  0.00    +0.000 A 
ATOM     17  N   UNL     1       0.973   8.107  20.903  0.00  0.00    +0.000 NA
BRANCH  16  18
ATOM     18  C   UNL     1      -0.202  10.183  21.340  0.00  0.00    +0.000 A 
ATOM     19  C   UNL     1      -0.498  10.037  22.684  0.00  0.00    +0.000 A 
ATOM     20  C   UNL     1      -1.334  11.080  23.177  0.00  0.00    +0.000 A 
ATOM     21  C   UNL     1      -1.657  11.988  22.193  0.00  0.00    +0.000 A 
ATOM     22  S   UNL     1      -0.955  11.576  20.687  0.00  0.00    +0.000 S 
ENDBRANCH  16  18
ENDBRANCH   5  13
TORSDOF 3
ENDMDL
MODEL 3
REMARK VINA RESULT:      -7.2      2.655      4.200
REMARK  Name = 
REMARK  3 active torsions:
REMARK  status: ('A' for Active; 'I' for Inactive)
REMARK    1  A    between atoms: C_3  and  C_4
REMARK    2  A    between atoms: C_10  and  C_11
REMARK    3  A    between atoms: C_14  and  C_15
REMARK                            x       y       z     vdW  Elec       q    Type
REMARK                         _______ _______ _______ _____ _____    ______ ____
ROOT
ATOM      1  C   UNL     1       1.657   9.743  17.902  0.00  0.00    +0.000 A 
ATOM      2  C   UNL     1       2.232   8.471  17.930  0.00  0.00    +0.000 A 
ATOM      3  C   UNL     1       2.185   7.715  19.101  0.00  0.00    +0.000 A 
ATOM      4  C   UNL     1       1.590   8.243  20.251  0.00  0.00    +0.000 A 
ATOM      5  C   UNL     1       1.007   9.517  20.238  0.00  0.00    +0.000 A 
ATOM      6  C   UNL     1       1.040  10.257  19.048  0.00  0.00    +0.000 A 
ENDROOT
BRANCH   3   7
ATOM      7  C   UNL     1       2.724   6.336  19.128  0.00  0.00    +0.000 C 
ATOM      8  N   UNL     1       3.123   5.726  18.044  0.00  0.00    +0.000 NA
ATOM      9  C   UNL     1       3.533   4.369  18.497  0.00  0.00    +0.000 C 
ATOM     10  C   UNL     1       3.223   4.278  19.993  0.00  0.00    +0.000 C 
ATOM     11  N   UNL     1       2.802   5.624  20.300  0.00  0.00    +0.000 N 
ATOM     12  H   UNL     1       2.004   5.714  20.920  0.00  0.00    +0.000 HD
ENDBRANCH   3   7
BRANCH   5  13
ATOM     13  C   UNL     1       0.387  10.041  21.447  0.00  0.00    +0.000 A 
ATOM     14  N   UNL     1       0.582   9.542  22.676  0.00  0.00    +0.000 NA
ATOM     15  O   UNL     1      -0.208  10.352  23.491  0.00  0.00    +0.000 OA
ATOM     16  C   UNL     1      -0.812  11.275  22.675  0.00  0.00    +0.000 A 
ATOM     17  N   UNL     1      -0.464  11.126  21.416  0.00  0.00    +0.000 NA
BRANCH  16  18
ATOM     18  C   UNL     1      -1.727  12.283  23.133  0.00  0.00    +0.000 A 
ATOM     19  C   UNL     1      -3.034  12.092  23.547  0.00  0.00    +0.000 A 
ATOM     20  C   UNL     1      -3.660  13.303  23.961  0.00  0.00    +0.000 A 
ATOM     21  C   UNL     1      -2.815  14.384  23.845  0.00  0.00    +0.000 A 
ATOM     22  S   UNL     1      -1.279  13.933  23.236  0.00  0.00    +0.000 S 
ENDBRANCH  16  18
ENDBRANCH   5  13
TORSDOF 3
ENDMDL
MODEL 4
REMARK VINA RESULT:      -7.1      2.448      3.678
REMARK  Name = 
REMARK  3 active torsions:
REMARK  status: ('A' for Active; 'I' for Inactive)
REMARK    1  A    between atoms: C_3  and  C_4
REMARK    2  A    between atoms: C_10  and  C_11
REMARK    3  A    between atoms: C_14  and  C_15
REMARK                            x       y       z     vdW  Elec       q    Type
REMARK                         _______ _______ _______ _____ _____    ______ ____
ROOT
ATOM      1  C   UNL     1       1.871   8.752  17.901  0.00  0.00    +0.000 A 
ATOM      2  C   UNL     1       2.399   7.472  18.081  0.00  0.00    +0.000 A 
ATOM      3  C   UNL     1       2.356   6.876  19.340  0.00  0.00    +0.000 A 
ATOM      4  C   UNL     1       1.814   7.572  20.426  0.00  0.00    +0.000 A 
ATOM      5  C   UNL     1       1.279   8.856  20.261  0.00  0.00    +0.000 A 
ATOM      6  C   UNL     1       1.307   9.435  18.985  0.00  0.00    +0.000 A 
ENDROOT
BRANCH   3   7
ATOM      7  C   UNL     1       2.844   5.491  19.533  0.00  0.00    +0.000 C 
ATOM      8  N   UNL     1       2.249   4.652  20.339  0.00  0.00    +0.000 NA
ATOM      9  C   UNL     1       3.076   3.415  20.282  0.00  0.00    +0.000 C 
ATOM     10  C   UNL     1       4.279   3.715  19.385  0.00  0.00    +0.000 C 
ATOM     11  N   UNL     1       3.969   5.035  18.891  0.00  0.00    +0.000 N 
ATOM     12  H   UNL     1       4.743   5.690  18.847  0.00  0.00    +0.000 HD
ENDBRANCH   3   7
BRANCH   5  13
ATOM     13  C   UNL     1       0.714   9.555  21.406  0.00  0.00    +0.000 A 
ATOM     14  N   UNL     1       0.999   9.271  22.685  0.00  0.00    +0.000 NA
ATOM     15  O   UNL     1       0.230  10.184  23.406  0.00  0.00    +0.000 OA
ATOM     16  C   UNL     1      -0.454  10.944  22.492  0.00  0.00    +0.000 A 
ATOM     17  N   UNL     1      -0.176  10.599  21.253  0.00  0.00    +0.000 NA
BRANCH  16  18
ATOM     18  C   UNL     1      -1.376  11.990  22.836  0.00  0.00    +0.000 A 
ATOM     19  C   UNL     1      -2.648  11.836  23.359  0.00  0.00    +0.000 A 
ATOM     20  C   UNL     1      -3.292  13.083  23.609  0.00  0.00    +0.000 A 
ATOM     21  C   UNL     1      -2.493  14.151  23.266  0.00  0.00    +0.000 A 
ATOM     22  S   UNL     1      -0.981  13.646  22.642  0.00  0.00    +0.000 S 
ENDBRANCH  16  18
ENDBRANCH   5  13
TORSDOF 3
ENDMDL
MODEL 5
REMARK VINA RESULT:      -7.1      1.962      2.920
REMARK  Name = 
REMARK  3 active torsions:
REMARK  status: ('A' for Active; 'I' for Inactive)
REMARK    1  A    between atoms: C_3  and  C_4
REMARK    2  A    between atoms: C_10  and  C_11
REMARK    3  A    between atoms: C_14  and  C_15
REMARK                            x       y       z     vdW  Elec       q    Type
REMARK                         _______ _______ _______ _____ _____    ______ ____
ROOT
ATOM      1  C   UNL     1       2.409   3.964  20.083  0.00  0.00    +0.000 A 
ATOM      2  C   UNL     1       3.730   3.849  19.649  0.00  0.00    +0.000 A 
ATOM      3  C   UNL     1       4.436   4.990  19.268  0.00  0.00    +0.000 A 
ATOM      4  C   UNL     1       3.809   6.240  19.291  0.00  0.00    +0.000 A 
ATOM      5  C   UNL     1       2.484   6.372  19.726  0.00  0.00    +0.000 A 
ATOM      6  C   UNL     1       1.793   5.220  20.129  0.00  0.00    +0.000 A 
ENDROOT
BRANCH   3   7
ATOM      7  C   UNL     1       5.861   4.897  18.875  0.00  0.00    +0.000 C 
ATOM      8  N   UNL     1       6.816   5.403  19.608  0.00  0.00    +0.000 NA
ATOM      9  C   UNL     1       8.065   5.143  18.841  0.00  0.00    +0.000 C 
ATOM     10  C   UNL     1       7.658   4.487  17.520  0.00  0.00    +0.000 C 
ATOM     11  N   UNL     1       6.239   4.295  17.700  0.00  0.00    +0.000 N 
ATOM     12  H   UNL     1       5.653   4.498  16.897  0.00  0.00    +0.000 HD
ENDBRANCH   3   7
BRANCH   5  13
ATOM     13  C   UNL     1       1.858   7.686  19.748  0.00  0.00    +0.000 A 
ATOM     14  N   UNL     1       1.856   8.542  18.716  0.00  0.00    +0.000 NA
ATOM     15  O   UNL     1       1.154   9.645  19.202  0.00  0.00    +0.000 OA
ATOM     16  C   UNL     1       0.791   9.353  20.493  0.00  0.00    +0.000 A 
ATOM     17  N   UNL     1       1.193   8.155  20.861  0.00  0.00    +0.000 NA
BRANCH  16  18
ATOM     18  C   UNL     1       0.066  10.246  21.351  0.00  0.00    +0.000 A 
ATOM     19  C   UNL     1      -0.246  11.571  21.097  0.00  0.00    +0.000 A 
ATOM     20  C   UNL     1      -0.997  12.168  22.151  0.00  0.00    +0.000 A 
ATOM     21  C   UNL     1      -1.231  11.284  23.180  0.00  0.00    +0.000 A 
ATOM     22  S   UNL     1      -0.543   9.747  22.872  0.00  0.00    +0.000 S 
ENDBRANCH  16  18
ENDBRANCH   5  13
TORSDOF 3
ENDMDL
MODEL 6
REMARK VINA RESULT:      -7.1      1.623      2.751
REMARK  Name = 
REMARK  3 active torsions:
REMARK  status: ('A' for Active; 'I' for Inactive)
REMARK    1  A    between atoms: C_3  and  C_4
REMARK    2  A    between atoms: C_10  and  C_11
REMARK    3  A    between atoms: C_14  and  C_15
REMARK                            x       y       z     vdW  Elec       q    Type
REMARK                         _______ _______ _______ _____ _____    ______ ____
ROOT
ATOM      1  C   UNL     1       2.971   4.316  20.006  0.00  0.00    +0.000 A 
ATOM      2  C   UNL     1       3.768   4.091  18.882  0.00  0.00    +0.000 A 
ATOM      3  C   UNL     1       3.962   5.114  17.955  0.00  0.00    +0.000 A 
ATOM      4  C   UNL     1       3.334   6.350  18.136  0.00  0.00    +0.000 A 
ATOM      5  C   UNL     1       2.533   6.592  19.258  0.00  0.00    +0.000 A 
ATOM      6  C   UNL     1       2.365   5.563  20.196  0.00  0.00    +0.000 A 
ENDROOT
BRANCH   3   7
ATOM      7  C   UNL     1       4.863   4.917  16.796  0.00  0.00    +0.000 C 
ATOM      8  N   UNL     1       5.092   5.865  15.926  0.00  0.00    +0.000 NA
ATOM      9  C   UNL     1       5.991   5.247  14.914  0.00  0.00    +0.000 C 
ATOM     10  C   UNL     1       6.167   3.776  15.301  0.00  0.00    +0.000 C 
ATOM     11  N   UNL     1       5.480   3.711  16.569  0.00  0.00    +0.000 N 
ATOM     12  H   UNL     1       4.905   2.890  16.725  0.00  0.00    +0.000 HD
ENDBRANCH   3   7
BRANCH   5  13
ATOM     13  C   UNL     1       1.896   7.891  19.427  0.00  0.00    +0.000 A 
ATOM     14  N   UNL     1       1.913   8.867  18.509  0.00  0.00    +0.000 NA
ATOM     15  O   UNL     1       1.192   9.898  19.110  0.00  0.00    +0.000 OA
ATOM     16  C   UNL     1       0.800   9.448  20.345  0.00  0.00    +0.000 A 
ATOM     17  N   UNL     1       1.201   8.216  20.573  0.00  0.00    +0.000 NA
BRANCH  16  18
ATOM     18  C   UNL     1       0.048  10.226  21.289  0.00  0.00    +0.000 A 
ATOM     19  C   UNL     1      -0.465   9.793  22.500  0.00  0.00    +0.000 A 
ATOM     20  C   UNL     1      -1.144  10.826  23.208  0.00  0.00    +0.000 A 
ATOM     21  C   UNL     1      -1.134  12.016  22.515  0.00  0.00    +0.000 A 
ATOM     22  S   UNL     1      -0.313  11.878  21.019  0.00  0.00    +0.000 S 
ENDBRANCH  16  18
ENDBRANCH   5  13
TORSDOF 3
ENDMDL
MODEL 7
REMARK VINA RESULT:      -7.0      2.445      3.538
REMARK  Name = 
REMARK  3 active torsions:
REMARK  status: ('A' for Active; 'I' for Inactive)
REMARK    1  A    between atoms: C_3  and  C_4
REMARK    2  A    between atoms: C_10  and  C_11
REMARK    3  A    between atoms: C_14  and  C_15
REMARK                            x       y       z     vdW  Elec       q    Type
REMARK                         _______ _______ _______ _____ _____    ______ ____
ROOT
ATOM      1  C   UNL     1       2.289   8.117  18.044  0.00  0.00    +0.000 A 
ATOM      2  C   UNL     1       2.640   6.823  18.433  0.00  0.00    +0.000 A 
ATOM      3  C   UNL     1       2.347   6.385  19.723  0.00  0.00    +0.000 A 
ATOM      4  C   UNL     1       1.731   7.250  20.633  0.00  0.00    +0.000 A 
ATOM      5  C   UNL     1       1.371   8.550  20.257  0.00  0.00    +0.000 A 
ATOM      6  C   UNL     1       1.649   8.971  18.949  0.00  0.00    +0.000 A 
ENDROOT
BRANCH   3   7
ATOM      7  C   UNL     1       2.646   4.993  20.130  0.00  0.00    +0.000 C 
ATOM      8  N   UNL     1       3.400   4.206  19.409  0.00  0.00    +0.000 NA
ATOM      9  C   UNL     1       3.399   2.905  20.134  0.00  0.00    +0.000 C 
ATOM     10  C   UNL     1       2.459   3.055  21.332  0.00  0.00    +0.000 C 
ATOM     11  N   UNL     1       2.116   4.455  21.278  0.00  0.00    +0.000 N 
ATOM     12  H   UNL     1       1.145   4.687  21.461  0.00  0.00    +0.000 HD
ENDBRANCH   3   7
BRANCH   5  13
ATOM     13  C   UNL     1       0.723   9.428  21.221  0.00  0.00    +0.000 A 
ATOM     14  N   UNL     1       1.069   9.522  22.513  0.00  0.00    +0.000 NA
ATOM     15  O   UNL     1       0.181  10.467  23.025  0.00  0.00    +0.000 OA
ATOM     16  C   UNL     1      -0.627  10.863  21.989  0.00  0.00    +0.000 A 
ATOM     17  N   UNL     1      -0.318  10.259  20.862  0.00  0.00    +0.000 NA
BRANCH  16  18
ATOM     18  C   UNL     1      -1.692  11.818  22.113  0.00  0.00    +0.000 A 
ATOM     19  C   UNL     1      -2.397  12.131  23.263  0.00  0.00    +0.000 A 
ATOM     20  C   UNL     1      -3.378  13.142  23.045  0.00  0.00    +0.000 A 
ATOM     21  C   UNL     1      -3.397  13.566  21.735  0.00  0.00    +0.000 A 
ATOM     22  S   UNL     1      -2.239  12.743  20.779  0.00  0.00    +0.000 S 
ENDBRANCH  16  18
ENDBRANCH   5  13
TORSDOF 3
ENDMDL
MODEL 8
REMARK VINA RESULT:      -7.0      4.040      8.074
REMARK  Name = 
REMARK  3 active torsions:
REMARK  status: ('A' for Active; 'I' for Inactive)
REMARK    1  A    between atoms: C_3  and  C_4
REMARK    2  A    between atoms: C_10  and  C_11
REMARK    3  A    between atoms: C_14  and  C_15
REMARK                            x       y       z     vdW  Elec       q    Type
REMARK                         _______ _______ _______ _____ _____    ______ ____
ROOT
ATOM      1  C   UNL     1       2.456   3.793  20.249  0.00  0.00    +0.000 A 
ATOM      2  C   UNL     1       1.949   5.065  20.520  0.00  0.00    +0.000 A 
ATOM      3  C   UNL     1       2.458   6.172  19.844  0.00  0.00    +0.000 A 
ATOM      4  C   UNL     1       3.496   6.012  18.920  0.00  0.00    +0.000 A 
ATOM      5  C   UNL     1       4.015   4.742  18.637  0.00  0.00    +0.000 A 
ATOM      6  C   UNL     1       3.478   3.633  19.305  0.00  0.00    +0.000 A 
ENDROOT
BRANCH   3   7
ATOM      7  C   UNL     1       1.882   7.519  20.064  0.00  0.00    +0.000 C 
ATOM      8  N   UNL     1       1.742   8.381  19.093  0.00  0.00    +0.000 NA
ATOM      9  C   UNL     1       1.187   9.601  19.741  0.00  0.00    +0.000 C 
ATOM     10  C   UNL     1       1.116   9.323  21.244  0.00  0.00    +0.000 C 
ATOM     11  N   UNL     1       1.493   7.932  21.316  0.00  0.00    +0.000 N 
ATOM     12  H   UNL     1       2.116   7.675  22.074  0.00  0.00    +0.000 HD
ENDBRANCH   3   7
BRANCH   5  13
ATOM     13  C   UNL     1       5.091   4.602  17.665  0.00  0.00    +0.000 A 
ATOM     14  N   UNL     1       6.396   4.628  17.970  0.00  0.00    +0.000 NA
ATOM     15  O   UNL     1       7.027   4.462  16.738  0.00  0.00    +0.000 OA
ATOM     16  C   UNL     1       6.040   4.348  15.793  0.00  0.00    +0.000 A 
ATOM     17  N   UNL     1       4.837   4.415  16.322  0.00  0.00    +0.000 NA
BRANCH  16  18
ATOM     18  C   UNL     1       6.280   4.183  14.387  0.00  0.00    +0.000 A 
ATOM     19  C   UNL     1       5.537   3.421  13.501  0.00  0.00    +0.000 A 
ATOM     20  C   UNL     1       6.035   3.492  12.167  0.00  0.00    +0.000 A 
ATOM     21  C   UNL     1       7.145   4.301  12.075  0.00  0.00    +0.000 A 
ATOM     22  S   UNL     1       7.581   4.964  13.592  0.00  0.00    +0.000 S 
ENDBRANCH  16  18
ENDBRANCH   5  13
TORSDOF 3
ENDMDL
MODEL 9
REMARK VINA RESULT:      -7.0      2.649      4.097
REMARK  Name = 
REMARK  3 active torsions:
REMARK  status: ('A' for Active; 'I' for Inactive)
REMARK    1  A    between atoms: C_3  and  C_4
REMARK    2  A    between atoms: C_10  and  C_11
REMARK    3  A    between atoms: C_14  and  C_15
REMARK                            x       y       z     vdW  Elec       q    Type
REMARK                         _______ _______ _______ _____ _____    ______ ____
ROOT
ATOM      1  C   UNL     1       1.595   9.224  17.910  0.00  0.00    +0.000 A 
ATOM      2  C   UNL     1       2.215   7.982  18.060  0.00  0.00    +0.000 A 
ATOM      3  C   UNL     1       2.243   7.368  19.311  0.00  0.00    +0.000 A 
ATOM      4  C   UNL     1       1.677   8.009  20.418  0.00  0.00    +0.000 A 
ATOM      5  C   UNL     1       1.050   9.254  20.284  0.00  0.00    +0.000 A 
ATOM      6  C   UNL     1       1.008   9.851  19.015  0.00  0.00    +0.000 A 
ENDROOT
BRANCH   3   7
ATOM      7  C   UNL     1       2.831   6.019  19.474  0.00  0.00    +0.000 C 
ATOM      8  N   UNL     1       2.246   5.087  20.179  0.00  0.00    +0.000 NA
ATOM      9  C   UNL     1       3.179   3.928  20.131  0.00  0.00    +0.000 C 
ATOM     10  C   UNL     1       4.422   4.378  19.359  0.00  0.00    +0.000 C 
ATOM     11  N   UNL     1       4.041   5.695  18.909  0.00  0.00    +0.000 N 
ATOM     12  H   UNL     1       4.756   6.412  18.967  0.00  0.00    +0.000 HD
ENDBRANCH   3   7
BRANCH   5  13
ATOM     13  C   UNL     1       0.462   9.897  21.451  0.00  0.00    +0.000 A 
ATOM     14  N   UNL     1       0.558   9.429  22.703  0.00  0.00    +0.000 NA
ATOM     15  O   UNL     1      -0.152  10.361  23.460  0.00  0.00    +0.000 OA
ATOM     16  C   UNL     1      -0.614  11.316  22.590  0.00  0.00    +0.000 A 
ATOM     17  N   UNL     1      -0.248  11.076  21.350  0.00  0.00    +0.000 NA
BRANCH  16  18
ATOM     18  C   UNL     1      -1.412  12.445  22.978  0.00  0.00    +0.000 A 
ATOM     19  C   UNL     1      -0.993  13.761  23.083  0.00  0.00    +0.000 A 
ATOM     20  C   UNL     1      -2.045  14.640  23.472  0.00  0.00    +0.000 A 
ATOM     21  C   UNL     1      -3.233  13.970  23.658  0.00  0.00    +0.000 A 
ATOM     22  S   UNL     1      -3.073  12.290  23.367  0.00  0.00    +0.000 S 
ENDBRANCH  16  18
ENDBRANCH   5  13
TORSDOF 3
ENDMDL
