MODEL 1
REMARK VINA RESULT:      -7.1      0.000      0.000
REMARK  Name = 
REMARK  4 active torsions:
REMARK  status: ('A' for Active; 'I' for Inactive)
REMARK    1  A    between atoms: C_1  and  C_2
REMARK    2  A    between atoms: C_2  and  C_3
REMARK    3  A    between atoms: C_2  and  N_4
REMARK    4  A    between atoms: N_10  and  C_11
REMARK                            x       y       z     vdW  Elec       q    Type
REMARK                         _______ _______ _______ _____ _____    ______ ____
ROOT
ATOM      1  N   UNL     1       6.597   3.577  13.997  0.00  0.00    +0.000 N 
ATOM      2  C   UNL     1       5.774   4.067  15.062  0.00  0.00    +0.000 C 
ATOM      3  N   UNL     1       4.897   4.989  14.858  0.00  0.00    +0.000 NA
ATOM      4  N   UNL     1       5.980   3.581  16.386  0.00  0.00    +0.000 N 
ATOM      5  C   UNL     1       5.170   3.973  17.492  0.00  0.00    +0.000 C 
ATOM      6  N   UNL     1       5.628   3.862  18.693  0.00  0.00    +0.000 NA
ATOM      7  N   UNL     1       3.825   4.434  17.308  0.00  0.00    +0.000 N 
ATOM      8  H   UNL     1       7.422   3.003  14.239  0.00  0.00    +0.000 HD
ATOM      9  H   UNL     1       4.727   5.430  13.945  0.00  0.00    +0.000 HD
ATOM     10  H   UNL     1       6.814   3.001  16.570  0.00  0.00    +0.000 HD
ATOM     11  H   UNL     1       6.576   3.506  18.879  0.00  0.00    +0.000 HD
ATOM     12  H   UNL     1       3.272   4.045  16.530  0.00  0.00    +0.000 HD
ENDROOT
BRANCH   7  13
ATOM     13  C   UNL     1       3.187   5.323  18.223  0.00  0.00    +0.000 A 
ATOM     14  C   UNL     1       2.774   4.864  19.481  0.00  0.00    +0.000 A 
ATOM     15  C   UNL     1       2.169   5.730  20.388  0.00  0.00    +0.000 A 
ATOM     16  C   UNL     1       1.958   7.066  20.053  0.00  0.00    +0.000 A 
ATOM     17 CL   UNL     1       1.172   8.117  21.224  0.00  0.00    +0.000 Cl
ATOM     18  C   UNL     1       2.368   7.545  18.797  0.00  0.00    +0.000 A 
ATOM     19 CL   UNL     1       2.100   9.220  18.334  0.00  0.00    +0.000 Cl
ATOM     20  C   UNL     1       2.999   6.676  17.891  0.00  0.00    +0.000 A 
ENDBRANCH   7  13
BRANCH   1  22
ATOM     21  C   UNL     1       7.388   4.496  11.845  0.00  0.00    +0.000 C 
ATOM     22  C   UNL     1       6.260   3.788  12.597  0.00  0.00    +0.000 C 
ATOM     23  C   UNL     1       6.000   2.424  11.939  0.00  0.00    +0.000 C 
ENDBRANCH   1  22
TORSDOF 2
ENDMDL
MODEL 2
REMARK VINA RESULT:      -6.9      5.160      6.407
REMARK  Name = 
REMARK  4 active torsions:
REMARK  status: ('A' for Active; 'I' for Inactive)
REMARK    1  A    between atoms: C_1  and  C_2
REMARK    2  A    between atoms: C_2  and  C_3
REMARK    3  A    between atoms: C_2  and  N_4
REMARK    4  A    between atoms: N_10  and  C_11
REMARK                            x       y       z     vdW  Elec       q    Type
REMARK                         _______ _______ _______ _____ _____    ______ ____
ROOT
ATOM      1  N   UNL     1       9.433  10.278  18.792  0.00  0.00    +0.000 N 
ATOM      2  C   UNL     1       8.576   9.174  18.477  0.00  0.00    +0.000 C 
ATOM      3  N   UNL     1       7.551   9.322  17.709  0.00  0.00    +0.000 NA
ATOM      4  N   UNL     1       8.816   7.907  19.084  0.00  0.00    +0.000 N 
ATOM      5  C   UNL     1       8.048   6.744  18.784  0.00  0.00    +0.000 C 
ATOM      6  N   UNL     1       8.007   5.768  19.626  0.00  0.00    +0.000 NA
ATOM      7  N   UNL     1       7.363   6.602  17.532  0.00  0.00    +0.000 N 
ATOM      8  H   UNL     1      10.105  10.172  19.569  0.00  0.00    +0.000 HD
ATOM      9  H   UNL     1       7.279  10.214  17.277  0.00  0.00    +0.000 HD
ATOM     10  H   UNL     1       9.508   7.854  19.849  0.00  0.00    +0.000 HD
ATOM     11  H   UNL     1       8.508   5.809  20.525  0.00  0.00    +0.000 HD
ATOM     12  H   UNL     1       7.778   7.032  16.692  0.00  0.00    +0.000 HD
ENDROOT
BRANCH   7  13
ATOM     13  C   UNL     1       6.194   5.799  17.385  0.00  0.00    +0.000 A 
ATOM     14  C   UNL     1       6.274   4.545  16.763  0.00  0.00    +0.000 A 
ATOM     15  C   UNL     1       5.142   3.745  16.633  0.00  0.00    +0.000 A 
ATOM     16  C   UNL     1       3.909   4.186  17.112  0.00  0.00    +0.000 A 
ATOM     17 CL   UNL     1       2.503   3.149  16.906  0.00  0.00    +0.000 Cl
ATOM     18  C   UNL     1       3.811   5.438  17.740  0.00  0.00    +0.000 A 
ATOM     19 CL   UNL     1       2.268   6.034  18.338  0.00  0.00    +0.000 Cl
ATOM     20  C   UNL     1       4.958   6.236  17.892  0.00  0.00    +0.000 A 
ENDBRANCH   7  13
BRANCH   1  22
ATOM     21  C   UNL     1       8.911  12.693  18.799  0.00  0.00    +0.000 C 
ATOM     22  C   UNL     1       9.443  11.501  18.002  0.00  0.00    +0.000 C 
ATOM     23  C   UNL     1      10.886  11.796  17.565  0.00  0.00    +0.000 C 
ENDBRANCH   1  22
TORSDOF 2
ENDMDL
MODEL 3
REMARK VINA RESULT:      -6.7      1.917      2.552
REMARK  Name = 
REMARK  4 active torsions:
REMARK  status: ('A' for Active; 'I' for Inactive)
REMARK    1  A    between atoms: C_1  and  C_2
REMARK    2  A    between atoms: C_2  and  C_3
REMARK    3  A    between atoms: C_2  and  N_4
REMARK    4  A    between atoms: N_10  and  C_11
REMARK                            x       y       z     vdW  Elec       q    Type
REMARK                         _______ _______ _______ _____ _____    ______ ____
ROOT
ATOM      1  N   UNL     1       7.763   5.385  13.894  0.00  0.00    +0.000 N 
ATOM      2  C   UNL     1       6.895   4.974  14.957  0.00  0.00    +0.000 C 
ATOM      3  N   UNL     1       5.618   4.915  14.792  0.00  0.00    +0.000 NA
ATOM      4  N   UNL     1       7.447   4.699  16.243  0.00  0.00    +0.000 N 
ATOM      5  C   UNL     1       6.664   4.231  17.339  0.00  0.00    +0.000 C 
ATOM      6  N   UNL     1       7.087   4.400  18.546  0.00  0.00    +0.000 NA
ATOM      7  N   UNL     1       5.437   3.518  17.133  0.00  0.00    +0.000 N 
ATOM      8  H   UNL     1       8.741   5.624  14.123  0.00  0.00    +0.000 HD
ATOM      9  H   UNL     1       5.139   5.151  13.914  0.00  0.00    +0.000 HD
ATOM     10  H   UNL     1       8.434   4.947  16.415  0.00  0.00    +0.000 HD
ATOM     11  H   UNL     1       7.977   4.878  18.744  0.00  0.00    +0.000 HD
ATOM     12  H   UNL     1       5.350   2.918  16.299  0.00  0.00    +0.000 HD
ENDROOT
BRANCH   7  13
ATOM     13  C   UNL     1       4.380   3.518  18.090  0.00  0.00    +0.000 A 
ATOM     14  C   UNL     1       3.876   2.306  18.584  0.00  0.00    +0.000 A 
ATOM     15  C   UNL     1       2.859   2.297  19.534  0.00  0.00    +0.000 A 
ATOM     16  C   UNL     1       2.319   3.494  20.000  0.00  0.00    +0.000 A 
ATOM     17 CL   UNL     1       1.020   3.431  21.184  0.00  0.00    +0.000 Cl
ATOM     18  C   UNL     1       2.813   4.718  19.518  0.00  0.00    +0.000 A 
ATOM     19 CL   UNL     1       2.142   6.247  20.069  0.00  0.00    +0.000 Cl
ATOM     20  C   UNL     1       3.856   4.728  18.576  0.00  0.00    +0.000 A 
ENDBRANCH   7  13
BRANCH   1  22
ATOM     21  C   UNL     1       8.265   6.232  11.628  0.00  0.00    +0.000 C 
ATOM     22  C   UNL     1       7.334   5.391  12.503  0.00  0.00    +0.000 C 
ATOM     23  C   UNL     1       7.326   3.946  11.980  0.00  0.00    +0.000 C 
ENDBRANCH   1  22
TORSDOF 2
ENDMDL
MODEL 4
REMARK VINA RESULT:      -6.4      3.891      7.266
REMARK  Name = 
REMARK  4 active torsions:
REMARK  status: ('A' for Active; 'I' for Inactive)
REMARK    1  A    between atoms: C_1  and  C_2
REMARK    2  A    between atoms: C_2  and  C_3
REMARK    3  A    between atoms: C_2  and  N_4
REMARK    4  A    between atoms: N_10  and  C_11
REMARK                            x       y       z     vdW  Elec       q    Type
REMARK                         _______ _______ _______ _____ _____    ______ ____
ROOT
ATOM      1  N   UNL     1       3.357   3.348  20.366  0.00  0.00    +0.000 N 
ATOM      2  C   UNL     1       4.000   3.639  19.119  0.00  0.00    +0.000 C 
ATOM      3  N   UNL     1       3.361   3.553  18.002  0.00  0.00    +0.000 NA
ATOM      4  N   UNL     1       5.390   3.954  19.106  0.00  0.00    +0.000 N 
ATOM      5  C   UNL     1       6.093   4.310  17.918  0.00  0.00    +0.000 C 
ATOM      6  N   UNL     1       7.376   4.172  17.867  0.00  0.00    +0.000 NA
ATOM      7  N   UNL     1       5.418   4.881  16.790  0.00  0.00    +0.000 N 
ATOM      8  H   UNL     1       3.947   3.219  21.204  0.00  0.00    +0.000 HD
ATOM      9  H   UNL     1       2.374   3.278  17.923  0.00  0.00    +0.000 HD
ATOM     10  H   UNL     1       5.931   3.819  19.975  0.00  0.00    +0.000 HD
ATOM     11  H   UNL     1       7.910   3.797  18.663  0.00  0.00    +0.000 HD
ATOM     12  H   UNL     1       4.596   5.480  16.959  0.00  0.00    +0.000 HD
ENDROOT
BRANCH   7  13
ATOM     13  C   UNL     1       5.902   4.743  15.455  0.00  0.00    +0.000 A 
ATOM     14  C   UNL     1       7.153   5.268  15.101  0.00  0.00    +0.000 A 
ATOM     15  C   UNL     1       7.643   5.120  13.807  0.00  0.00    +0.000 A 
ATOM     16  C   UNL     1       6.890   4.455  12.840  0.00  0.00    +0.000 A 
ATOM     17 CL   UNL     1       7.542   4.312  11.213  0.00  0.00    +0.000 Cl
ATOM     18  C   UNL     1       5.635   3.921  13.178  0.00  0.00    +0.000 A 
ATOM     19 CL   UNL     1       4.650   3.094  11.978  0.00  0.00    +0.000 Cl
ATOM     20  C   UNL     1       5.151   4.050  14.490  0.00  0.00    +0.000 A 
ENDBRANCH   7  13
BRANCH   1  22
ATOM     21  C   UNL     1       1.474   2.530  21.739  0.00  0.00    +0.000 C 
ATOM     22  C   UNL     1       1.908   3.315  20.501  0.00  0.00    +0.000 C 
ATOM     23  C   UNL     1       1.389   4.757  20.615  0.00  0.00    +0.000 C 
ENDBRANCH   1  22
TORSDOF 2
ENDMDL
MODEL 5
REMARK VINA RESULT:      -6.4      2.311      3.035
REMARK  Name = 
REMARK  4 active torsions:
REMARK  status: ('A' for Active; 'I' for Inactive)
REMARK    1  A    between atoms: C_1  and  C_2
REMARK    2  A    between atoms: C_2  and  C_3
REMARK    3  A    between atoms: C_2  and  N_4
REMARK    4  A    between atoms: N_10  and  C_11
REMARK                            x       y       z     vdW  Elec       q    Type
REMARK                         _______ _______ _______ _____ _____    ______ ____
ROOT
ATOM      1  N   UNL     1       7.851   5.340  13.792  0.00  0.00    +0.000 N 
ATOM      2  C   UNL     1       6.919   5.013  14.829  0.00  0.00    +0.000 C 
ATOM      3  N   UNL     1       5.647   5.088  14.632  0.00  0.00    +0.000 NA
ATOM      4  N   UNL     1       7.406   4.673  16.125  0.00  0.00    +0.000 N 
ATOM      5  C   UNL     1       6.551   4.281  17.196  0.00  0.00    +0.000 C 
ATOM      6  N   UNL     1       6.958   4.395  18.416  0.00  0.00    +0.000 NA
ATOM      7  N   UNL     1       5.263   3.700  16.953  0.00  0.00    +0.000 N 
ATOM      8  H   UNL     1       8.843   5.475  14.048  0.00  0.00    +0.000 HD
ATOM      9  H   UNL     1       5.218   5.379  13.744  0.00  0.00    +0.000 HD
ATOM     10  H   UNL     1       8.409   4.816  16.324  0.00  0.00    +0.000 HD
ATOM     11  H   UNL     1       7.888   4.777  18.641  0.00  0.00    +0.000 HD
ATOM     12  H   UNL     1       5.136   3.119  16.111  0.00  0.00    +0.000 HD
ENDROOT
BRANCH   7  13
ATOM     13  C   UNL     1       4.187   3.802  17.884  0.00  0.00    +0.000 A 
ATOM     14  C   UNL     1       3.100   4.645  17.614  0.00  0.00    +0.000 A 
ATOM     15  C   UNL     1       2.035   4.735  18.507  0.00  0.00    +0.000 A 
ATOM     16  C   UNL     1       2.041   3.994  19.687  0.00  0.00    +0.000 A 
ATOM     17 CL   UNL     1       0.683   4.158  20.793  0.00  0.00    +0.000 Cl
ATOM     18  C   UNL     1       3.120   3.142  19.972  0.00  0.00    +0.000 A 
ATOM     19 CL   UNL     1       3.169   2.208  21.461  0.00  0.00    +0.000 Cl
ATOM     20  C   UNL     1       4.184   3.033  19.061  0.00  0.00    +0.000 A 
ENDBRANCH   7  13
BRANCH   1  22
ATOM     21  C   UNL     1       8.394   6.305  11.583  0.00  0.00    +0.000 C 
ATOM     22  C   UNL     1       7.461   5.402  12.391  0.00  0.00    +0.000 C 
ATOM     23  C   UNL     1       7.506   3.983  11.802  0.00  0.00    +0.000 C 
ENDBRANCH   1  22
TORSDOF 2
ENDMDL
MODEL 6
REMARK VINA RESULT:      -6.4      0.994      1.779
REMARK  Name = 
REMARK  4 active torsions:
REMARK  status: ('A' for Active; 'I' for Inactive)
REMARK    1  A    between atoms: C_1  and  C_2
REMARK    2  A    between atoms: C_2  and  C_3
REMARK    3  A    between atoms: C_2  and  N_4
REMARK    4  A    between atoms: N_10  and  C_11
REMARK                            x       y       z     vdW  Elec       q    Type
REMARK                         _______ _______ _______ _____ _____    ______ ____
ROOT
ATOM      1  N   UNL     1       6.930   3.448  13.493  0.00  0.00    +0.000 N 
ATOM      2  C   UNL     1       6.129   3.948  14.570  0.00  0.00    +0.000 C 
ATOM      3  N   UNL     1       5.149   4.758  14.354  0.00  0.00    +0.000 NA
ATOM      4  N   UNL     1       6.469   3.605  15.912  0.00  0.00    +0.000 N 
ATOM      5  C   UNL     1       5.694   4.014  17.036  0.00  0.00    +0.000 C 
ATOM      6  N   UNL     1       6.236   4.056  18.207  0.00  0.00    +0.000 NA
ATOM      7  N   UNL     1       4.299   4.322  16.913  0.00  0.00    +0.000 N 
ATOM      8  H   UNL     1       7.823   2.982  13.720  0.00  0.00    +0.000 HD
ATOM      9  H   UNL     1       4.876   5.096  13.422  0.00  0.00    +0.000 HD
ATOM     10  H   UNL     1       7.368   3.129  16.082  0.00  0.00    +0.000 HD
ATOM     11  H   UNL     1       7.226   3.813  18.352  0.00  0.00    +0.000 HD
ATOM     12  H   UNL     1       3.742   3.811  16.212  0.00  0.00    +0.000 HD
ENDROOT
BRANCH   7  13
ATOM     13  C   UNL     1       3.631   5.222  17.795  0.00  0.00    +0.000 A 
ATOM     14  C   UNL     1       3.668   6.603  17.553  0.00  0.00    +0.000 A 
ATOM     15  C   UNL     1       3.002   7.488  18.396  0.00  0.00    +0.000 A 
ATOM     16  C   UNL     1       2.296   7.013  19.500  0.00  0.00    +0.000 A 
ATOM     17 CL   UNL     1       1.488   8.172  20.548  0.00  0.00    +0.000 Cl
ATOM     18  C   UNL     1       2.246   5.633  19.756  0.00  0.00    +0.000 A 
ATOM     19 CL   UNL     1       1.381   5.001  21.151  0.00  0.00    +0.000 Cl
ATOM     20  C   UNL     1       2.899   4.737  18.893  0.00  0.00    +0.000 A 
ENDBRANCH   7  13
BRANCH   1  22
ATOM     21  C   UNL     1       7.206   4.594  11.322  0.00  0.00    +0.000 C 
ATOM     22  C   UNL     1       6.484   3.499  12.108  0.00  0.00    +0.000 C 
ATOM     23  C   UNL     1       6.766   2.141  11.447  0.00  0.00    +0.000 C 
ENDBRANCH   1  22
TORSDOF 2
ENDMDL
MODEL 7
REMARK VINA RESULT:      -6.3      1.395      1.771
REMARK  Name = 
REMARK  4 active torsions:
REMARK  status: ('A' for Active; 'I' for Inactive)
REMARK    1  A    between atoms: C_1  and  C_2
REMARK    2  A    between atoms: C_2  and  C_3
REMARK    3  A    between atoms: C_2  and  N_4
REMARK    4  A    between atoms: N_10  and  C_11
REMARK                            x       y       z     vdW  Elec       q    Type
REMARK                         _______ _______ _______ _____ _____    ______ ____
ROOT
ATOM      1  N   UNL     1       6.621   3.604  12.760  0.00  0.00    +0.000 N 
ATOM      2  C   UNL     1       6.048   4.117  13.968  0.00  0.00    +0.000 C 
ATOM      3  N   UNL     1       4.831   3.847  14.297  0.00  0.00    +0.000 NA
ATOM      4  N   UNL     1       6.811   5.005  14.782  0.00  0.00    +0.000 N 
ATOM      5  C   UNL     1       6.338   5.516  16.026  0.00  0.00    +0.000 C 
ATOM      6  N   UNL     1       6.842   6.604  16.505  0.00  0.00    +0.000 NA
ATOM      7  N   UNL     1       5.352   4.818  16.797  0.00  0.00    +0.000 N 
ATOM      8  H   UNL     1       7.511   4.010  12.427  0.00  0.00    +0.000 HD
ATOM      9  H   UNL     1       4.199   3.261  13.736  0.00  0.00    +0.000 HD
ATOM     10  H   UNL     1       7.699   5.372  14.406  0.00  0.00    +0.000 HD
ATOM     11  H   UNL     1       7.575   7.125  16.004  0.00  0.00    +0.000 HD
ATOM     12  H   UNL     1       5.337   3.787  16.761  0.00  0.00    +0.000 HD
ENDROOT
BRANCH   7  13
ATOM     13  C   UNL     1       4.467   5.484  17.695  0.00  0.00    +0.000 A 
ATOM     14  C   UNL     1       4.256   4.975  18.985  0.00  0.00    +0.000 A 
ATOM     15  C   UNL     1       3.411   5.630  19.876  0.00  0.00    +0.000 A 
ATOM     16  C   UNL     1       2.752   6.798  19.493  0.00  0.00    +0.000 A 
ATOM     17 CL   UNL     1       1.677   7.578  20.646  0.00  0.00    +0.000 Cl
ATOM     18  C   UNL     1       2.953   7.323  18.206  0.00  0.00    +0.000 A 
ATOM     19 CL   UNL     1       2.123   8.783  17.683  0.00  0.00    +0.000 Cl
ATOM     20  C   UNL     1       3.825   6.675  17.314  0.00  0.00    +0.000 A 
ENDBRANCH   7  13
BRANCH   1  22
ATOM     21  C   UNL     1       4.804   2.897  11.243  0.00  0.00    +0.000 C 
ATOM     22  C   UNL     1       6.038   2.478  12.043  0.00  0.00    +0.000 C 
ATOM     23  C   UNL     1       7.089   1.908  11.078  0.00  0.00    +0.000 C 
ENDBRANCH   1  22
TORSDOF 2
ENDMDL
MODEL 8
REMARK VINA RESULT:      -6.3      4.295      7.855
REMARK  Name = 
REMARK  4 active torsions:
REMARK  status: ('A' for Active; 'I' for Inactive)
REMARK    1  A    between atoms: C_1  and  C_2
REMARK    2  A    between atoms: C_2  and  C_3
REMARK    3  A    between atoms: C_2  and  N_4
REMARK    4  A    between atoms: N_10  and  C_11
REMARK                            x       y       z     vdW  Elec       q    Type
REMARK                         _______ _______ _______ _____ _____    ______ ____
ROOT
ATOM      1  N   UNL     1       0.265   8.181  21.629  0.00  0.00    +0.000 N 
ATOM      2  C   UNL     1       1.248   7.488  20.850  0.00  0.00    +0.000 C 
ATOM      3  N   UNL     1       1.918   8.093  19.930  0.00  0.00    +0.000 NA
ATOM      4  N   UNL     1       1.433   6.088  21.043  0.00  0.00    +0.000 N 
ATOM      5  C   UNL     1       2.425   5.334  20.351  0.00  0.00    +0.000 C 
ATOM      6  N   UNL     1       2.289   4.056  20.228  0.00  0.00    +0.000 NA
ATOM      7  N   UNL     1       3.613   5.952  19.838  0.00  0.00    +0.000 N 
ATOM      8  H   UNL     1      -0.393   7.624  22.198  0.00  0.00    +0.000 HD
ATOM      9  H   UNL     1       1.804   9.086  19.691  0.00  0.00    +0.000 HD
ATOM     10  H   UNL     1       0.753   5.581  21.632  0.00  0.00    +0.000 HD
ATOM     11  H   UNL     1       1.470   3.562  20.607  0.00  0.00    +0.000 HD
ATOM     12  H   UNL     1       4.009   6.756  20.346  0.00  0.00    +0.000 HD
ENDROOT
BRANCH   7  13
ATOM     13  C   UNL     1       4.327   5.429  18.719  0.00  0.00    +0.000 A 
ATOM     14  C   UNL     1       3.659   5.171  17.514  0.00  0.00    +0.000 A 
ATOM     15  C   UNL     1       4.352   4.681  16.411  0.00  0.00    +0.000 A 
ATOM     16  C   UNL     1       5.721   4.432  16.492  0.00  0.00    +0.000 A 
ATOM     17 CL   UNL     1       6.548   3.793  15.078  0.00  0.00    +0.000 Cl
ATOM     18  C   UNL     1       6.407   4.688  17.691  0.00  0.00    +0.000 A 
ATOM     19 CL   UNL     1       8.130   4.366  17.835  0.00  0.00    +0.000 Cl
ATOM     20  C   UNL     1       5.712   5.204  18.798  0.00  0.00    +0.000 A 
ENDBRANCH   7  13
BRANCH   1  22
ATOM     21  C   UNL     1      -0.607  10.239  20.577  0.00  0.00    +0.000 C 
ATOM     22  C   UNL     1       0.225   9.634  21.709  0.00  0.00    +0.000 C 
ATOM     23  C   UNL     1      -0.396  10.039  23.055  0.00  0.00    +0.000 C 
ENDBRANCH   1  22
TORSDOF 2
ENDMDL
MODEL 9
REMARK VINA RESULT:      -6.3      3.957      7.285
REMARK  Name = 
REMARK  4 active torsions:
REMARK  status: ('A' for Active; 'I' for Inactive)
REMARK    1  A    between atoms: C_1  and  C_2
REMARK    2  A    between atoms: C_2  and  C_3
REMARK    3  A    between atoms: C_2  and  N_4
REMARK    4  A    between atoms: N_10  and  C_11
REMARK                            x       y       z     vdW  Elec       q    Type
REMARK                         _______ _______ _______ _____ _____    ______ ____
ROOT
ATOM      1  N   UNL     1       3.556   3.398  20.377  0.00  0.00    +0.000 N 
ATOM      2  C   UNL     1       4.171   3.637  19.105  0.00  0.00    +0.000 C 
ATOM      3  N   UNL     1       3.519   3.470  18.006  0.00  0.00    +0.000 NA
ATOM      4  N   UNL     1       5.551   3.992  19.052  0.00  0.00    +0.000 N 
ATOM      5  C   UNL     1       6.225   4.302  17.835  0.00  0.00    +0.000 C 
ATOM      6  N   UNL     1       7.510   4.199  17.770  0.00  0.00    +0.000 NA
ATOM      7  N   UNL     1       5.516   4.788  16.688  0.00  0.00    +0.000 N 
ATOM      8  H   UNL     1       4.161   3.334  21.211  0.00  0.00    +0.000 HD
ATOM      9  H   UNL     1       2.539   3.162  17.958  0.00  0.00    +0.000 HD
ATOM     10  H   UNL     1       6.108   3.922  19.918  0.00  0.00    +0.000 HD
ATOM     11  H   UNL     1       8.067   3.885  18.577  0.00  0.00    +0.000 HD
ATOM     12  H   UNL     1       4.679   5.371  16.837  0.00  0.00    +0.000 HD
ENDROOT
BRANCH   7  13
ATOM     13  C   UNL     1       5.984   4.590  15.355  0.00  0.00    +0.000 A 
ATOM     14  C   UNL     1       5.303   3.723  14.490  0.00  0.00    +0.000 A 
ATOM     15  C   UNL     1       5.740   3.540  13.181  0.00  0.00    +0.000 A 
ATOM     16  C   UNL     1       6.870   4.210  12.715  0.00  0.00    +0.000 A 
ATOM     17 CL   UNL     1       7.396   3.930  11.061  0.00  0.00    +0.000 Cl
ATOM     18  C   UNL     1       7.564   5.085  13.568  0.00  0.00    +0.000 A 
ATOM     19 CL   UNL     1       9.004   5.931  13.019  0.00  0.00    +0.000 Cl
ATOM     20  C   UNL     1       7.109   5.288  14.882  0.00  0.00    +0.000 A 
ENDBRANCH   7  13
BRANCH   1  22
ATOM     21  C   UNL     1       1.718   2.580  21.812  0.00  0.00    +0.000 C 
ATOM     22  C   UNL     1       2.110   3.330  20.537  0.00  0.00    +0.000 C 
ATOM     23  C   UNL     1       1.552   4.760  20.607  0.00  0.00    +0.000 C 
ENDBRANCH   1  22
TORSDOF 2
ENDMDL
