MODEL 1
REMARK VINA RESULT:      -7.1      0.000      0.000
REMARK  Name = 
REMARK  7 active torsions:
REMARK  status: ('A' for Active; 'I' for Inactive)
REMARK    1  A    between atoms: C_1  and  C_2
REMARK    2  A    between atoms: C_5  and  C_6
REMARK    3  A    between atoms: C_7  and  S_8
REMARK    4  A    between atoms: S_8  and  N_11
REMARK    5  A    between atoms: C_14  and  O_15
REMARK    6  A    between atoms: O_15  and  C_16
REMARK    7  A    between atoms: C_22  and  C_23
REMARK                            x       y       z     vdW  Elec       q    Type
REMARK                         _______ _______ _______ _____ _____    ______ ____
ROOT
ATOM      1  N   UNL     1       3.955   5.058  18.706  0.00  0.00    +0.000 NA
ATOM      2  C   UNL     1       3.248   5.045  20.015  0.00  0.00    +0.000 C 
ATOM      3  C   UNL     1       1.777   5.392  19.856  0.00  0.00    +0.000 C 
ATOM      4  C   UNL     1       1.612   6.777  19.240  0.00  0.00    +0.000 C 
ATOM      5  C   UNL     1       2.290   6.771  17.873  0.00  0.00    +0.000 C 
ATOM      6  C   UNL     1       3.741   6.306  17.906  0.00  0.00    +0.000 C 
ENDROOT
BRANCH   1   7
ATOM      7  S   UNL     1       5.660   4.753  18.879  0.00  0.00    +0.000 S 
ATOM      8  O   UNL     1       5.847   3.324  18.895  0.00  0.00    +0.000 OA
ATOM      9  O   UNL     1       6.160   5.598  19.939  0.00  0.00    +0.000 OA
BRANCH   7  16
ATOM     10  C   UNL     1       5.521   3.556  15.776  0.00  0.00    +0.000 C 
ATOM     11  C   UNL     1       6.358   4.709  16.190  0.00  0.00    +0.000 A 
ATOM     12  N   UNL     1       7.125   5.341  15.291  0.00  0.00    +0.000 NA
ATOM     13  N   UNL     1       7.699   6.335  15.987  0.00  0.00    +0.000 N 
ATOM     14  C   UNL     1       7.381   6.340  17.317  0.00  0.00    +0.000 A 
ATOM     15  C   UNL     1       7.948   7.347  18.244  0.00  0.00    +0.000 C 
ATOM     16  C   UNL     1       6.492   5.287  17.472  0.00  0.00    +0.000 A 
ATOM     17  H   UNL     1       8.302   6.979  15.486  0.00  0.00    +0.000 HD
ENDBRANCH   7  16
ENDBRANCH   1   7
BRANCH   4  18
ATOM     18  O   UNL     1       2.187   7.797  20.079  0.00  0.00    +0.000 OA
BRANCH  18  19
ATOM     19  C   UNL     1       1.344   8.668  20.731  0.00  0.00    +0.000 A 
ATOM     20  C   UNL     1       0.833   8.445  22.017  0.00  0.00    +0.000 A 
ATOM     21  C   UNL     1      -0.054   9.342  22.610  0.00  0.00    +0.000 A 
ATOM     22  C   UNL     1      -0.428  10.496  21.932  0.00  0.00    +0.000 A 
ATOM     23 CL   UNL     1      -1.543  11.585  22.657  0.00  0.00    +0.000 Cl
ATOM     24  C   UNL     1       0.094  10.765  20.671  0.00  0.00    +0.000 A 
ATOM     25  C   UNL     1       0.976   9.853  20.062  0.00  0.00    +0.000 A 
BRANCH  25  26
ATOM     26  C   UNL     1       1.452  10.170  18.745  0.00  0.00    +0.000 C 
ATOM     27  N   UNL     1       1.872  10.356  17.678  0.00  0.00    +0.000 NA
ENDBRANCH  25  26
ENDBRANCH  18  19
ENDBRANCH   4  18
TORSDOF 5
ENDMDL
MODEL 2
REMARK VINA RESULT:      -7.0      0.141      1.600
REMARK  Name = 
REMARK  7 active torsions:
REMARK  status: ('A' for Active; 'I' for Inactive)
REMARK    1  A    between atoms: C_1  and  C_2
REMARK    2  A    between atoms: C_5  and  C_6
REMARK    3  A    between atoms: C_7  and  S_8
REMARK    4  A    between atoms: S_8  and  N_11
REMARK    5  A    between atoms: C_14  and  O_15
REMARK    6  A    between atoms: O_15  and  C_16
REMARK    7  A    between atoms: C_22  and  C_23
REMARK                            x       y       z     vdW  Elec       q    Type
REMARK                         _______ _______ _______ _____ _____    ______ ____
ROOT
ATOM      1  N   UNL     1       3.893   4.958  18.752  0.00  0.00    +0.000 NA
ATOM      2  C   UNL     1       3.251   4.971  20.095  0.00  0.00    +0.000 C 
ATOM      3  C   UNL     1       1.769   5.290  20.000  0.00  0.00    +0.000 C 
ATOM      4  C   UNL     1       1.549   6.654  19.355  0.00  0.00    +0.000 C 
ATOM      5  C   UNL     1       2.160   6.620  17.956  0.00  0.00    +0.000 C 
ATOM      6  C   UNL     1       3.618   6.179  17.930  0.00  0.00    +0.000 C 
ENDROOT
BRANCH   1   7
ATOM      7  S   UNL     1       5.608   4.685  18.848  0.00  0.00    +0.000 S 
ATOM      8  O   UNL     1       5.820   3.260  18.912  0.00  0.00    +0.000 OA
ATOM      9  O   UNL     1       6.148   5.579  19.847  0.00  0.00    +0.000 OA
BRANCH   7  16
ATOM     10  C   UNL     1       7.831   7.108  18.330  0.00  0.00    +0.000 C 
ATOM     11  C   UNL     1       7.301   6.219  17.267  0.00  0.00    +0.000 A 
ATOM     12  N   UNL     1       7.716   6.364  16.000  0.00  0.00    +0.000 NA
ATOM     13  N   UNL     1       7.079   5.390  15.332  0.00  0.00    +0.000 N 
ATOM     14  C   UNL     1       6.221   4.654  16.102  0.00  0.00    +0.000 A 
ATOM     15  C   UNL     1       5.410   3.556  15.523  0.00  0.00    +0.000 C 
ATOM     16  C   UNL     1       6.359   5.173  17.380  0.00  0.00    +0.000 A 
ATOM     17  H   UNL     1       7.278   5.284  14.342  0.00  0.00    +0.000 HD
ENDBRANCH   7  16
ENDBRANCH   1   7
BRANCH   4  18
ATOM     18  O   UNL     1       2.148   7.706  20.136  0.00  0.00    +0.000 OA
BRANCH  18  19
ATOM     19  C   UNL     1       1.324   8.617  20.756  0.00  0.00    +0.000 A 
ATOM     20  C   UNL     1       0.810   8.451  22.050  0.00  0.00    +0.000 A 
ATOM     21  C   UNL     1      -0.057   9.387  22.611  0.00  0.00    +0.000 A 
ATOM     22  C   UNL     1      -0.408  10.523  21.893  0.00  0.00    +0.000 A 
ATOM     23 CL   UNL     1      -1.500  11.661  22.579  0.00  0.00    +0.000 Cl
ATOM     24  C   UNL     1       0.117  10.736  20.622  0.00  0.00    +0.000 A 
ATOM     25  C   UNL     1       0.979   9.785  20.046  0.00  0.00    +0.000 A 
BRANCH  25  26
ATOM     26  C   UNL     1       1.460  10.044  18.718  0.00  0.00    +0.000 C 
ATOM     27  N   UNL     1       1.915  10.281  17.675  0.00  0.00    +0.000 NA
ENDBRANCH  25  26
ENDBRANCH  18  19
ENDBRANCH   4  18
TORSDOF 5
ENDMDL
MODEL 3
REMARK VINA RESULT:      -6.8      2.703      4.033
REMARK  Name = 
REMARK  7 active torsions:
REMARK  status: ('A' for Active; 'I' for Inactive)
REMARK    1  A    between atoms: C_1  and  C_2
REMARK    2  A    between atoms: C_5  and  C_6
REMARK    3  A    between atoms: C_7  and  S_8
REMARK    4  A    between atoms: S_8  and  N_11
REMARK    5  A    between atoms: C_14  and  O_15
REMARK    6  A    between atoms: O_15  and  C_16
REMARK    7  A    between atoms: C_22  and  C_23
REMARK                            x       y       z     vdW  Elec       q    Type
REMARK                         _______ _______ _______ _____ _____    ______ ____
ROOT
ATOM      1  N   UNL     1       2.421   7.204  19.101  0.00  0.00    +0.000 NA
ATOM      2  C   UNL     1       2.018   7.921  17.862  0.00  0.00    +0.000 C 
ATOM      3  C   UNL     1       2.148   9.426  18.023  0.00  0.00    +0.000 C 
ATOM      4  C   UNL     1       1.272   9.926  19.167  0.00  0.00    +0.000 C 
ATOM      5  C   UNL     1       1.725   9.230  20.447  0.00  0.00    +0.000 C 
ATOM      6  C   UNL     1       1.758   7.709  20.345  0.00  0.00    +0.000 C 
ENDROOT
BRANCH   1   7
ATOM      7  S   UNL     1       2.192   5.484  18.968  0.00  0.00    +0.000 S 
ATOM      8  O   UNL     1       1.679   5.215  17.647  0.00  0.00    +0.000 OA
ATOM      9  O   UNL     1       1.507   5.031  20.156  0.00  0.00    +0.000 OA
BRANCH   7  16
ATOM     10  C   UNL     1       5.074   6.379  17.564  0.00  0.00    +0.000 C 
ATOM     11  C   UNL     1       4.889   5.158  18.386  0.00  0.00    +0.000 A 
ATOM     12  N   UNL     1       5.921   4.331  18.605  0.00  0.00    +0.000 NA
ATOM     13  N   UNL     1       5.416   3.377  19.403  0.00  0.00    +0.000 N 
ATOM     14  C   UNL     1       4.081   3.518  19.664  0.00  0.00    +0.000 A 
ATOM     15  C   UNL     1       3.350   2.540  20.503  0.00  0.00    +0.000 C 
ATOM     16  C   UNL     1       3.715   4.688  19.016  0.00  0.00    +0.000 A 
ATOM     17  H   UNL     1       6.045   2.653  19.734  0.00  0.00    +0.000 HD
ENDBRANCH   7  16
ENDBRANCH   1   7
BRANCH   4  18
ATOM     18  O   UNL     1      -0.120   9.657  18.918  0.00  0.00    +0.000 OA
BRANCH  18  19
ATOM     19  C   UNL     1      -1.051  10.600  19.291  0.00  0.00    +0.000 A 
ATOM     20  C   UNL     1      -0.995  11.320  20.493  0.00  0.00    +0.000 A 
ATOM     21  C   UNL     1      -1.992  12.231  20.839  0.00  0.00    +0.000 A 
ATOM     22  C   UNL     1      -3.053  12.458  19.972  0.00  0.00    +0.000 A 
ATOM     23 CL   UNL     1      -4.293  13.563  20.416  0.00  0.00    +0.000 Cl
ATOM     24  C   UNL     1      -3.115  11.789  18.754  0.00  0.00    +0.000 A 
ATOM     25  C   UNL     1      -2.120  10.855  18.409  0.00  0.00    +0.000 A 
BRANCH  25  26
ATOM     26  C   UNL     1      -2.259  10.172  17.154  0.00  0.00    +0.000 C 
ATOM     27  N   UNL     1      -2.418   9.677  16.115  0.00  0.00    +0.000 NA
ENDBRANCH  25  26
ENDBRANCH  18  19
ENDBRANCH   4  18
TORSDOF 5
ENDMDL
MODEL 4
REMARK VINA RESULT:      -6.8      2.739      3.978
REMARK  Name = 
REMARK  7 active torsions:
REMARK  status: ('A' for Active; 'I' for Inactive)
REMARK    1  A    between atoms: C_1  and  C_2
REMARK    2  A    between atoms: C_5  and  C_6
REMARK    3  A    between atoms: C_7  and  S_8
REMARK    4  A    between atoms: S_8  and  N_11
REMARK    5  A    between atoms: C_14  and  O_15
REMARK    6  A    between atoms: O_15  and  C_16
REMARK    7  A    between atoms: C_22  and  C_23
REMARK                            x       y       z     vdW  Elec       q    Type
REMARK                         _______ _______ _______ _____ _____    ______ ____
ROOT
ATOM      1  N   UNL     1       2.394   7.193  19.136  0.00  0.00    +0.000 NA
ATOM      2  C   UNL     1       2.050   7.835  17.839  0.00  0.00    +0.000 C 
ATOM      3  C   UNL     1       2.205   9.345  17.908  0.00  0.00    +0.000 C 
ATOM      4  C   UNL     1       1.300   9.934  18.984  0.00  0.00    +0.000 C 
ATOM      5  C   UNL     1       1.693   9.314  20.323  0.00  0.00    +0.000 C 
ATOM      6  C   UNL     1       1.698   7.790  20.320  0.00  0.00    +0.000 C 
ENDROOT
BRANCH   1   7
ATOM      7  S   UNL     1       2.134   5.473  19.105  0.00  0.00    +0.000 S 
ATOM      8  O   UNL     1       1.570   5.141  17.821  0.00  0.00    +0.000 OA
ATOM      9  O   UNL     1       1.487   5.096  20.341  0.00  0.00    +0.000 OA
BRANCH   7  16
ATOM     10  C   UNL     1       2.924   2.585  20.560  0.00  0.00    +0.000 C 
ATOM     11  C   UNL     1       3.878   3.420  19.789  0.00  0.00    +0.000 A 
ATOM     12  N   UNL     1       5.151   3.027  19.642  0.00  0.00    +0.000 NA
ATOM     13  N   UNL     1       5.703   3.977  18.872  0.00  0.00    +0.000 N 
ATOM     14  C   UNL     1       4.856   5.005  18.561  0.00  0.00    +0.000 A 
ATOM     15  C   UNL     1       5.305   6.157  17.745  0.00  0.00    +0.000 C 
ATOM     16  C   UNL     1       3.647   4.655  19.143  0.00  0.00    +0.000 A 
ATOM     17  H   UNL     1       6.672   3.860  18.595  0.00  0.00    +0.000 HD
ENDBRANCH   7  16
ENDBRANCH   1   7
BRANCH   4  18
ATOM     18  O   UNL     1      -0.088   9.675  18.702  0.00  0.00    +0.000 OA
BRANCH  18  19
ATOM     19  C   UNL     1      -1.028  10.588  19.124  0.00  0.00    +0.000 A 
ATOM     20  C   UNL     1      -0.939  11.302  20.328  0.00  0.00    +0.000 A 
ATOM     21  C   UNL     1      -1.944  12.181  20.725  0.00  0.00    +0.000 A 
ATOM     22  C   UNL     1      -3.051  12.381  19.909  0.00  0.00    +0.000 A 
ATOM     23 CL   UNL     1      -4.302  13.446  20.416  0.00  0.00    +0.000 Cl
ATOM     24  C   UNL     1      -3.149  11.717  18.690  0.00  0.00    +0.000 A 
ATOM     25  C   UNL     1      -2.143  10.816  18.293  0.00  0.00    +0.000 A 
BRANCH  25  26
ATOM     26  C   UNL     1      -2.319  10.136  17.041  0.00  0.00    +0.000 C 
ATOM     27  N   UNL     1      -2.414   9.638  15.996  0.00  0.00    +0.000 NA
ENDBRANCH  25  26
ENDBRANCH  18  19
ENDBRANCH   4  18
TORSDOF 5
ENDMDL
MODEL 5
REMARK VINA RESULT:      -6.6      4.653      8.536
REMARK  Name = 
REMARK  7 active torsions:
REMARK  status: ('A' for Active; 'I' for Inactive)
REMARK    1  A    between atoms: C_1  and  C_2
REMARK    2  A    between atoms: C_5  and  C_6
REMARK    3  A    between atoms: C_7  and  S_8
REMARK    4  A    between atoms: S_8  and  N_11
REMARK    5  A    between atoms: C_14  and  O_15
REMARK    6  A    between atoms: O_15  and  C_16
REMARK    7  A    between atoms: C_22  and  C_23
REMARK                            x       y       z     vdW  Elec       q    Type
REMARK                         _______ _______ _______ _____ _____    ______ ____
ROOT
ATOM      1  N   UNL     1       4.531   4.910  17.713  0.00  0.00    +0.000 NA
ATOM      2  C   UNL     1       5.033   3.912  16.731  0.00  0.00    +0.000 C 
ATOM      3  C   UNL     1       6.504   4.130  16.419  0.00  0.00    +0.000 C 
ATOM      4  C   UNL     1       6.735   5.523  15.843  0.00  0.00    +0.000 C 
ATOM      5  C   UNL     1       6.270   6.545  16.876  0.00  0.00    +0.000 C 
ATOM      6  C   UNL     1       4.839   6.330  17.357  0.00  0.00    +0.000 C 
ENDROOT
BRANCH   1   7
ATOM      7  S   UNL     1       2.826   4.733  18.013  0.00  0.00    +0.000 S 
ATOM      8  O   UNL     1       2.332   3.706  17.130  0.00  0.00    +0.000 OA
ATOM      9  O   UNL     1       2.239   6.053  18.047  0.00  0.00    +0.000 OA
BRANCH   7  16
ATOM     10  C   UNL     1       3.628   1.745  19.241  0.00  0.00    +0.000 C 
ATOM     11  C   UNL     1       2.960   2.817  20.020  0.00  0.00    +0.000 A 
ATOM     12  N   UNL     1       2.640   2.614  21.306  0.00  0.00    +0.000 NA
ATOM     13  N   UNL     1       2.102   3.779  21.700  0.00  0.00    +0.000 N 
ATOM     14  C   UNL     1       2.006   4.713  20.705  0.00  0.00    +0.000 A 
ATOM     15  C   UNL     1       1.409   6.046  20.952  0.00  0.00    +0.000 C 
ATOM     16  C   UNL     1       2.574   4.107  19.595  0.00  0.00    +0.000 A 
ATOM     17  H   UNL     1       1.819   3.867  22.670  0.00  0.00    +0.000 HD
ENDBRANCH   7  16
ENDBRANCH   1   7
BRANCH   4  18
ATOM     18  O   UNL     1       6.021   5.703  14.605  0.00  0.00    +0.000 OA
BRANCH  18  19
ATOM     19  C   UNL     1       6.081   4.706  13.658  0.00  0.00    +0.000 A 
ATOM     20  C   UNL     1       5.043   3.793  13.418  0.00  0.00    +0.000 A 
ATOM     21  C   UNL     1       5.177   2.775  12.476  0.00  0.00    +0.000 A 
ATOM     22  C   UNL     1       6.349   2.666  11.737  0.00  0.00    +0.000 A 
ATOM     23 CL   UNL     1       6.520   1.392  10.595  0.00  0.00    +0.000 Cl
ATOM     24  C   UNL     1       7.380   3.582  11.924  0.00  0.00    +0.000 A 
ATOM     25  C   UNL     1       7.255   4.601  12.886  0.00  0.00    +0.000 A 
BRANCH  25  26
ATOM     26  C   UNL     1       8.367   5.492  13.057  0.00  0.00    +0.000 C 
ATOM     27  N   UNL     1       9.242   6.228  13.266  0.00  0.00    +0.000 NA
ENDBRANCH  25  26
ENDBRANCH  18  19
ENDBRANCH   4  18
TORSDOF 5
ENDMDL
MODEL 6
REMARK VINA RESULT:      -6.5      6.280     11.290
REMARK  Name = 
REMARK  7 active torsions:
REMARK  status: ('A' for Active; 'I' for Inactive)
REMARK    1  A    between atoms: C_1  and  C_2
REMARK    2  A    between atoms: C_5  and  C_6
REMARK    3  A    between atoms: C_7  and  S_8
REMARK    4  A    between atoms: S_8  and  N_11
REMARK    5  A    between atoms: C_14  and  O_15
REMARK    6  A    between atoms: O_15  and  C_16
REMARK    7  A    between atoms: C_22  and  C_23
REMARK                            x       y       z     vdW  Elec       q    Type
REMARK                         _______ _______ _______ _____ _____    ______ ____
ROOT
ATOM      1  N   UNL     1      -2.774  13.094  22.005  0.00  0.00    +0.000 NA
ATOM      2  C   UNL     1      -1.621  12.319  22.537  0.00  0.00    +0.000 C 
ATOM      3  C   UNL     1      -0.358  12.581  21.734  0.00  0.00    +0.000 C 
ATOM      4  C   UNL     1      -0.556  12.196  20.272  0.00  0.00    +0.000 C 
ATOM      5  C   UNL     1      -1.704  13.033  19.714  0.00  0.00    +0.000 C 
ATOM      6  C   UNL     1      -2.987  12.943  20.531  0.00  0.00    +0.000 C 
ENDROOT
BRANCH   1   7
ATOM      7  S   UNL     1      -4.251  12.737  22.854  0.00  0.00    +0.000 S 
ATOM      8  O   UNL     1      -3.905  11.973  24.027  0.00  0.00    +0.000 OA
ATOM      9  O   UNL     1      -5.215  12.257  21.891  0.00  0.00    +0.000 OA
BRANCH   7  16
ATOM     10  C   UNL     1      -2.850  15.736  23.200  0.00  0.00    +0.000 C 
ATOM     11  C   UNL     1      -4.254  15.422  23.567  0.00  0.00    +0.000 A 
ATOM     12  N   UNL     1      -5.047  16.377  24.073  0.00  0.00    +0.000 NA
ATOM     13  N   UNL     1      -6.229  15.766  24.245  0.00  0.00    +0.000 N 
ATOM     14  C   UNL     1      -6.222  14.436  23.926  0.00  0.00    +0.000 A 
ATOM     15  C   UNL     1      -7.432  13.596  24.083  0.00  0.00    +0.000 C 
ATOM     16  C   UNL     1      -4.937  14.190  23.466  0.00  0.00    +0.000 A 
ATOM     17  H   UNL     1      -7.006  16.322  24.589  0.00  0.00    +0.000 HD
ENDBRANCH   7  16
ENDBRANCH   1   7
BRANCH   4  18
ATOM     18  O   UNL     1      -0.848  10.793  20.134  0.00  0.00    +0.000 OA
BRANCH  18  19
ATOM     19  C   UNL     1       0.135   9.959  19.651  0.00  0.00    +0.000 A 
ATOM     20  C   UNL     1       0.519   9.902  18.303  0.00  0.00    +0.000 A 
ATOM     21  C   UNL     1       1.491   9.005  17.864  0.00  0.00    +0.000 A 
ATOM     22  C   UNL     1       2.116   8.161  18.774  0.00  0.00    +0.000 A 
ATOM     23 CL   UNL     1       3.295   7.038  18.222  0.00  0.00    +0.000 Cl
ATOM     24  C   UNL     1       1.786   8.223  20.124  0.00  0.00    +0.000 A 
ATOM     25  C   UNL     1       0.793   9.116  20.569  0.00  0.00    +0.000 A 
BRANCH  25  26
ATOM     26  C   UNL     1       0.472   9.107  21.969  0.00  0.00    +0.000 C 
ATOM     27  N   UNL     1       0.258   9.162  23.109  0.00  0.00    +0.000 NA
ENDBRANCH  25  26
ENDBRANCH  18  19
ENDBRANCH   4  18
TORSDOF 5
ENDMDL
MODEL 7
REMARK VINA RESULT:      -6.5      4.664      8.566
REMARK  Name = 
REMARK  7 active torsions:
REMARK  status: ('A' for Active; 'I' for Inactive)
REMARK    1  A    between atoms: C_1  and  C_2
REMARK    2  A    between atoms: C_5  and  C_6
REMARK    3  A    between atoms: C_7  and  S_8
REMARK    4  A    between atoms: S_8  and  N_11
REMARK    5  A    between atoms: C_14  and  O_15
REMARK    6  A    between atoms: O_15  and  C_16
REMARK    7  A    between atoms: C_22  and  C_23
REMARK                            x       y       z     vdW  Elec       q    Type
REMARK                         _______ _______ _______ _____ _____    ______ ____
ROOT
ATOM      1  N   UNL     1       4.699   5.019  17.865  0.00  0.00    +0.000 NA
ATOM      2  C   UNL     1       5.167   4.006  16.881  0.00  0.00    +0.000 C 
ATOM      3  C   UNL     1       6.622   4.227  16.505  0.00  0.00    +0.000 C 
ATOM      4  C   UNL     1       6.819   5.610  15.893  0.00  0.00    +0.000 C 
ATOM      5  C   UNL     1       6.390   6.649  16.926  0.00  0.00    +0.000 C 
ATOM      6  C   UNL     1       4.982   6.435  17.469  0.00  0.00    +0.000 C 
ENDROOT
BRANCH   1   7
ATOM      7  S   UNL     1       3.009   4.838  18.238  0.00  0.00    +0.000 S 
ATOM      8  O   UNL     1       2.440   3.942  17.262  0.00  0.00    +0.000 OA
ATOM      9  O   UNL     1       2.459   6.153  18.473  0.00  0.00    +0.000 OA
BRANCH   7  16
ATOM     10  C   UNL     1       1.414   5.823  20.989  0.00  0.00    +0.000 C 
ATOM     11  C   UNL     1       2.121   4.526  20.853  0.00  0.00    +0.000 A 
ATOM     12  N   UNL     1       2.147   3.662  21.877  0.00  0.00    +0.000 NA
ATOM     13  N   UNL     1       2.820   2.604  21.400  0.00  0.00    +0.000 N 
ATOM     14  C   UNL     1       3.286   2.768  20.125  0.00  0.00    +0.000 A 
ATOM     15  C   UNL     1       4.078   1.714  19.449  0.00  0.00    +0.000 C 
ATOM     16  C   UNL     1       2.828   4.019  19.739  0.00  0.00    +0.000 A 
ATOM     17  H   UNL     1       2.928   1.797  22.006  0.00  0.00    +0.000 HD
ENDBRANCH   7  16
ENDBRANCH   1   7
BRANCH   4  18
ATOM     18  O   UNL     1       6.053   5.763  14.684  0.00  0.00    +0.000 OA
BRANCH  18  19
ATOM     19  C   UNL     1       6.105   4.762  13.740  0.00  0.00    +0.000 A 
ATOM     20  C   UNL     1       5.074   3.835  13.527  0.00  0.00    +0.000 A 
ATOM     21  C   UNL     1       5.200   2.814  12.587  0.00  0.00    +0.000 A 
ATOM     22  C   UNL     1       6.356   2.716  11.823  0.00  0.00    +0.000 A 
ATOM     23 CL   UNL     1       6.518   1.438  10.684  0.00  0.00    +0.000 Cl
ATOM     24  C   UNL     1       7.379   3.645  11.982  0.00  0.00    +0.000 A 
ATOM     25  C   UNL     1       7.263   4.667  12.943  0.00  0.00    +0.000 A 
BRANCH  25  26
ATOM     26  C   UNL     1       8.368   5.573  13.084  0.00  0.00    +0.000 C 
ATOM     27  N   UNL     1       9.289   6.260  13.254  0.00  0.00    +0.000 NA
ENDBRANCH  25  26
ENDBRANCH  18  19
ENDBRANCH   4  18
TORSDOF 5
ENDMDL
MODEL 8
REMARK VINA RESULT:      -6.2      4.438      8.413
REMARK  Name = 
REMARK  7 active torsions:
REMARK  status: ('A' for Active; 'I' for Inactive)
REMARK    1  A    between atoms: C_1  and  C_2
REMARK    2  A    between atoms: C_5  and  C_6
REMARK    3  A    between atoms: C_7  and  S_8
REMARK    4  A    between atoms: S_8  and  N_11
REMARK    5  A    between atoms: C_14  and  O_15
REMARK    6  A    between atoms: O_15  and  C_16
REMARK    7  A    between atoms: C_22  and  C_23
REMARK                            x       y       z     vdW  Elec       q    Type
REMARK                         _______ _______ _______ _____ _____    ______ ____
ROOT
ATOM      1  N   UNL     1      -0.419  10.651  20.944  0.00  0.00    +0.000 NA
ATOM      2  C   UNL     1      -0.649   9.333  20.294  0.00  0.00    +0.000 C 
ATOM      3  C   UNL     1      -0.389   8.186  21.256  0.00  0.00    +0.000 C 
ATOM      4  C   UNL     1       1.049   8.221  21.764  0.00  0.00    +0.000 C 
ATOM      5  C   UNL     1       1.265   9.553  22.479  0.00  0.00    +0.000 C 
ATOM      6  C   UNL     1       0.902  10.771  21.638  0.00  0.00    +0.000 C 
ENDROOT
BRANCH   1   7
ATOM      7  S   UNL     1      -0.623  11.974  19.832  0.00  0.00    +0.000 S 
ATOM      8  O   UNL     1       0.084  11.638  18.621  0.00  0.00    +0.000 OA
ATOM      9  O   UNL     1      -0.366  13.203  20.547  0.00  0.00    +0.000 OA
BRANCH   7  16
ATOM     10  C   UNL     1      -2.132  10.689  17.157  0.00  0.00    +0.000 C 
ATOM     11  C   UNL     1      -2.818  11.496  18.196  0.00  0.00    +0.000 A 
ATOM     12  N   UNL     1      -4.131  11.749  18.094  0.00  0.00    +0.000 NA
ATOM     13  N   UNL     1      -4.418  12.451  19.202  0.00  0.00    +0.000 N 
ATOM     14  C   UNL     1      -3.333  12.715  19.992  0.00  0.00    +0.000 A 
ATOM     15  C   UNL     1      -3.460  13.505  21.239  0.00  0.00    +0.000 C 
ATOM     16  C   UNL     1      -2.272  12.087  19.358  0.00  0.00    +0.000 A 
ATOM     17  H   UNL     1      -5.384  12.721  19.355  0.00  0.00    +0.000 HD
ENDBRANCH   7  16
ENDBRANCH   1   7
BRANCH   4  18
ATOM     18  O   UNL     1       1.990   8.075  20.685  0.00  0.00    +0.000 OA
BRANCH  18  19
ATOM     19  C   UNL     1       2.043   6.874  20.014  0.00  0.00    +0.000 A 
ATOM     20  C   UNL     1       1.931   5.624  20.639  0.00  0.00    +0.000 A 
ATOM     21  C   UNL     1       2.037   4.439  19.914  0.00  0.00    +0.000 A 
ATOM     22  C   UNL     1       2.233   4.483  18.539  0.00  0.00    +0.000 A 
ATOM     23 CL   UNL     1       2.390   3.018  17.654  0.00  0.00    +0.000 Cl
ATOM     24  C   UNL     1       2.308   5.709  17.884  0.00  0.00    +0.000 A 
ATOM     25  C   UNL     1       2.219   6.908  18.616  0.00  0.00    +0.000 A 
BRANCH  25  26
ATOM     26  C   UNL     1       2.339   8.140  17.887  0.00  0.00    +0.000 C 
ATOM     27  N   UNL     1       2.364   9.154  17.321  0.00  0.00    +0.000 NA
ENDBRANCH  25  26
ENDBRANCH  18  19
ENDBRANCH   4  18
TORSDOF 5
ENDMDL
MODEL 9
REMARK VINA RESULT:      -6.2      1.556      2.150
REMARK  Name = 
REMARK  7 active torsions:
REMARK  status: ('A' for Active; 'I' for Inactive)
REMARK    1  A    between atoms: C_1  and  C_2
REMARK    2  A    between atoms: C_5  and  C_6
REMARK    3  A    between atoms: C_7  and  S_8
REMARK    4  A    between atoms: S_8  and  N_11
REMARK    5  A    between atoms: C_14  and  O_15
REMARK    6  A    between atoms: O_15  and  C_16
REMARK    7  A    between atoms: C_22  and  C_23
REMARK                            x       y       z     vdW  Elec       q    Type
REMARK                         _______ _______ _______ _____ _____    ______ ____
ROOT
ATOM      1  N   UNL     1       3.970   4.925  18.668  0.00  0.00    +0.000 NA
ATOM      2  C   UNL     1       3.265   4.985  19.977  0.00  0.00    +0.000 C 
ATOM      3  C   UNL     1       1.777   5.236  19.796  0.00  0.00    +0.000 C 
ATOM      4  C   UNL     1       1.535   6.552  19.065  0.00  0.00    +0.000 C 
ATOM      5  C   UNL     1       2.212   6.466  17.700  0.00  0.00    +0.000 C 
ATOM      6  C   UNL     1       3.687   6.085  17.765  0.00  0.00    +0.000 C 
ENDROOT
BRANCH   1   7
ATOM      7  S   UNL     1       5.688   4.730  18.858  0.00  0.00    +0.000 S 
ATOM      8  O   UNL     1       5.964   3.316  18.904  0.00  0.00    +0.000 OA
ATOM      9  O   UNL     1       6.127   5.625  19.904  0.00  0.00    +0.000 OA
BRANCH   7  16
ATOM     10  C   UNL     1       5.537   3.549  15.749  0.00  0.00    +0.000 C 
ATOM     11  C   UNL     1       6.359   4.714  16.162  0.00  0.00    +0.000 A 
ATOM     12  N   UNL     1       7.106   5.365  15.258  0.00  0.00    +0.000 NA
ATOM     13  N   UNL     1       7.669   6.364  15.954  0.00  0.00    +0.000 N 
ATOM     14  C   UNL     1       7.366   6.355  17.288  0.00  0.00    +0.000 A 
ATOM     15  C   UNL     1       7.926   7.367  18.215  0.00  0.00    +0.000 C 
ATOM     16  C   UNL     1       6.497   5.287  17.446  0.00  0.00    +0.000 A 
ATOM     17  H   UNL     1       8.257   7.021  15.451  0.00  0.00    +0.000 HD
ENDBRANCH   7  16
ENDBRANCH   1   7
BRANCH   4  18
ATOM     18  O   UNL     1       2.053   7.669  19.810  0.00  0.00    +0.000 OA
BRANCH  18  19
ATOM     19  C   UNL     1       1.637   8.937  19.472  0.00  0.00    +0.000 A 
ATOM     20  C   UNL     1       2.180   9.681  18.414  0.00  0.00    +0.000 A 
ATOM     21  C   UNL     1       1.750  10.979  18.145  0.00  0.00    +0.000 A 
ATOM     22  C   UNL     1       0.748  11.550  18.919  0.00  0.00    +0.000 A 
ATOM     23 CL   UNL     1       0.241  13.162  18.601  0.00  0.00    +0.000 Cl
ATOM     24  C   UNL     1       0.162  10.823  19.950  0.00  0.00    +0.000 A 
ATOM     25  C   UNL     1       0.605   9.518  20.235  0.00  0.00    +0.000 A 
BRANCH  25  26
ATOM     26  C   UNL     1      -0.015   8.832  21.334  0.00  0.00    +0.000 C 
ATOM     27  N   UNL     1      -0.571   8.254  22.174  0.00  0.00    +0.000 NA
ENDBRANCH  25  26
ENDBRANCH  18  19
ENDBRANCH   4  18
TORSDOF 5
ENDMDL
