MODEL 1
REMARK VINA RESULT:      -8.6      0.000      0.000
REMARK  Name = 
REMARK  7 active torsions:
REMARK  status: ('A' for Active; 'I' for Inactive)
REMARK    1  A    between atoms: C_1  and  C_2
REMARK    2  A    between atoms: C_2  and  N_3
REMARK    3  A    between atoms: C_2  and  C_12
REMARK    4  A    between atoms: C_4  and  C_6
REMARK    5  A    between atoms: N_19  and  C_20
REMARK    6  A    between atoms: C_20  and  C_21
REMARK    7  A    between atoms: C_24  and  C_25
REMARK                            x       y       z     vdW  Elec       q    Type
REMARK                         _______ _______ _______ _____ _____    ______ ____
ROOT
ATOM      1  C   UNL     1       0.680  10.925  20.806  0.00  0.00    +0.000 A 
ATOM      2  N   UNL     1       0.730  10.868  22.124  0.00  0.00    +0.000 NA
ATOM      3  N   UNL     1       1.039   9.586  22.484  0.00  0.00    +0.000 NA
ATOM      4  C   UNL     1       1.174   8.865  21.389  0.00  0.00    +0.000 A 
ATOM      5  N   UNL     1       1.010   9.689  20.302  0.00  0.00    +0.000 N 
ATOM      6  C   UNL     1       1.173   9.330  18.906  0.00  0.00    +0.000 C 
ATOM      7  C   UNL     1       2.391   8.434  18.670  0.00  0.00    +0.000 C 
ATOM      8  N   UNL     1       2.194   6.997  18.938  0.00  0.00    +0.000 NA
ATOM      9  C   UNL     1       1.236   6.706  20.022  0.00  0.00    +0.000 C 
ATOM     10  C   UNL     1       1.479   7.406  21.363  0.00  0.00    +0.000 C 
ENDROOT
BRANCH   1  12
ATOM     11  C   UNL     1       1.496  12.875  19.524  0.00  0.00    +0.000 C 
ATOM     12  C   UNL     1       0.264  12.102  19.988  0.00  0.00    +0.000 C 
BRANCH  12  13
ATOM     13  N   UNL     1      -0.524  11.631  18.866  0.00  0.00    +0.000 N 
ATOM     14  C   UNL     1      -1.900  11.646  18.915  0.00  0.00    +0.000 C 
ATOM     15  O   UNL     1      -2.523  12.036  19.898  0.00  0.00    +0.000 OA
ATOM     16  H   UNL     1      -0.021  11.434  18.008  0.00  0.00    +0.000 HD
BRANCH  14  17
ATOM     17  C   UNL     1      -2.631  11.174  17.720  0.00  0.00    +0.000 A 
ATOM     18  C   UNL     1      -3.892  11.640  17.344  0.00  0.00    +0.000 A 
ATOM     19  C   UNL     1      -4.479  11.148  16.179  0.00  0.00    +0.000 A 
ATOM     20  C   UNL     1      -3.786  10.207  15.431  0.00  0.00    +0.000 A 
ATOM     21  N   UNL     1      -2.565   9.739  15.763  0.00  0.00    +0.000 NA
ATOM     22  C   UNL     1      -2.010  10.240  16.897  0.00  0.00    +0.000 A 
ENDBRANCH  14  17
ENDBRANCH  12  13
ENDBRANCH   1  12
BRANCH   8  23
ATOM     23  C   UNL     1       3.480   6.317  19.190  0.00  0.00    +0.000 C 
BRANCH  23  24
ATOM     24  C   UNL     1       4.208   5.846  17.952  0.00  0.00    +0.000 A 
ATOM     25  C   UNL     1       4.001   4.553  17.463  0.00  0.00    +0.000 A 
ATOM     26  C   UNL     1       4.605   4.136  16.272  0.00  0.00    +0.000 A 
ATOM     27  C   UNL     1       5.421   4.999  15.520  0.00  0.00    +0.000 A 
ATOM     28  C   UNL     1       5.647   6.284  16.047  0.00  0.00    +0.000 A 
ATOM     29  C   UNL     1       5.058   6.702  17.247  0.00  0.00    +0.000 A 
BRANCH  27  30
ATOM     30  C   UNL     1       5.988   4.581  14.215  0.00  0.00    +0.000 A 
ATOM     31  C   UNL     1       7.208   5.107  13.744  0.00  0.00    +0.000 A 
ATOM     32  C   UNL     1       7.759   4.705  12.523  0.00  0.00    +0.000 A 
ATOM     33  C   UNL     1       7.111   3.752  11.748  0.00  0.00    +0.000 A 
ATOM     34  C   UNL     1       5.909   3.209  12.188  0.00  0.00    +0.000 A 
ATOM     35  C   UNL     1       5.351   3.625  13.402  0.00  0.00    +0.000 A 
ENDBRANCH  27  30
ENDBRANCH  23  24
ENDBRANCH   8  23
TORSDOF 6
ENDMDL
MODEL 2
REMARK VINA RESULT:      -8.6      4.329     11.723
REMARK  Name = 
REMARK  7 active torsions:
REMARK  status: ('A' for Active; 'I' for Inactive)
REMARK    1  A    between atoms: C_1  and  C_2
REMARK    2  A    between atoms: C_2  and  N_3
REMARK    3  A    between atoms: C_2  and  C_12
REMARK    4  A    between atoms: C_4  and  C_6
REMARK    5  A    between atoms: N_19  and  C_20
REMARK    6  A    between atoms: C_20  and  C_21
REMARK    7  A    between atoms: C_24  and  C_25
REMARK                            x       y       z     vdW  Elec       q    Type
REMARK                         _______ _______ _______ _____ _____    ______ ____
ROOT
ATOM      1  C   UNL     1       2.351   8.004  18.624  0.00  0.00    +0.000 A 
ATOM      2  N   UNL     1       2.342   8.615  17.455  0.00  0.00    +0.000 NA
ATOM      3  N   UNL     1       1.408   9.613  17.503  0.00  0.00    +0.000 NA
ATOM      4  C   UNL     1       0.851   9.606  18.697  0.00  0.00    +0.000 A 
ATOM      5  N   UNL     1       1.460   8.638  19.457  0.00  0.00    +0.000 N 
ATOM      6  C   UNL     1       1.224   8.357  20.860  0.00  0.00    +0.000 C 
ATOM      7  C   UNL     1       1.086   9.631  21.698  0.00  0.00    +0.000 C 
ATOM      8  N   UNL     1      -0.242  10.271  21.681  0.00  0.00    +0.000 NA
ATOM      9  C   UNL     1      -0.977  10.114  20.411  0.00  0.00    +0.000 C 
ATOM     10  C   UNL     1      -0.239  10.526  19.133  0.00  0.00    +0.000 C 
ENDROOT
BRANCH   1  12
ATOM     11  C   UNL     1       2.189   5.654  19.376  0.00  0.00    +0.000 C 
ATOM     12  C   UNL     1       3.135   6.783  18.976  0.00  0.00    +0.000 C 
BRANCH  12  13
ATOM     13  N   UNL     1       3.953   6.415  17.837  0.00  0.00    +0.000 N 
ATOM     14  C   UNL     1       4.835   5.360  17.913  0.00  0.00    +0.000 C 
ATOM     15  O   UNL     1       4.985   4.696  18.935  0.00  0.00    +0.000 OA
ATOM     16  H   UNL     1       3.739   6.871  16.957  0.00  0.00    +0.000 HD
BRANCH  14  17
ATOM     17  C   UNL     1       5.614   5.031  16.701  0.00  0.00    +0.000 A 
ATOM     18  C   UNL     1       5.276   4.009  15.811  0.00  0.00    +0.000 A 
ATOM     19  C   UNL     1       6.065   3.805  14.680  0.00  0.00    +0.000 A 
ATOM     20  C   UNL     1       7.164   4.627  14.478  0.00  0.00    +0.000 A 
ATOM     21  N   UNL     1       7.516   5.626  15.314  0.00  0.00    +0.000 NA
ATOM     22  C   UNL     1       6.726   5.812  16.404  0.00  0.00    +0.000 A 
ENDBRANCH  14  17
ENDBRANCH  12  13
ENDBRANCH   1  12
BRANCH   8  23
ATOM     23  C   UNL     1      -0.156  11.697  22.054  0.00  0.00    +0.000 C 
BRANCH  23  24
ATOM     24  C   UNL     1      -1.456  12.320  22.507  0.00  0.00    +0.000 A 
ATOM     25  C   UNL     1      -1.844  13.572  22.021  0.00  0.00    +0.000 A 
ATOM     26  C   UNL     1      -3.083  14.120  22.369  0.00  0.00    +0.000 A 
ATOM     27  C   UNL     1      -3.984  13.430  23.199  0.00  0.00    +0.000 A 
ATOM     28  C   UNL     1      -3.561  12.189  23.708  0.00  0.00    +0.000 A 
ATOM     29  C   UNL     1      -2.316  11.643  23.376  0.00  0.00    +0.000 A 
BRANCH  27  30
ATOM     30  C   UNL     1      -5.332  13.976  23.494  0.00  0.00    +0.000 A 
ATOM     31  C   UNL     1      -5.637  15.333  23.269  0.00  0.00    +0.000 A 
ATOM     32  C   UNL     1      -6.910  15.852  23.528  0.00  0.00    +0.000 A 
ATOM     33  C   UNL     1      -7.916  15.021  24.004  0.00  0.00    +0.000 A 
ATOM     34  C   UNL     1      -7.648  13.676  24.229  0.00  0.00    +0.000 A 
ATOM     35  C   UNL     1      -6.369  13.162  23.986  0.00  0.00    +0.000 A 
ENDBRANCH  27  30
ENDBRANCH  23  24
ENDBRANCH   8  23
TORSDOF 6
ENDMDL
MODEL 3
REMARK VINA RESULT:      -8.5      3.422     10.172
REMARK  Name = 
REMARK  7 active torsions:
REMARK  status: ('A' for Active; 'I' for Inactive)
REMARK    1  A    between atoms: C_1  and  C_2
REMARK    2  A    between atoms: C_2  and  N_3
REMARK    3  A    between atoms: C_2  and  C_12
REMARK    4  A    between atoms: C_4  and  C_6
REMARK    5  A    between atoms: N_19  and  C_20
REMARK    6  A    between atoms: C_20  and  C_21
REMARK    7  A    between atoms: C_24  and  C_25
REMARK                            x       y       z     vdW  Elec       q    Type
REMARK                         _______ _______ _______ _____ _____    ______ ____
ROOT
ATOM      1  C   UNL     1       3.249   3.921  19.951  0.00  0.00    +0.000 A 
ATOM      2  N   UNL     1       2.202   3.346  20.513  0.00  0.00    +0.000 NA
ATOM      3  N   UNL     1       1.276   4.316  20.780  0.00  0.00    +0.000 NA
ATOM      4  C   UNL     1       1.760   5.476  20.383  0.00  0.00    +0.000 A 
ATOM      5  N   UNL     1       2.985   5.261  19.800  0.00  0.00    +0.000 N 
ATOM      6  C   UNL     1       3.819   6.248  19.142  0.00  0.00    +0.000 C 
ATOM      7  C   UNL     1       3.012   7.203  18.260  0.00  0.00    +0.000 C 
ATOM      8  N   UNL     1       2.363   8.330  18.958  0.00  0.00    +0.000 NA
ATOM      9  C   UNL     1       1.938   8.026  20.338  0.00  0.00    +0.000 C 
ATOM     10  C   UNL     1       1.060   6.784  20.530  0.00  0.00    +0.000 C 
ENDROOT
BRANCH   1  12
ATOM     11  C   UNL     1       4.443   1.756  19.874  0.00  0.00    +0.000 C 
ATOM     12  C   UNL     1       4.539   3.255  19.602  0.00  0.00    +0.000 C 
BRANCH  12  13
ATOM     13  N   UNL     1       4.837   3.526  18.209  0.00  0.00    +0.000 N 
ATOM     14  C   UNL     1       6.044   4.075  17.839  0.00  0.00    +0.000 C 
ATOM     15  O   UNL     1       6.912   4.374  18.654  0.00  0.00    +0.000 OA
ATOM     16  H   UNL     1       4.183   3.162  17.525  0.00  0.00    +0.000 HD
BRANCH  14  17
ATOM     17  C   UNL     1       6.281   4.297  16.397  0.00  0.00    +0.000 A 
ATOM     18  C   UNL     1       5.474   3.775  15.385  0.00  0.00    +0.000 A 
ATOM     19  C   UNL     1       5.772   4.072  14.056  0.00  0.00    +0.000 A 
ATOM     20  C   UNL     1       6.866   4.880  13.784  0.00  0.00    +0.000 A 
ATOM     21  N   UNL     1       7.665   5.405  14.737  0.00  0.00    +0.000 NA
ATOM     22  C   UNL     1       7.348   5.108  16.025  0.00  0.00    +0.000 A 
ENDBRANCH  14  17
ENDBRANCH  12  13
ENDBRANCH   1  12
BRANCH   8  23
ATOM     23  C   UNL     1       1.233   8.867  18.175  0.00  0.00    +0.000 C 
BRANCH  23  24
ATOM     24  C   UNL     1       0.730  10.219  18.624  0.00  0.00    +0.000 A 
ATOM     25  C   UNL     1       1.535  11.353  18.481  0.00  0.00    +0.000 A 
ATOM     26  C   UNL     1       1.048  12.620  18.816  0.00  0.00    +0.000 A 
ATOM     27  C   UNL     1      -0.264  12.803  19.288  0.00  0.00    +0.000 A 
ATOM     28  C   UNL     1      -1.047  11.647  19.460  0.00  0.00    +0.000 A 
ATOM     29  C   UNL     1      -0.559  10.373  19.142  0.00  0.00    +0.000 A 
BRANCH  27  30
ATOM     30  C   UNL     1      -0.804  14.158  19.559  0.00  0.00    +0.000 A 
ATOM     31  C   UNL     1      -1.857  14.357  20.473  0.00  0.00    +0.000 A 
ATOM     32  C   UNL     1      -2.360  15.632  20.749  0.00  0.00    +0.000 A 
ATOM     33  C   UNL     1      -1.811  16.745  20.126  0.00  0.00    +0.000 A 
ATOM     34  C   UNL     1      -0.766  16.583  19.224  0.00  0.00    +0.000 A 
ATOM     35  C   UNL     1      -0.275  15.304  18.937  0.00  0.00    +0.000 A 
ENDBRANCH  27  30
ENDBRANCH  23  24
ENDBRANCH   8  23
TORSDOF 6
ENDMDL
MODEL 4
REMARK VINA RESULT:      -8.4      3.390      9.787
REMARK  Name = 
REMARK  7 active torsions:
REMARK  status: ('A' for Active; 'I' for Inactive)
REMARK    1  A    between atoms: C_1  and  C_2
REMARK    2  A    between atoms: C_2  and  N_3
REMARK    3  A    between atoms: C_2  and  C_12
REMARK    4  A    between atoms: C_4  and  C_6
REMARK    5  A    between atoms: N_19  and  C_20
REMARK    6  A    between atoms: C_20  and  C_21
REMARK    7  A    between atoms: C_24  and  C_25
REMARK                            x       y       z     vdW  Elec       q    Type
REMARK                         _______ _______ _______ _____ _____    ______ ____
ROOT
ATOM      1  C   UNL     1       3.154   3.571  19.840  0.00  0.00    +0.000 A 
ATOM      2  N   UNL     1       2.075   2.869  20.130  0.00  0.00    +0.000 NA
ATOM      3  N   UNL     1       1.064   3.743  20.423  0.00  0.00    +0.000 NA
ATOM      4  C   UNL     1       1.529   4.971  20.312  0.00  0.00    +0.000 A 
ATOM      5  N   UNL     1       2.835   4.907  19.890  0.00  0.00    +0.000 N 
ATOM      6  C   UNL     1       3.694   6.024  19.547  0.00  0.00    +0.000 C 
ATOM      7  C   UNL     1       2.963   7.098  18.737  0.00  0.00    +0.000 C 
ATOM      8  N   UNL     1       2.158   8.056  19.519  0.00  0.00    +0.000 NA
ATOM      9  C   UNL     1       1.561   7.491  20.744  0.00  0.00    +0.000 C 
ATOM     10  C   UNL     1       0.740   6.207  20.582  0.00  0.00    +0.000 C 
ENDROOT
BRANCH   1  12
ATOM     11  C   UNL     1       4.546   1.528  19.878  0.00  0.00    +0.000 C 
ATOM     12  C   UNL     1       4.517   3.024  19.574  0.00  0.00    +0.000 C 
BRANCH  12  13
ATOM     13  N   UNL     1       4.863   3.294  18.192  0.00  0.00    +0.000 N 
ATOM     14  C   UNL     1       5.987   4.022  17.876  0.00  0.00    +0.000 C 
ATOM     15  O   UNL     1       6.736   4.488  18.730  0.00  0.00    +0.000 OA
ATOM     16  H   UNL     1       4.326   2.804  17.485  0.00  0.00    +0.000 HD
BRANCH  14  17
ATOM     17  C   UNL     1       6.285   4.232  16.443  0.00  0.00    +0.000 A 
ATOM     18  C   UNL     1       5.581   3.622  15.403  0.00  0.00    +0.000 A 
ATOM     19  C   UNL     1       5.927   3.915  14.084  0.00  0.00    +0.000 A 
ATOM     20  C   UNL     1       6.963   4.806  13.851  0.00  0.00    +0.000 A 
ATOM     21  N   UNL     1       7.661   5.418  14.831  0.00  0.00    +0.000 NA
ATOM     22  C   UNL     1       7.299   5.123  16.108  0.00  0.00    +0.000 A 
ENDBRANCH  14  17
ENDBRANCH  12  13
ENDBRANCH   1  12
BRANCH   8  23
ATOM     23  C   UNL     1       1.119   8.690  18.684  0.00  0.00    +0.000 C 
BRANCH  23  24
ATOM     24  C   UNL     1       1.187  10.198  18.613  0.00  0.00    +0.000 A 
ATOM     25  C   UNL     1       0.162  10.975  19.162  0.00  0.00    +0.000 A 
ATOM     26  C   UNL     1       0.254  12.370  19.176  0.00  0.00    +0.000 A 
ATOM     27  C   UNL     1       1.380  13.038  18.662  0.00  0.00    +0.000 A 
ATOM     28  C   UNL     1       2.384  12.241  18.082  0.00  0.00    +0.000 A 
ATOM     29  C   UNL     1       2.289  10.845  18.050  0.00  0.00    +0.000 A 
BRANCH  27  30
ATOM     30  C   UNL     1       1.513  14.512  18.758  0.00  0.00    +0.000 A 
ATOM     31  C   UNL     1       0.520  15.298  19.378  0.00  0.00    +0.000 A 
ATOM     32  C   UNL     1       0.646  16.686  19.490  0.00  0.00    +0.000 A 
ATOM     33  C   UNL     1       1.778  17.323  18.998  0.00  0.00    +0.000 A 
ATOM     34  C   UNL     1       2.778  16.575  18.387  0.00  0.00    +0.000 A 
ATOM     35  C   UNL     1       2.642  15.188  18.262  0.00  0.00    +0.000 A 
ENDBRANCH  27  30
ENDBRANCH  23  24
ENDBRANCH   8  23
TORSDOF 6
ENDMDL
MODEL 5
REMARK VINA RESULT:      -8.4      3.430      9.863
REMARK  Name = 
REMARK  7 active torsions:
REMARK  status: ('A' for Active; 'I' for Inactive)
REMARK    1  A    between atoms: C_1  and  C_2
REMARK    2  A    between atoms: C_2  and  N_3
REMARK    3  A    between atoms: C_2  and  C_12
REMARK    4  A    between atoms: C_4  and  C_6
REMARK    5  A    between atoms: N_19  and  C_20
REMARK    6  A    between atoms: C_20  and  C_21
REMARK    7  A    between atoms: C_24  and  C_25
REMARK                            x       y       z     vdW  Elec       q    Type
REMARK                         _______ _______ _______ _____ _____    ______ ____
ROOT
ATOM      1  C   UNL     1       3.080   3.669  19.893  0.00  0.00    +0.000 A 
ATOM      2  N   UNL     1       1.979   3.012  20.206  0.00  0.00    +0.000 NA
ATOM      3  N   UNL     1       1.009   3.928  20.509  0.00  0.00    +0.000 NA
ATOM      4  C   UNL     1       1.521   5.135  20.382  0.00  0.00    +0.000 A 
ATOM      5  N   UNL     1       2.815   5.016  19.938  0.00  0.00    +0.000 N 
ATOM      6  C   UNL     1       3.711   6.097  19.573  0.00  0.00    +0.000 C 
ATOM      7  C   UNL     1       3.010   7.194  18.768  0.00  0.00    +0.000 C 
ATOM      8  N   UNL     1       2.257   8.188  19.557  0.00  0.00    +0.000 NA
ATOM      9  C   UNL     1       1.660   7.655  20.796  0.00  0.00    +0.000 C 
ATOM     10  C   UNL     1       0.786   6.404  20.657  0.00  0.00    +0.000 C 
ENDROOT
BRANCH   1  12
ATOM     11  C   UNL     1       4.378   1.564  19.880  0.00  0.00    +0.000 C 
ATOM     12  C   UNL     1       4.416   3.066  19.608  0.00  0.00    +0.000 C 
BRANCH  12  13
ATOM     13  N   UNL     1       4.767   3.350  18.230  0.00  0.00    +0.000 N 
ATOM     14  C   UNL     1       5.900   4.070  17.925  0.00  0.00    +0.000 C 
ATOM     15  O   UNL     1       6.652   4.517  18.786  0.00  0.00    +0.000 OA
ATOM     16  H   UNL     1       4.227   2.874  17.516  0.00  0.00    +0.000 HD
BRANCH  14  17
ATOM     17  C   UNL     1       6.203   4.295  16.495  0.00  0.00    +0.000 A 
ATOM     18  C   UNL     1       5.433   3.788  15.446  0.00  0.00    +0.000 A 
ATOM     19  C   UNL     1       5.793   4.087  14.133  0.00  0.00    +0.000 A 
ATOM     20  C   UNL     1       6.908   4.881  13.913  0.00  0.00    +0.000 A 
ATOM     21  N   UNL     1       7.671   5.392  14.903  0.00  0.00    +0.000 NA
ATOM     22  C   UNL     1       7.295   5.094  16.174  0.00  0.00    +0.000 A 
ENDBRANCH  14  17
ENDBRANCH  12  13
ENDBRANCH   1  12
BRANCH   8  23
ATOM     23  C   UNL     1       1.230   8.857  18.735  0.00  0.00    +0.000 C 
BRANCH  23  24
ATOM     24  C   UNL     1       1.207  10.364  18.843  0.00  0.00    +0.000 A 
ATOM     25  C   UNL     1       2.139  11.134  18.141  0.00  0.00    +0.000 A 
ATOM     26  C   UNL     1       2.076  12.531  18.168  0.00  0.00    +0.000 A 
ATOM     27  C   UNL     1       1.069  13.208  18.879  0.00  0.00    +0.000 A 
ATOM     28  C   UNL     1       0.162  12.417  19.608  0.00  0.00    +0.000 A 
ATOM     29  C   UNL     1       0.231  11.019  19.599  0.00  0.00    +0.000 A 
BRANCH  27  30
ATOM     30  C   UNL     1       0.953  14.686  18.833  0.00  0.00    +0.000 A 
ATOM     31  C   UNL     1       2.089  15.513  18.943  0.00  0.00    +0.000 A 
ATOM     32  C   UNL     1       1.991  16.907  18.883  0.00  0.00    +0.000 A 
ATOM     33  C   UNL     1       0.754  17.509  18.694  0.00  0.00    +0.000 A 
ATOM     34  C   UNL     1      -0.385  16.720  18.575  0.00  0.00    +0.000 A 
ATOM     35  C   UNL     1      -0.287  15.327  18.653  0.00  0.00    +0.000 A 
ENDBRANCH  27  30
ENDBRANCH  23  24
ENDBRANCH   8  23
TORSDOF 6
ENDMDL
MODEL 6
REMARK VINA RESULT:      -8.3      3.775      6.580
REMARK  Name = 
REMARK  7 active torsions:
REMARK  status: ('A' for Active; 'I' for Inactive)
REMARK    1  A    between atoms: C_1  and  C_2
REMARK    2  A    between atoms: C_2  and  N_3
REMARK    3  A    between atoms: C_2  and  C_12
REMARK    4  A    between atoms: C_4  and  C_6
REMARK    5  A    between atoms: N_19  and  C_20
REMARK    6  A    between atoms: C_20  and  C_21
REMARK    7  A    between atoms: C_24  and  C_25
REMARK                            x       y       z     vdW  Elec       q    Type
REMARK                         _______ _______ _______ _____ _____    ______ ____
ROOT
ATOM      1  C   UNL     1       1.050  15.548  20.852  0.00  0.00    +0.000 A 
ATOM      2  N   UNL     1       0.823  15.860  22.114  0.00  0.00    +0.000 NA
ATOM      3  N   UNL     1       0.199  14.798  22.709  0.00  0.00    +0.000 NA
ATOM      4  C   UNL     1       0.046  13.846  21.811  0.00  0.00    +0.000 A 
ATOM      5  N   UNL     1       0.623  14.260  20.635  0.00  0.00    +0.000 N 
ATOM      6  C   UNL     1       0.769  13.484  19.419  0.00  0.00    +0.000 C 
ATOM      7  C   UNL     1       1.185  12.037  19.692  0.00  0.00    +0.000 C 
ATOM      8  N   UNL     1       0.095  11.113  20.060  0.00  0.00    +0.000 NA
ATOM      9  C   UNL     1      -1.008  11.742  20.812  0.00  0.00    +0.000 C 
ATOM     10  C   UNL     1      -0.622  12.537  22.064  0.00  0.00    +0.000 C 
ENDROOT
BRANCH   1  12
ATOM     11  C   UNL     1       1.368  17.912  20.198  0.00  0.00    +0.000 C 
ATOM     12  C   UNL     1       1.607  16.456  19.806  0.00  0.00    +0.000 C 
BRANCH  12  13
ATOM     13  N   UNL     1       3.021  16.170  19.651  0.00  0.00    +0.000 N 
ATOM     14  C   UNL     1       3.593  16.101  18.401  0.00  0.00    +0.000 C 
ATOM     15  O   UNL     1       2.948  16.260  17.368  0.00  0.00    +0.000 OA
ATOM     16  H   UNL     1       3.580  16.170  20.496  0.00  0.00    +0.000 HD
BRANCH  14  17
ATOM     17  C   UNL     1       5.044  15.832  18.327  0.00  0.00    +0.000 A 
ATOM     18  C   UNL     1       5.594  14.655  17.816  0.00  0.00    +0.000 A 
ATOM     19  C   UNL     1       6.981  14.517  17.766  0.00  0.00    +0.000 A 
ATOM     20  C   UNL     1       7.769  15.560  18.228  0.00  0.00    +0.000 A 
ATOM     21  N   UNL     1       7.272  16.713  18.723  0.00  0.00    +0.000 NA
ATOM     22  C   UNL     1       5.918  16.827  18.753  0.00  0.00    +0.000 A 
ENDBRANCH  14  17
ENDBRANCH  12  13
ENDBRANCH   1  12
BRANCH   8  23
ATOM     23  C   UNL     1       0.610   9.937  20.788  0.00  0.00    +0.000 C 
BRANCH  23  24
ATOM     24  C   UNL     1       1.308   8.908  19.928  0.00  0.00    +0.000 A 
ATOM     25  C   UNL     1       1.588   9.186  18.587  0.00  0.00    +0.000 A 
ATOM     26  C   UNL     1       2.306   8.276  17.805  0.00  0.00    +0.000 A 
ATOM     27  C   UNL     1       2.787   7.067  18.339  0.00  0.00    +0.000 A 
ATOM     28  C   UNL     1       2.465   6.789  19.680  0.00  0.00    +0.000 A 
ATOM     29  C   UNL     1       1.732   7.689  20.462  0.00  0.00    +0.000 A 
BRANCH  27  30
ATOM     30  C   UNL     1       3.623   6.146  17.531  0.00  0.00    +0.000 A 
ATOM     31  C   UNL     1       4.650   6.631  16.696  0.00  0.00    +0.000 A 
ATOM     32  C   UNL     1       5.455   5.768  15.945  0.00  0.00    +0.000 A 
ATOM     33  C   UNL     1       5.264   4.395  16.022  0.00  0.00    +0.000 A 
ATOM     34  C   UNL     1       4.263   3.885  16.842  0.00  0.00    +0.000 A 
ATOM     35  C   UNL     1       3.448   4.750  17.580  0.00  0.00    +0.000 A 
ENDBRANCH  27  30
ENDBRANCH  23  24
ENDBRANCH   8  23
TORSDOF 6
ENDMDL
MODEL 7
REMARK VINA RESULT:      -8.3      2.245      4.124
REMARK  Name = 
REMARK  7 active torsions:
REMARK  status: ('A' for Active; 'I' for Inactive)
REMARK    1  A    between atoms: C_1  and  C_2
REMARK    2  A    between atoms: C_2  and  N_3
REMARK    3  A    between atoms: C_2  and  C_12
REMARK    4  A    between atoms: C_4  and  C_6
REMARK    5  A    between atoms: N_19  and  C_20
REMARK    6  A    between atoms: C_20  and  C_21
REMARK    7  A    between atoms: C_24  and  C_25
REMARK                            x       y       z     vdW  Elec       q    Type
REMARK                         _______ _______ _______ _____ _____    ______ ____
ROOT
ATOM      1  C   UNL     1       0.622  10.860  20.720  0.00  0.00    +0.000 A 
ATOM      2  N   UNL     1       0.779  10.937  22.028  0.00  0.00    +0.000 NA
ATOM      3  N   UNL     1       1.190   9.714  22.480  0.00  0.00    +0.000 NA
ATOM      4  C   UNL     1       1.281   8.897  21.450  0.00  0.00    +0.000 A 
ATOM      5  N   UNL     1       0.983   9.600  20.308  0.00  0.00    +0.000 N 
ATOM      6  C   UNL     1       1.056   9.113  18.944  0.00  0.00    +0.000 C 
ATOM      7  C   UNL     1       2.302   8.261  18.691  0.00  0.00    +0.000 C 
ATOM      8  N   UNL     1       2.212   6.849  19.109  0.00  0.00    +0.000 NA
ATOM      9  C   UNL     1       1.361   6.618  20.292  0.00  0.00    +0.000 C 
ATOM     10  C   UNL     1       1.669   7.459  21.536  0.00  0.00    +0.000 C 
ENDROOT
BRANCH   1  12
ATOM     11  C   UNL     1      -1.337  12.303  20.279  0.00  0.00    +0.000 C 
ATOM     12  C   UNL     1       0.074  11.928  19.833  0.00  0.00    +0.000 C 
BRANCH  12  13
ATOM     13  N   UNL     1       0.968  13.069  19.876  0.00  0.00    +0.000 N 
ATOM     14  C   UNL     1       2.043  13.155  19.020  0.00  0.00    +0.000 C 
ATOM     15  O   UNL     1       2.308  12.281  18.201  0.00  0.00    +0.000 OA
ATOM     16  H   UNL     1       0.680  13.851  20.454  0.00  0.00    +0.000 HD
BRANCH  14  17
ATOM     17  C   UNL     1       2.892  14.363  19.109  0.00  0.00    +0.000 A 
ATOM     18  C   UNL     1       2.711  15.502  18.322  0.00  0.00    +0.000 A 
ATOM     19  C   UNL     1       3.552  16.598  18.510  0.00  0.00    +0.000 A 
ATOM     20  C   UNL     1       4.544  16.518  19.476  0.00  0.00    +0.000 A 
ATOM     21  N   UNL     1       4.743  15.435  20.256  0.00  0.00    +0.000 NA
ATOM     22  C   UNL     1       3.905  14.383  20.061  0.00  0.00    +0.000 A 
ENDBRANCH  14  17
ENDBRANCH  12  13
ENDBRANCH   1  12
BRANCH   8  23
ATOM     23  C   UNL     1       3.552   6.264  19.315  0.00  0.00    +0.000 C 
BRANCH  23  24
ATOM     24  C   UNL     1       4.259   5.826  18.053  0.00  0.00    +0.000 A 
ATOM     25  C   UNL     1       4.391   4.466  17.757  0.00  0.00    +0.000 A 
ATOM     26  C   UNL     1       4.969   4.051  16.553  0.00  0.00    +0.000 A 
ATOM     27  C   UNL     1       5.418   4.978  15.595  0.00  0.00    +0.000 A 
ATOM     28  C   UNL     1       5.310   6.341  15.927  0.00  0.00    +0.000 A 
ATOM     29  C   UNL     1       4.747   6.762  17.138  0.00  0.00    +0.000 A 
BRANCH  27  30
ATOM     30  C   UNL     1       5.950   4.535  14.283  0.00  0.00    +0.000 A 
ATOM     31  C   UNL     1       5.217   3.663  13.453  0.00  0.00    +0.000 A 
ATOM     32  C   UNL     1       5.702   3.255  12.206  0.00  0.00    +0.000 A 
ATOM     33  C   UNL     1       6.929   3.722  11.751  0.00  0.00    +0.000 A 
ATOM     34  C   UNL     1       7.672   4.588  12.544  0.00  0.00    +0.000 A 
ATOM     35  C   UNL     1       7.192   4.982  13.798  0.00  0.00    +0.000 A 
ENDBRANCH  27  30
ENDBRANCH  23  24
ENDBRANCH   8  23
TORSDOF 6
ENDMDL
MODEL 8
REMARK VINA RESULT:      -8.3      3.393     10.334
REMARK  Name = 
REMARK  7 active torsions:
REMARK  status: ('A' for Active; 'I' for Inactive)
REMARK    1  A    between atoms: C_1  and  C_2
REMARK    2  A    between atoms: C_2  and  N_3
REMARK    3  A    between atoms: C_2  and  C_12
REMARK    4  A    between atoms: C_4  and  C_6
REMARK    5  A    between atoms: N_19  and  C_20
REMARK    6  A    between atoms: C_20  and  C_21
REMARK    7  A    between atoms: C_24  and  C_25
REMARK                            x       y       z     vdW  Elec       q    Type
REMARK                         _______ _______ _______ _____ _____    ______ ____
ROOT
ATOM      1  C   UNL     1       3.224   3.930  19.900  0.00  0.00    +0.000 A 
ATOM      2  N   UNL     1       2.162   3.321  20.392  0.00  0.00    +0.000 NA
ATOM      3  N   UNL     1       1.200   4.264  20.629  0.00  0.00    +0.000 NA
ATOM      4  C   UNL     1       1.678   5.443  20.284  0.00  0.00    +0.000 A 
ATOM      5  N   UNL     1       2.938   5.268  19.764  0.00  0.00    +0.000 N 
ATOM      6  C   UNL     1       3.784   6.287  19.174  0.00  0.00    +0.000 C 
ATOM      7  C   UNL     1       3.004   7.246  18.270  0.00  0.00    +0.000 C 
ATOM      8  N   UNL     1       2.293   8.341  18.957  0.00  0.00    +0.000 NA
ATOM      9  C   UNL     1       1.800   7.996  20.304  0.00  0.00    +0.000 C 
ATOM     10  C   UNL     1       0.942   6.732  20.421  0.00  0.00    +0.000 C 
ENDROOT
BRANCH   1  12
ATOM     11  C   UNL     1       4.496   1.810  19.930  0.00  0.00    +0.000 C 
ATOM     12  C   UNL     1       4.546   3.301  19.607  0.00  0.00    +0.000 C 
BRANCH  12  13
ATOM     13  N   UNL     1       4.870   3.535  18.213  0.00  0.00    +0.000 N 
ATOM     14  C   UNL     1       6.055   4.137  17.856  0.00  0.00    +0.000 C 
ATOM     15  O   UNL     1       6.880   4.515  18.682  0.00  0.00    +0.000 OA
ATOM     16  H   UNL     1       4.258   3.108  17.526  0.00  0.00    +0.000 HD
BRANCH  14  17
ATOM     17  C   UNL     1       6.324   4.315  16.413  0.00  0.00    +0.000 A 
ATOM     18  C   UNL     1       5.666   3.609  15.405  0.00  0.00    +0.000 A 
ATOM     19  C   UNL     1       5.976   3.879  14.072  0.00  0.00    +0.000 A 
ATOM     20  C   UNL     1       6.932   4.844  13.795  0.00  0.00    +0.000 A 
ATOM     21  N   UNL     1       7.584   5.549  14.744  0.00  0.00    +0.000 NA
ATOM     22  C   UNL     1       7.258   5.274  16.034  0.00  0.00    +0.000 A 
ENDBRANCH  14  17
ENDBRANCH  12  13
ENDBRANCH   1  12
BRANCH   8  23
ATOM     23  C   UNL     1       1.195   8.872  18.126  0.00  0.00    +0.000 C 
BRANCH  23  24
ATOM     24  C   UNL     1       0.435  10.028  18.733  0.00  0.00    +0.000 A 
ATOM     25  C   UNL     1      -0.944  10.145  18.535  0.00  0.00    +0.000 A 
ATOM     26  C   UNL     1      -1.671  11.164  19.160  0.00  0.00    +0.000 A 
ATOM     27  C   UNL     1      -1.050  12.090  20.017  0.00  0.00    +0.000 A 
ATOM     28  C   UNL     1       0.344  11.979  20.175  0.00  0.00    +0.000 A 
ATOM     29  C   UNL     1       1.078  10.971  19.538  0.00  0.00    +0.000 A 
BRANCH  27  30
ATOM     30  C   UNL     1      -1.838  13.114  20.746  0.00  0.00    +0.000 A 
ATOM     31  C   UNL     1      -2.707  12.758  21.797  0.00  0.00    +0.000 A 
ATOM     32  C   UNL     1      -3.440  13.719  22.501  0.00  0.00    +0.000 A 
ATOM     33  C   UNL     1      -3.309  15.064  22.182  0.00  0.00    +0.000 A 
ATOM     34  C   UNL     1      -2.454  15.448  21.155  0.00  0.00    +0.000 A 
ATOM     35  C   UNL     1      -1.735  14.483  20.441  0.00  0.00    +0.000 A 
ENDBRANCH  27  30
ENDBRANCH  23  24
ENDBRANCH   8  23
TORSDOF 6
ENDMDL
MODEL 9
REMARK VINA RESULT:      -8.2      4.192      6.474
REMARK  Name = 
REMARK  7 active torsions:
REMARK  status: ('A' for Active; 'I' for Inactive)
REMARK    1  A    between atoms: C_1  and  C_2
REMARK    2  A    between atoms: C_2  and  N_3
REMARK    3  A    between atoms: C_2  and  C_12
REMARK    4  A    between atoms: C_4  and  C_6
REMARK    5  A    between atoms: N_19  and  C_20
REMARK    6  A    between atoms: C_20  and  C_21
REMARK    7  A    between atoms: C_24  and  C_25
REMARK                            x       y       z     vdW  Elec       q    Type
REMARK                         _______ _______ _______ _____ _____    ______ ____
ROOT
ATOM      1  C   UNL     1      -1.372  15.798  20.573  0.00  0.00    +0.000 A 
ATOM      2  N   UNL     1      -1.226  16.554  19.501  0.00  0.00    +0.000 NA
ATOM      3  N   UNL     1      -0.302  15.962  18.685  0.00  0.00    +0.000 NA
ATOM      4  C   UNL     1       0.113  14.851  19.260  0.00  0.00    +0.000 A 
ATOM      5  N   UNL     1      -0.582  14.682  20.433  0.00  0.00    +0.000 N 
ATOM      6  C   UNL     1      -0.511  13.544  21.329  0.00  0.00    +0.000 C 
ATOM      7  C   UNL     1      -0.469  12.209  20.580  0.00  0.00    +0.000 C 
ATOM      8  N   UNL     1       0.854  11.797  20.074  0.00  0.00    +0.000 NA
ATOM      9  C   UNL     1       1.731  12.917  19.681  0.00  0.00    +0.000 C 
ATOM     10  C   UNL     1       1.146  13.936  18.697  0.00  0.00    +0.000 C 
ENDROOT
BRANCH   1  12
ATOM     11  C   UNL     1      -2.515  17.615  21.801  0.00  0.00    +0.000 C 
ATOM     12  C   UNL     1      -2.193  16.123  21.777  0.00  0.00    +0.000 C 
BRANCH  12  13
ATOM     13  N   UNL     1      -3.399  15.317  21.745  0.00  0.00    +0.000 N 
ATOM     14  C   UNL     1      -3.753  14.536  22.821  0.00  0.00    +0.000 C 
ATOM     15  O   UNL     1      -3.074  14.467  23.841  0.00  0.00    +0.000 OA
ATOM     16  H   UNL     1      -4.028  15.471  20.965  0.00  0.00    +0.000 HD
BRANCH  14  17
ATOM     17  C   UNL     1      -5.010  13.764  22.722  0.00  0.00    +0.000 A 
ATOM     18  C   UNL     1      -6.109  13.953  23.562  0.00  0.00    +0.000 A 
ATOM     19  C   UNL     1      -7.259  13.190  23.360  0.00  0.00    +0.000 A 
ATOM     20  C   UNL     1      -7.270  12.266  22.326  0.00  0.00    +0.000 A 
ATOM     21  N   UNL     1      -6.228  12.061  21.492  0.00  0.00    +0.000 NA
ATOM     22  C   UNL     1      -5.123  12.823  21.704  0.00  0.00    +0.000 A 
ENDBRANCH  14  17
ENDBRANCH  12  13
ENDBRANCH   1  12
BRANCH   8  23
ATOM     23  C   UNL     1       0.728  10.828  18.968  0.00  0.00    +0.000 C 
BRANCH  23  24
ATOM     24  C   UNL     1       1.303   9.459  19.248  0.00  0.00    +0.000 A 
ATOM     25  C   UNL     1       1.109   8.857  20.495  0.00  0.00    +0.000 A 
ATOM     26  C   UNL     1       1.565   7.557  20.737  0.00  0.00    +0.000 A 
ATOM     27  C   UNL     1       2.213   6.807  19.739  0.00  0.00    +0.000 A 
ATOM     28  C   UNL     1       2.431   7.443  18.504  0.00  0.00    +0.000 A 
ATOM     29  C   UNL     1       1.991   8.750  18.261  0.00  0.00    +0.000 A 
BRANCH  27  30
ATOM     30  C   UNL     1       2.616   5.399  19.973  0.00  0.00    +0.000 A 
ATOM     31  C   UNL     1       1.888   4.563  20.844  0.00  0.00    +0.000 A 
ATOM     32  C   UNL     1       2.250   3.229  21.057  0.00  0.00    +0.000 A 
ATOM     33  C   UNL     1       3.343   2.691  20.389  0.00  0.00    +0.000 A 
ATOM     34  C   UNL     1       4.077   3.487  19.517  0.00  0.00    +0.000 A 
ATOM     35  C   UNL     1       3.723   4.826  19.319  0.00  0.00    +0.000 A 
ENDBRANCH  27  30
ENDBRANCH  23  24
ENDBRANCH   8  23
TORSDOF 6
ENDMDL
