MODEL 1
REMARK VINA RESULT:      -8.6      0.000      0.000
REMARK  Name = 
REMARK  4 active torsions:
REMARK  status: ('A' for Active; 'I' for Inactive)
REMARK    1  A    between atoms: O_1  and  C_2
REMARK    2  A    between atoms: C_2  and  C_3
REMARK    3  A    between atoms: C_7  and  C_8
REMARK    4  A    between atoms: C_14  and  C_15
REMARK                            x       y       z     vdW  Elec       q    Type
REMARK                         _______ _______ _______ _____ _____    ______ ____
ROOT
ATOM      1  C   UNL     1       4.481   3.738  18.750  0.00  0.00    +0.000 A 
ATOM      2  C   UNL     1       4.355   2.538  19.433  0.00  0.00    +0.000 A 
ATOM      3  N   UNL     1       3.382   2.586  20.396  0.00  0.00    +0.000 NA
ATOM      4  C   UNL     1       2.896   3.803  20.317  0.00  0.00    +0.000 A 
ATOM      5  C   UNL     1       1.864   4.425  21.049  0.00  0.00    +0.000 A 
ATOM      6  C   UNL     1       1.533   5.693  20.781  0.00  0.00    +0.000 A 
ATOM      7  C   UNL     1       2.295   6.397  19.707  0.00  0.00    +0.000 A 
ATOM      8  N   UNL     1       3.232   5.851  18.988  0.00  0.00    +0.000 NA
ATOM      9  N   UNL     1       3.518   4.552  19.329  0.00  0.00    +0.000 N 
ENDROOT
BRANCH   1  14
ATOM     10  C   UNL     1       5.862   4.307  15.258  0.00  0.00    +0.000 A 
ATOM     11  C   UNL     1       7.129   4.818  15.565  0.00  0.00    +0.000 A 
ATOM     12  C   UNL     1       7.521   4.978  16.891  0.00  0.00    +0.000 A 
ATOM     13  C   UNL     1       6.655   4.621  17.926  0.00  0.00    +0.000 A 
ATOM     14  C   UNL     1       5.379   4.108  17.651  0.00  0.00    +0.000 A 
ATOM     15  C   UNL     1       4.994   3.974  16.308  0.00  0.00    +0.000 A 
BRANCH  10  16
ATOM     16  C   UNL     1       5.456   4.072  13.830  0.00  0.00    +0.000 C 
BRANCH  16  17
ATOM     17  O   UNL     1       6.324   3.124  13.230  0.00  0.00    +0.000 OA
ATOM     18  H   UNL     1       7.146   3.138  13.745  0.00  0.00    +0.000 HD
ENDBRANCH  16  17
ENDBRANCH  10  16
ENDBRANCH   1  14
BRANCH   7  19
ATOM     19  C   UNL     1       1.913   7.817  19.447  0.00  0.00    +0.000 A 
ATOM     20  C   UNL     1       1.271   8.592  20.423  0.00  0.00    +0.000 A 
ATOM     21  C   UNL     1       0.882   9.901  20.137  0.00  0.00    +0.000 A 
ATOM     22  C   UNL     1       1.148  10.451  18.885  0.00  0.00    +0.000 A 
ATOM     23  C   UNL     1       1.821   9.700  17.922  0.00  0.00    +0.000 A 
ATOM     24  C   UNL     1       2.209   8.387  18.202  0.00  0.00    +0.000 A 
ENDBRANCH   7  19
TORSDOF 4
ENDMDL
MODEL 2
REMARK VINA RESULT:      -8.5      0.057      1.009
REMARK  Name = 
REMARK  4 active torsions:
REMARK  status: ('A' for Active; 'I' for Inactive)
REMARK    1  A    between atoms: O_1  and  C_2
REMARK    2  A    between atoms: C_2  and  C_3
REMARK    3  A    between atoms: C_7  and  C_8
REMARK    4  A    between atoms: C_14  and  C_15
REMARK                            x       y       z     vdW  Elec       q    Type
REMARK                         _______ _______ _______ _____ _____    ______ ____
ROOT
ATOM      1  C   UNL     1       4.487   3.757  18.763  0.00  0.00    +0.000 A 
ATOM      2  C   UNL     1       4.368   2.573  19.474  0.00  0.00    +0.000 A 
ATOM      3  N   UNL     1       3.398   2.639  20.439  0.00  0.00    +0.000 NA
ATOM      4  C   UNL     1       2.907   3.853  20.333  0.00  0.00    +0.000 A 
ATOM      5  C   UNL     1       1.875   4.488  21.054  0.00  0.00    +0.000 A 
ATOM      6  C   UNL     1       1.538   5.747  20.759  0.00  0.00    +0.000 A 
ATOM      7  C   UNL     1       2.295   6.429  19.666  0.00  0.00    +0.000 A 
ATOM      8  N   UNL     1       3.231   5.870  18.957  0.00  0.00    +0.000 NA
ATOM      9  N   UNL     1       3.523   4.581  19.327  0.00  0.00    +0.000 N 
ENDROOT
BRANCH   1  14
ATOM     10  C   UNL     1       5.845   4.277  15.254  0.00  0.00    +0.000 A 
ATOM     11  C   UNL     1       7.121   4.773  15.546  0.00  0.00    +0.000 A 
ATOM     12  C   UNL     1       7.527   4.941  16.867  0.00  0.00    +0.000 A 
ATOM     13  C   UNL     1       6.665   4.604  17.912  0.00  0.00    +0.000 A 
ATOM     14  C   UNL     1       5.380   4.105  17.653  0.00  0.00    +0.000 A 
ATOM     15  C   UNL     1       4.982   3.964  16.315  0.00  0.00    +0.000 A 
BRANCH  10  16
ATOM     16  C   UNL     1       5.424   4.033  13.833  0.00  0.00    +0.000 C 
BRANCH  16  17
ATOM     17  O   UNL     1       6.361   3.186  13.187  0.00  0.00    +0.000 OA
ATOM     18  H   UNL     1       6.041   3.063  12.279  0.00  0.00    +0.000 HD
ENDBRANCH  16  17
ENDBRANCH  10  16
ENDBRANCH   1  14
BRANCH   7  19
ATOM     19  C   UNL     1       1.906   7.841  19.375  0.00  0.00    +0.000 A 
ATOM     20  C   UNL     1       2.181   8.434  18.134  0.00  0.00    +0.000 A 
ATOM     21  C   UNL     1       1.850   9.770  17.905  0.00  0.00    +0.000 A 
ATOM     22  C   UNL     1       1.225  10.516  18.902  0.00  0.00    +0.000 A 
ATOM     23  C   UNL     1       0.911   9.922  20.124  0.00  0.00    +0.000 A 
ATOM     24  C   UNL     1       1.245   8.586  20.361  0.00  0.00    +0.000 A 
ENDBRANCH   7  19
TORSDOF 4
ENDMDL
MODEL 3
REMARK VINA RESULT:      -8.0      0.998      1.133
REMARK  Name = 
REMARK  4 active torsions:
REMARK  status: ('A' for Active; 'I' for Inactive)
REMARK    1  A    between atoms: O_1  and  C_2
REMARK    2  A    between atoms: C_2  and  C_3
REMARK    3  A    between atoms: C_7  and  C_8
REMARK    4  A    between atoms: C_14  and  C_15
REMARK                            x       y       z     vdW  Elec       q    Type
REMARK                         _______ _______ _______ _____ _____    ______ ____
ROOT
ATOM      1  C   UNL     1       4.574   4.049  18.989  0.00  0.00    +0.000 A 
ATOM      2  C   UNL     1       4.414   2.721  19.353  0.00  0.00    +0.000 A 
ATOM      3  N   UNL     1       3.289   2.520  20.109  0.00  0.00    +0.000 NA
ATOM      4  C   UNL     1       2.743   3.710  20.215  0.00  0.00    +0.000 A 
ATOM      5  C   UNL     1       1.562   4.119  20.867  0.00  0.00    +0.000 A 
ATOM      6  C   UNL     1       1.198   5.404  20.833  0.00  0.00    +0.000 A 
ATOM      7  C   UNL     1       2.084   6.357  20.100  0.00  0.00    +0.000 A 
ATOM      8  N   UNL     1       3.164   6.016  19.460  0.00  0.00    +0.000 NA
ATOM      9  N   UNL     1       3.474   4.682  19.550  0.00  0.00    +0.000 N 
ENDROOT
BRANCH   1  14
ATOM     10  C   UNL     1       6.726   5.071  16.031  0.00  0.00    +0.000 A 
ATOM     11  C   UNL     1       7.645   5.916  16.664  0.00  0.00    +0.000 A 
ATOM     12  C   UNL     1       7.557   6.152  18.034  0.00  0.00    +0.000 A 
ATOM     13  C   UNL     1       6.556   5.538  18.787  0.00  0.00    +0.000 A 
ATOM     14  C   UNL     1       5.620   4.686  18.182  0.00  0.00    +0.000 A 
ATOM     15  C   UNL     1       5.712   4.478  16.797  0.00  0.00    +0.000 A 
BRANCH  10  16
ATOM     16  C   UNL     1       6.853   4.761  14.566  0.00  0.00    +0.000 C 
BRANCH  16  17
ATOM     17  O   UNL     1       7.894   5.536  13.995  0.00  0.00    +0.000 OA
ATOM     18  H   UNL     1       7.827   6.422  14.388  0.00  0.00    +0.000 HD
ENDBRANCH  16  17
ENDBRANCH  10  16
ENDBRANCH   1  14
BRANCH   7  19
ATOM     19  C   UNL     1       1.657   7.788  20.097  0.00  0.00    +0.000 A 
ATOM     20  C   UNL     1       1.204   8.419  21.265  0.00  0.00    +0.000 A 
ATOM     21  C   UNL     1       0.767   9.743  21.224  0.00  0.00    +0.000 A 
ATOM     22  C   UNL     1       0.797  10.452  20.025  0.00  0.00    +0.000 A 
ATOM     23  C   UNL     1       1.284   9.845  18.868  0.00  0.00    +0.000 A 
ATOM     24  C   UNL     1       1.719   8.517  18.903  0.00  0.00    +0.000 A 
ENDBRANCH   7  19
TORSDOF 4
ENDMDL
MODEL 4
REMARK VINA RESULT:      -8.0      0.991      1.507
REMARK  Name = 
REMARK  4 active torsions:
REMARK  status: ('A' for Active; 'I' for Inactive)
REMARK    1  A    between atoms: O_1  and  C_2
REMARK    2  A    between atoms: C_2  and  C_3
REMARK    3  A    between atoms: C_7  and  C_8
REMARK    4  A    between atoms: C_14  and  C_15
REMARK                            x       y       z     vdW  Elec       q    Type
REMARK                         _______ _______ _______ _____ _____    ______ ____
ROOT
ATOM      1  C   UNL     1       4.631   4.074  19.031  0.00  0.00    +0.000 A 
ATOM      2  C   UNL     1       4.503   2.753  19.433  0.00  0.00    +0.000 A 
ATOM      3  N   UNL     1       3.386   2.547  20.199  0.00  0.00    +0.000 NA
ATOM      4  C   UNL     1       2.813   3.727  20.275  0.00  0.00    +0.000 A 
ATOM      5  C   UNL     1       1.625   4.127  20.921  0.00  0.00    +0.000 A 
ATOM      6  C   UNL     1       1.231   5.402  20.852  0.00  0.00    +0.000 A 
ATOM      7  C   UNL     1       2.092   6.354  20.089  0.00  0.00    +0.000 A 
ATOM      8  N   UNL     1       3.177   6.021  19.454  0.00  0.00    +0.000 NA
ATOM      9  N   UNL     1       3.519   4.697  19.580  0.00  0.00    +0.000 N 
ENDROOT
BRANCH   1  14
ATOM     10  C   UNL     1       6.723   5.093  16.029  0.00  0.00    +0.000 A 
ATOM     11  C   UNL     1       7.650   5.945  16.643  0.00  0.00    +0.000 A 
ATOM     12  C   UNL     1       7.587   6.186  18.012  0.00  0.00    +0.000 A 
ATOM     13  C   UNL     1       6.602   5.570  18.787  0.00  0.00    +0.000 A 
ATOM     14  C   UNL     1       5.659   4.712  18.203  0.00  0.00    +0.000 A 
ATOM     15  C   UNL     1       5.726   4.499  16.817  0.00  0.00    +0.000 A 
BRANCH  10  16
ATOM     16  C   UNL     1       6.823   4.777  14.564  0.00  0.00    +0.000 C 
BRANCH  16  17
ATOM     17  O   UNL     1       7.875   5.527  13.978  0.00  0.00    +0.000 OA
ATOM     18  H   UNL     1       8.371   5.928  14.711  0.00  0.00    +0.000 HD
ENDBRANCH  16  17
ENDBRANCH  10  16
ENDBRANCH   1  14
BRANCH   7  19
ATOM     19  C   UNL     1       1.633   7.775  20.049  0.00  0.00    +0.000 A 
ATOM     20  C   UNL     1       1.707   8.534  18.872  0.00  0.00    +0.000 A 
ATOM     21  C   UNL     1       1.315   9.873  18.874  0.00  0.00    +0.000 A 
ATOM     22  C   UNL     1       0.829  10.457  20.042  0.00  0.00    +0.000 A 
ATOM     23  C   UNL     1       0.714   9.697  21.206  0.00  0.00    +0.000 A 
ATOM     24  C   UNL     1       1.109   8.357  21.210  0.00  0.00    +0.000 A 
ENDBRANCH   7  19
TORSDOF 4
ENDMDL
MODEL 5
REMARK VINA RESULT:      -7.9      1.776      2.257
REMARK  Name = 
REMARK  4 active torsions:
REMARK  status: ('A' for Active; 'I' for Inactive)
REMARK    1  A    between atoms: O_1  and  C_2
REMARK    2  A    between atoms: C_2  and  C_3
REMARK    3  A    between atoms: C_7  and  C_8
REMARK    4  A    between atoms: C_14  and  C_15
REMARK                            x       y       z     vdW  Elec       q    Type
REMARK                         _______ _______ _______ _____ _____    ______ ____
ROOT
ATOM      1  C   UNL     1       4.563   3.971  18.792  0.00  0.00    +0.000 A 
ATOM      2  C   UNL     1       4.467   2.662  19.241  0.00  0.00    +0.000 A 
ATOM      3  N   UNL     1       3.429   2.486  20.117  0.00  0.00    +0.000 NA
ATOM      4  C   UNL     1       2.873   3.672  20.216  0.00  0.00    +0.000 A 
ATOM      5  C   UNL     1       1.756   4.099  20.962  0.00  0.00    +0.000 A 
ATOM      6  C   UNL     1       1.364   5.375  20.898  0.00  0.00    +0.000 A 
ATOM      7  C   UNL     1       2.151   6.299  20.029  0.00  0.00    +0.000 A 
ATOM      8  N   UNL     1       3.168   5.940  19.301  0.00  0.00    +0.000 NA
ATOM      9  N   UNL     1       3.513   4.617  19.428  0.00  0.00    +0.000 N 
ENDROOT
BRANCH   1  14
ATOM     10  C   UNL     1       7.117   6.330  17.264  0.00  0.00    +0.000 A 
ATOM     11  C   UNL     1       7.310   5.723  16.017  0.00  0.00    +0.000 A 
ATOM     12  C   UNL     1       6.621   4.560  15.685  0.00  0.00    +0.000 A 
ATOM     13  C   UNL     1       5.723   3.995  16.593  0.00  0.00    +0.000 A 
ATOM     14  C   UNL     1       5.508   4.578  17.850  0.00  0.00    +0.000 A 
ATOM     15  C   UNL     1       6.229   5.739  18.174  0.00  0.00    +0.000 A 
BRANCH  10  16
ATOM     16  C   UNL     1       7.808   7.620  17.604  0.00  0.00    +0.000 C 
BRANCH  16  17
ATOM     17  O   UNL     1       8.520   7.482  18.824  0.00  0.00    +0.000 OA
ATOM     18  H   UNL     1       9.460   7.599  18.610  0.00  0.00    +0.000 HD
ENDBRANCH  16  17
ENDBRANCH  10  16
ENDBRANCH   1  14
BRANCH   7  19
ATOM     19  C   UNL     1       1.698   7.721  19.994  0.00  0.00    +0.000 A 
ATOM     20  C   UNL     1       1.147   8.341  21.125  0.00  0.00    +0.000 A 
ATOM     21  C   UNL     1       0.687   9.657  21.051  0.00  0.00    +0.000 A 
ATOM     22  C   UNL     1       0.793  10.368  19.858  0.00  0.00    +0.000 A 
ATOM     23  C   UNL     1       1.376   9.772  18.740  0.00  0.00    +0.000 A 
ATOM     24  C   UNL     1       1.834   8.453  18.807  0.00  0.00    +0.000 A 
ENDBRANCH   7  19
TORSDOF 4
ENDMDL
MODEL 6
REMARK VINA RESULT:      -7.9      1.775      2.468
REMARK  Name = 
REMARK  4 active torsions:
REMARK  status: ('A' for Active; 'I' for Inactive)
REMARK    1  A    between atoms: O_1  and  C_2
REMARK    2  A    between atoms: C_2  and  C_3
REMARK    3  A    between atoms: C_7  and  C_8
REMARK    4  A    between atoms: C_14  and  C_15
REMARK                            x       y       z     vdW  Elec       q    Type
REMARK                         _______ _______ _______ _____ _____    ______ ____
ROOT
ATOM      1  C   UNL     1       4.540   3.974  18.769  0.00  0.00    +0.000 A 
ATOM      2  C   UNL     1       4.438   2.665  19.216  0.00  0.00    +0.000 A 
ATOM      3  N   UNL     1       3.394   2.490  20.085  0.00  0.00    +0.000 NA
ATOM      4  C   UNL     1       2.839   3.677  20.180  0.00  0.00    +0.000 A 
ATOM      5  C   UNL     1       1.718   4.106  20.920  0.00  0.00    +0.000 A 
ATOM      6  C   UNL     1       1.329   5.383  20.853  0.00  0.00    +0.000 A 
ATOM      7  C   UNL     1       2.125   6.306  19.990  0.00  0.00    +0.000 A 
ATOM      8  N   UNL     1       3.146   5.945  19.269  0.00  0.00    +0.000 NA
ATOM      9  N   UNL     1       3.487   4.622  19.398  0.00  0.00    +0.000 N 
ENDROOT
BRANCH   1  14
ATOM     10  C   UNL     1       7.104   6.332  17.257  0.00  0.00    +0.000 A 
ATOM     11  C   UNL     1       7.310   5.721  16.014  0.00  0.00    +0.000 A 
ATOM     12  C   UNL     1       6.626   4.556  15.680  0.00  0.00    +0.000 A 
ATOM     13  C   UNL     1       5.721   3.992  16.581  0.00  0.00    +0.000 A 
ATOM     14  C   UNL     1       5.493   4.579  17.834  0.00  0.00    +0.000 A 
ATOM     15  C   UNL     1       6.209   5.742  18.160  0.00  0.00    +0.000 A 
BRANCH  10  16
ATOM     16  C   UNL     1       7.790   7.625  17.599  0.00  0.00    +0.000 C 
BRANCH  16  17
ATOM     17  O   UNL     1       8.509   7.484  18.815  0.00  0.00    +0.000 OA
ATOM     18  H   UNL     1       8.709   8.384  19.122  0.00  0.00    +0.000 HD
ENDBRANCH  16  17
ENDBRANCH  10  16
ENDBRANCH   1  14
BRANCH   7  19
ATOM     19  C   UNL     1       1.675   7.730  19.953  0.00  0.00    +0.000 A 
ATOM     20  C   UNL     1       1.774   8.498  18.784  0.00  0.00    +0.000 A 
ATOM     21  C   UNL     1       1.390   9.839  18.789  0.00  0.00    +0.000 A 
ATOM     22  C   UNL     1       0.887  10.417  19.953  0.00  0.00    +0.000 A 
ATOM     23  C   UNL     1       0.748   9.649  21.109  0.00  0.00    +0.000 A 
ATOM     24  C   UNL     1       1.135   8.306  21.110  0.00  0.00    +0.000 A 
ENDBRANCH   7  19
TORSDOF 4
ENDMDL
MODEL 7
REMARK VINA RESULT:      -7.6      3.446      5.697
REMARK  Name = 
REMARK  4 active torsions:
REMARK  status: ('A' for Active; 'I' for Inactive)
REMARK    1  A    between atoms: O_1  and  C_2
REMARK    2  A    between atoms: C_2  and  C_3
REMARK    3  A    between atoms: C_7  and  C_8
REMARK    4  A    between atoms: C_14  and  C_15
REMARK                            x       y       z     vdW  Elec       q    Type
REMARK                         _______ _______ _______ _____ _____    ______ ____
ROOT
ATOM      1  C   UNL     1       6.357   4.435  14.057  0.00  0.00    +0.000 A 
ATOM      2  C   UNL     1       7.507   5.211  14.086  0.00  0.00    +0.000 A 
ATOM      3  N   UNL     1       7.726   5.772  15.316  0.00  0.00    +0.000 NA
ATOM      4  C   UNL     1       6.726   5.350  16.057  0.00  0.00    +0.000 A 
ATOM      5  C   UNL     1       6.429   5.590  17.414  0.00  0.00    +0.000 A 
ATOM      6  C   UNL     1       5.342   5.038  17.961  0.00  0.00    +0.000 A 
ATOM      7  C   UNL     1       4.480   4.188  17.086  0.00  0.00    +0.000 A 
ATOM      8  N   UNL     1       4.735   3.917  15.840  0.00  0.00    +0.000 NA
ATOM      9  N   UNL     1       5.863   4.527  15.350  0.00  0.00    +0.000 N 
ENDROOT
BRANCH   1  14
ATOM     10  C   UNL     1       5.829   1.760  11.414  0.00  0.00    +0.000 A 
ATOM     11  C   UNL     1       4.625   2.196  10.847  0.00  0.00    +0.000 A 
ATOM     12  C   UNL     1       3.996   3.342  11.325  0.00  0.00    +0.000 A 
ATOM     13  C   UNL     1       4.567   4.070  12.370  0.00  0.00    +0.000 A 
ATOM     14  C   UNL     1       5.771   3.659  12.960  0.00  0.00    +0.000 A 
ATOM     15  C   UNL     1       6.379   2.489  12.477  0.00  0.00    +0.000 A 
BRANCH  10  16
ATOM     16  C   UNL     1       6.546   0.561  10.861  0.00  0.00    +0.000 C 
BRANCH  16  17
ATOM     17  O   UNL     1       6.079  -0.619  11.495  0.00  0.00    +0.000 OA
ATOM     18  H   UNL     1       5.252  -0.864  11.048  0.00  0.00    +0.000 HD
ENDBRANCH  16  17
ENDBRANCH  10  16
ENDBRANCH   1  14
BRANCH   7  19
ATOM     19  C   UNL     1       3.264   3.602  17.725  0.00  0.00    +0.000 A 
ATOM     20  C   UNL     1       2.118   4.375  17.961  0.00  0.00    +0.000 A 
ATOM     21  C   UNL     1       1.012   3.814  18.602  0.00  0.00    +0.000 A 
ATOM     22  C   UNL     1       1.035   2.477  18.993  0.00  0.00    +0.000 A 
ATOM     23  C   UNL     1       2.156   1.692  18.726  0.00  0.00    +0.000 A 
ATOM     24  C   UNL     1       3.267   2.249  18.088  0.00  0.00    +0.000 A 
ENDBRANCH   7  19
TORSDOF 4
ENDMDL
MODEL 8
REMARK VINA RESULT:      -7.5      3.675      5.916
REMARK  Name = 
REMARK  4 active torsions:
REMARK  status: ('A' for Active; 'I' for Inactive)
REMARK    1  A    between atoms: O_1  and  C_2
REMARK    2  A    between atoms: C_2  and  C_3
REMARK    3  A    between atoms: C_7  and  C_8
REMARK    4  A    between atoms: C_14  and  C_15
REMARK                            x       y       z     vdW  Elec       q    Type
REMARK                         _______ _______ _______ _____ _____    ______ ____
ROOT
ATOM      1  C   UNL     1       6.473   4.267  13.748  0.00  0.00    +0.000 A 
ATOM      2  C   UNL     1       7.621   5.046  13.742  0.00  0.00    +0.000 A 
ATOM      3  N   UNL     1       7.855   5.638  14.955  0.00  0.00    +0.000 NA
ATOM      4  C   UNL     1       6.866   5.232  15.719  0.00  0.00    +0.000 A 
ATOM      5  C   UNL     1       6.586   5.506  17.073  0.00  0.00    +0.000 A 
ATOM      6  C   UNL     1       5.507   4.965  17.649  0.00  0.00    +0.000 A 
ATOM      7  C   UNL     1       4.636   4.092  16.807  0.00  0.00    +0.000 A 
ATOM      8  N   UNL     1       4.875   3.790  15.564  0.00  0.00    +0.000 NA
ATOM      9  N   UNL     1       5.995   4.391  15.044  0.00  0.00    +0.000 N 
ENDROOT
BRANCH   1  14
ATOM     10  C   UNL     1       4.117   3.082  11.014  0.00  0.00    +0.000 A 
ATOM     11  C   UNL     1       4.747   1.891  10.635  0.00  0.00    +0.000 A 
ATOM     12  C   UNL     1       5.924   1.486  11.258  0.00  0.00    +0.000 A 
ATOM     13  C   UNL     1       6.481   2.263  12.275  0.00  0.00    +0.000 A 
ATOM     14  C   UNL     1       5.875   3.462  12.678  0.00  0.00    +0.000 A 
ATOM     15  C   UNL     1       4.700   3.864  12.023  0.00  0.00    +0.000 A 
BRANCH  10  16
ATOM     16  C   UNL     1       2.813   3.493  10.391  0.00  0.00    +0.000 C 
BRANCH  16  17
ATOM     17  O   UNL     1       3.008   3.808   9.022  0.00  0.00    +0.000 OA
ATOM     18  H   UNL     1       2.237   4.329   8.746  0.00  0.00    +0.000 HD
ENDBRANCH  16  17
ENDBRANCH  10  16
ENDBRANCH   1  14
BRANCH   7  19
ATOM     19  C   UNL     1       3.430   3.520  17.475  0.00  0.00    +0.000 A 
ATOM     20  C   UNL     1       2.255   4.269  17.630  0.00  0.00    +0.000 A 
ATOM     21  C   UNL     1       1.158   3.726  18.301  0.00  0.00    +0.000 A 
ATOM     22  C   UNL     1       1.220   2.428  18.803  0.00  0.00    +0.000 A 
ATOM     23  C   UNL     1       2.370   1.662  18.618  0.00  0.00    +0.000 A 
ATOM     24  C   UNL     1       3.473   2.203  17.951  0.00  0.00    +0.000 A 
ENDBRANCH   7  19
TORSDOF 4
ENDMDL
MODEL 9
REMARK VINA RESULT:      -7.5      4.229      6.496
REMARK  Name = 
REMARK  4 active torsions:
REMARK  status: ('A' for Active; 'I' for Inactive)
REMARK    1  A    between atoms: O_1  and  C_2
REMARK    2  A    between atoms: C_2  and  C_3
REMARK    3  A    between atoms: C_7  and  C_8
REMARK    4  A    between atoms: C_14  and  C_15
REMARK                            x       y       z     vdW  Elec       q    Type
REMARK                         _______ _______ _______ _____ _____    ______ ____
ROOT
ATOM      1  C   UNL     1       1.063   8.779  21.042  0.00  0.00    +0.000 A 
ATOM      2  C   UNL     1       1.411   9.238  22.304  0.00  0.00    +0.000 A 
ATOM      3  N   UNL     1       0.699  10.350  22.669  0.00  0.00    +0.000 NA
ATOM      4  C   UNL     1      -0.094  10.586  21.649  0.00  0.00    +0.000 A 
ATOM      5  C   UNL     1      -1.062  11.593  21.457  0.00  0.00    +0.000 A 
ATOM      6  C   UNL     1      -1.764  11.630  20.320  0.00  0.00    +0.000 A 
ATOM      7  C   UNL     1      -1.471  10.588  19.291  0.00  0.00    +0.000 A 
ATOM      8  N   UNL     1      -0.609   9.625  19.440  0.00  0.00    +0.000 NA
ATOM      9  N   UNL     1       0.076   9.662  20.630  0.00  0.00    +0.000 N 
ENDROOT
BRANCH   1  14
ATOM     10  C   UNL     1       1.936   5.216  20.056  0.00  0.00    +0.000 A 
ATOM     11  C   UNL     1       2.546   5.438  18.816  0.00  0.00    +0.000 A 
ATOM     12  C   UNL     1       2.665   6.730  18.309  0.00  0.00    +0.000 A 
ATOM     13  C   UNL     1       2.182   7.816  19.041  0.00  0.00    +0.000 A 
ATOM     14  C   UNL     1       1.565   7.627  20.287  0.00  0.00    +0.000 A 
ATOM     15  C   UNL     1       1.436   6.316  20.770  0.00  0.00    +0.000 A 
BRANCH  10  16
ATOM     16  C   UNL     1       1.861   3.833  20.638  0.00  0.00    +0.000 C 
BRANCH  16  17
ATOM     17  O   UNL     1       0.579   3.276  20.399  0.00  0.00    +0.000 OA
ATOM     18  H   UNL     1       0.008   3.577  21.125  0.00  0.00    +0.000 HD
ENDBRANCH  16  17
ENDBRANCH  10  16
ENDBRANCH   1  14
BRANCH   7  19
ATOM     19  C   UNL     1      -2.259  10.669  18.025  0.00  0.00    +0.000 A 
ATOM     20  C   UNL     1      -3.391  11.491  17.920  0.00  0.00    +0.000 A 
ATOM     21  C   UNL     1      -4.137  11.512  16.741  0.00  0.00    +0.000 A 
ATOM     22  C   UNL     1      -3.748  10.730  15.655  0.00  0.00    +0.000 A 
ATOM     23  C   UNL     1      -2.602   9.941  15.738  0.00  0.00    +0.000 A 
ATOM     24  C   UNL     1      -1.854   9.913  16.918  0.00  0.00    +0.000 A 
ENDBRANCH   7  19
TORSDOF 4
ENDMDL
