MODEL 1
REMARK VINA RESULT:      -8.7      0.000      0.000
REMARK  Name = 
REMARK  15 active torsions:
REMARK  status: ('A' for Active; 'I' for Inactive)
REMARK    1  A    between atoms: C_1  and  O_2
REMARK    2  A    between atoms: O_2  and  C_3
REMARK    3  A    between atoms: C_3  and  C_5
REMARK    4  A    between atoms: C_6  and  C_7
REMARK    5  A    between atoms: C_9  and  C_10
REMARK    6  A    between atoms: C_12  and  O_13
REMARK    7  A    between atoms: C_12  and  O_14
REMARK    8  A    between atoms: O_14  and  C_15
REMARK    9  A    between atoms: C_15  and  C_16
REMARK   10  A    between atoms: C_16  and  N_17
REMARK   11  A    between atoms: N_17  and  C_18
REMARK   12  A    between atoms: N_17  and  C_19
REMARK   13  A    between atoms: C_19  and  C_20
REMARK   14  A    between atoms: C_26  and  C_27
REMARK   15  A    between atoms: C_31  and  N_32
REMARK                            x       y       z     vdW  Elec       q    Type
REMARK                         _______ _______ _______ _____ _____    ______ ____
ROOT
ATOM      1  C   UNL     1       2.292   3.981  18.989  0.00  0.00    +0.000 C 
ATOM      2  C   UNL     1       1.741   4.140  20.211  0.00  0.00    +0.000 C 
ATOM      3  C   UNL     1       1.251   3.039  21.124  0.00  0.00    +0.000 C 
ATOM      4  N   UNL     1       1.548   5.374  20.784  0.00  0.00    +0.000 NA
ATOM      5  C   UNL     1       1.824   6.471  20.151  0.00  0.00    +0.000 C 
ATOM      6  C   UNL     1       1.489   7.736  20.918  0.00  0.00    +0.000 C 
ATOM      7  C   UNL     1       2.422   6.534  18.768  0.00  0.00    +0.000 C 
ATOM      8  C   UNL     1       2.674   7.695  18.116  0.00  0.00    +0.000 C 
ATOM      9  C   UNL     1       2.795   5.165  18.203  0.00  0.00    +0.000 C 
ENDROOT
BRANCH   9  10
ATOM     10  C   UNL     1       4.319   5.087  18.006  0.00  0.00    +0.000 A 
ATOM     11  C   UNL     1       5.191   5.384  19.069  0.00  0.00    +0.000 A 
ATOM     12  C   UNL     1       6.569   5.460  18.862  0.00  0.00    +0.000 A 
ATOM     13  C   UNL     1       7.099   5.243  17.591  0.00  0.00    +0.000 A 
ATOM     14  C   UNL     1       6.243   4.912  16.535  0.00  0.00    +0.000 A 
ATOM     15  C   UNL     1       4.860   4.806  16.741  0.00  0.00    +0.000 A 
BRANCH  14  16
ATOM     16  N   UNL     1       6.787   4.727  15.184  0.00  0.00    +0.000 N 
ATOM     17  O   UNL     1       6.229   3.904  14.443  0.00  0.00    +0.000 OA
ATOM     18  O   UNL     1       7.782   5.395  14.870  0.00  0.00    +0.000 OA
ENDBRANCH  14  16
ENDBRANCH   9  10
BRANCH   1  19
ATOM     19  C   UNL     1       2.468   2.647  18.355  0.00  0.00    +0.000 C 
ATOM     20  O   UNL     1       2.175   2.356  17.206  0.00  0.00    +0.000 OA
BRANCH  19  22
ATOM     21  C   UNL     1       4.404   1.812  19.392  0.00  0.00    +0.000 C 
ATOM     22  O   UNL     1       2.979   1.774  19.266  0.00  0.00    +0.000 OA
ENDBRANCH  19  22
ENDBRANCH   1  19
BRANCH   8  23
ATOM     23  O   UNL     1       3.186   7.744  16.834  0.00  0.00    +0.000 OA
ATOM     24  H   UNL     1       3.013   8.599  16.417  0.00  0.00    +0.000 HD
ENDBRANCH   8  23
BRANCH   8  25
ATOM     25  O   UNL     1       2.443   8.914  18.711  0.00  0.00    +0.000 OA
BRANCH  25  26
ATOM     26  C   UNL     1       1.465   9.691  18.005  0.00  0.00    +0.000 C 
BRANCH  26  27
ATOM     27  C   UNL     1       1.076  10.882  18.886  0.00  0.00    +0.000 C 
BRANCH  27  28
ATOM     28  N   UNL     1      -0.304  10.843  19.410  0.00  0.00    +0.000 NA
ATOM     29  C   UNL     1      -0.320  10.812  20.877  0.00  0.00    +0.000 C 
BRANCH  28  30
ATOM     30  C   UNL     1      -1.067  12.023  18.949  0.00  0.00    +0.000 C 
BRANCH  30  31
ATOM     31  C   UNL     1      -2.282  11.683  18.114  0.00  0.00    +0.000 A 
ATOM     32  C   UNL     1      -3.575  11.829  18.637  0.00  0.00    +0.000 A 
ATOM     33  C   UNL     1      -4.692  11.508  17.864  0.00  0.00    +0.000 A 
ATOM     34  C   UNL     1      -4.527  11.044  16.559  0.00  0.00    +0.000 A 
ATOM     35  C   UNL     1      -3.247  10.897  16.028  0.00  0.00    +0.000 A 
ATOM     36  C   UNL     1      -2.130  11.215  16.800  0.00  0.00    +0.000 A 
ENDBRANCH  30  31
ENDBRANCH  28  30
ENDBRANCH  27  28
ENDBRANCH  26  27
ENDBRANCH  25  26
ENDBRANCH   8  25
TORSDOF 11
ENDMDL
MODEL 2
REMARK VINA RESULT:      -8.6      2.073      4.595
REMARK  Name = 
REMARK  15 active torsions:
REMARK  status: ('A' for Active; 'I' for Inactive)
REMARK    1  A    between atoms: C_1  and  O_2
REMARK    2  A    between atoms: O_2  and  C_3
REMARK    3  A    between atoms: C_3  and  C_5
REMARK    4  A    between atoms: C_6  and  C_7
REMARK    5  A    between atoms: C_9  and  C_10
REMARK    6  A    between atoms: C_12  and  O_13
REMARK    7  A    between atoms: C_12  and  O_14
REMARK    8  A    between atoms: O_14  and  C_15
REMARK    9  A    between atoms: C_15  and  C_16
REMARK   10  A    between atoms: C_16  and  N_17
REMARK   11  A    between atoms: N_17  and  C_18
REMARK   12  A    between atoms: N_17  and  C_19
REMARK   13  A    between atoms: C_19  and  C_20
REMARK   14  A    between atoms: C_26  and  C_27
REMARK   15  A    between atoms: C_31  and  N_32
REMARK                            x       y       z     vdW  Elec       q    Type
REMARK                         _______ _______ _______ _____ _____    ______ ____
ROOT
ATOM      1  C   UNL     1       4.550   6.002  18.021  0.00  0.00    +0.000 C 
ATOM      2  C   UNL     1       4.457   6.810  16.943  0.00  0.00    +0.000 C 
ATOM      3  C   UNL     1       5.319   6.753  15.702  0.00  0.00    +0.000 C 
ATOM      4  N   UNL     1       3.534   7.824  16.852  0.00  0.00    +0.000 NA
ATOM      5  C   UNL     1       2.735   8.110  17.833  0.00  0.00    +0.000 C 
ATOM      6  C   UNL     1       1.827   9.297  17.573  0.00  0.00    +0.000 C 
ATOM      7  C   UNL     1       2.681   7.359  19.139  0.00  0.00    +0.000 C 
ATOM      8  C   UNL     1       1.857   7.697  20.160  0.00  0.00    +0.000 C 
ATOM      9  C   UNL     1       3.586   6.129  19.173  0.00  0.00    +0.000 C 
ENDROOT
BRANCH   9  10
ATOM     10  C   UNL     1       2.725   4.861  19.310  0.00  0.00    +0.000 A 
ATOM     11  C   UNL     1       1.794   4.519  18.313  0.00  0.00    +0.000 A 
ATOM     12  C   UNL     1       0.908   3.457  18.496  0.00  0.00    +0.000 A 
ATOM     13  C   UNL     1       0.934   2.721  19.680  0.00  0.00    +0.000 A 
ATOM     14  C   UNL     1       1.879   3.030  20.664  0.00  0.00    +0.000 A 
ATOM     15  C   UNL     1       2.792   4.078  20.475  0.00  0.00    +0.000 A 
BRANCH  14  16
ATOM     16  N   UNL     1       1.884   2.290  21.932  0.00  0.00    +0.000 N 
ATOM     17  O   UNL     1       0.823   2.231  22.571  0.00  0.00    +0.000 OA
ATOM     18  O   UNL     1       2.954   1.781  22.294  0.00  0.00    +0.000 OA
ENDBRANCH  14  16
ENDBRANCH   9  10
BRANCH   1  19
ATOM     19  C   UNL     1       5.573   4.929  18.133  0.00  0.00    +0.000 C 
ATOM     20  O   UNL     1       5.707   3.986  17.370  0.00  0.00    +0.000 OA
BRANCH  19  22
ATOM     21  C   UNL     1       7.550   5.843  19.012  0.00  0.00    +0.000 C 
ATOM     22  O   UNL     1       6.329   5.135  19.246  0.00  0.00    +0.000 OA
ENDBRANCH  19  22
ENDBRANCH   1  19
BRANCH   8  23
ATOM     23  O   UNL     1       1.840   7.028  21.370  0.00  0.00    +0.000 OA
ATOM     24  H   UNL     1       1.988   6.081  21.251  0.00  0.00    +0.000 HD
ENDBRANCH   8  23
BRANCH   8  25
ATOM     25  O   UNL     1       0.962   8.737  20.044  0.00  0.00    +0.000 OA
BRANCH  25  26
ATOM     26  C   UNL     1       0.438   9.152  21.314  0.00  0.00    +0.000 C 
BRANCH  26  27
ATOM     27  C   UNL     1       0.612  10.670  21.427  0.00  0.00    +0.000 C 
BRANCH  27  28
ATOM     28  N   UNL     1      -0.598  11.458  21.113  0.00  0.00    +0.000 NA
ATOM     29  C   UNL     1      -0.693  12.652  21.959  0.00  0.00    +0.000 C 
BRANCH  28  30
ATOM     30  C   UNL     1      -0.590  11.876  19.695  0.00  0.00    +0.000 C 
BRANCH  30  31
ATOM     31  C   UNL     1      -1.777  11.376  18.900  0.00  0.00    +0.000 A 
ATOM     32  C   UNL     1      -1.650  10.280  18.035  0.00  0.00    +0.000 A 
ATOM     33  C   UNL     1      -2.747   9.827  17.300  0.00  0.00    +0.000 A 
ATOM     34  C   UNL     1      -3.982  10.462  17.427  0.00  0.00    +0.000 A 
ATOM     35  C   UNL     1      -4.121  11.551  18.285  0.00  0.00    +0.000 A 
ATOM     36  C   UNL     1      -3.025  12.007  19.019  0.00  0.00    +0.000 A 
ENDBRANCH  30  31
ENDBRANCH  28  30
ENDBRANCH  27  28
ENDBRANCH  26  27
ENDBRANCH  25  26
ENDBRANCH   8  25
TORSDOF 11
ENDMDL
MODEL 3
REMARK VINA RESULT:      -8.5      1.526      2.639
REMARK  Name = 
REMARK  15 active torsions:
REMARK  status: ('A' for Active; 'I' for Inactive)
REMARK    1  A    between atoms: C_1  and  O_2
REMARK    2  A    between atoms: O_2  and  C_3
REMARK    3  A    between atoms: C_3  and  C_5
REMARK    4  A    between atoms: C_6  and  C_7
REMARK    5  A    between atoms: C_9  and  C_10
REMARK    6  A    between atoms: C_12  and  O_13
REMARK    7  A    between atoms: C_12  and  O_14
REMARK    8  A    between atoms: O_14  and  C_15
REMARK    9  A    between atoms: C_15  and  C_16
REMARK   10  A    between atoms: C_16  and  N_17
REMARK   11  A    between atoms: N_17  and  C_18
REMARK   12  A    between atoms: N_17  and  C_19
REMARK   13  A    between atoms: C_19  and  C_20
REMARK   14  A    between atoms: C_26  and  C_27
REMARK   15  A    between atoms: C_31  and  N_32
REMARK                            x       y       z     vdW  Elec       q    Type
REMARK                         _______ _______ _______ _____ _____    ______ ____
ROOT
ATOM      1  C   UNL     1       2.297   4.001  18.977  0.00  0.00    +0.000 C 
ATOM      2  C   UNL     1       1.749   4.168  20.200  0.00  0.00    +0.000 C 
ATOM      3  C   UNL     1       1.250   3.075  21.116  0.00  0.00    +0.000 C 
ATOM      4  N   UNL     1       1.568   5.406  20.768  0.00  0.00    +0.000 NA
ATOM      5  C   UNL     1       1.853   6.498  20.131  0.00  0.00    +0.000 C 
ATOM      6  C   UNL     1       1.530   7.769  20.895  0.00  0.00    +0.000 C 
ATOM      7  C   UNL     1       2.449   6.551  18.748  0.00  0.00    +0.000 C 
ATOM      8  C   UNL     1       2.711   7.708  18.092  0.00  0.00    +0.000 C 
ATOM      9  C   UNL     1       2.809   5.178  18.186  0.00  0.00    +0.000 C 
ENDROOT
BRANCH   9  10
ATOM     10  C   UNL     1       4.332   5.085  17.989  0.00  0.00    +0.000 A 
ATOM     11  C   UNL     1       5.209   5.394  19.044  0.00  0.00    +0.000 A 
ATOM     12  C   UNL     1       6.587   5.456  18.834  0.00  0.00    +0.000 A 
ATOM     13  C   UNL     1       7.113   5.214  17.565  0.00  0.00    +0.000 A 
ATOM     14  C   UNL     1       6.253   4.872  16.517  0.00  0.00    +0.000 A 
ATOM     15  C   UNL     1       4.869   4.780  16.727  0.00  0.00    +0.000 A 
BRANCH  14  16
ATOM     16  N   UNL     1       6.793   4.660  15.168  0.00  0.00    +0.000 N 
ATOM     17  O   UNL     1       6.302   3.749  14.485  0.00  0.00    +0.000 OA
ATOM     18  O   UNL     1       7.718   5.397  14.799  0.00  0.00    +0.000 OA
ENDBRANCH  14  16
ENDBRANCH   9  10
BRANCH   1  19
ATOM     19  C   UNL     1       2.460   2.663  18.347  0.00  0.00    +0.000 C 
ATOM     20  O   UNL     1       2.161   2.370  17.201  0.00  0.00    +0.000 OA
BRANCH  19  22
ATOM     21  C   UNL     1       4.398   1.770  19.331  0.00  0.00    +0.000 C 
ATOM     22  O   UNL     1       2.969   1.789  19.259  0.00  0.00    +0.000 OA
ENDBRANCH  19  22
ENDBRANCH   1  19
BRANCH   8  23
ATOM     23  O   UNL     1       3.222   7.749  16.809  0.00  0.00    +0.000 OA
ATOM     24  H   UNL     1       3.542   8.632  16.584  0.00  0.00    +0.000 HD
ENDBRANCH   8  23
BRANCH   8  25
ATOM     25  O   UNL     1       2.492   8.932  18.683  0.00  0.00    +0.000 OA
BRANCH  25  26
ATOM     26  C   UNL     1       1.497   9.701  17.993  0.00  0.00    +0.000 C 
BRANCH  26  27
ATOM     27  C   UNL     1       1.417  11.080  18.658  0.00  0.00    +0.000 C 
BRANCH  27  28
ATOM     28  N   UNL     1       0.213  11.303  19.483  0.00  0.00    +0.000 NA
ATOM     29  C   UNL     1      -0.849  10.348  19.149  0.00  0.00    +0.000 C 
BRANCH  28  30
ATOM     30  C   UNL     1       0.538  11.172  20.920  0.00  0.00    +0.000 C 
BRANCH  30  31
ATOM     31  C   UNL     1      -0.355  11.988  21.830  0.00  0.00    +0.000 A 
ATOM     32  C   UNL     1      -1.392  11.379  22.551  0.00  0.00    +0.000 A 
ATOM     33  C   UNL     1      -2.215  12.138  23.384  0.00  0.00    +0.000 A 
ATOM     34  C   UNL     1      -2.006  13.511  23.509  0.00  0.00    +0.000 A 
ATOM     35  C   UNL     1      -0.977  14.126  22.799  0.00  0.00    +0.000 A 
ATOM     36  C   UNL     1      -0.155  13.370  21.964  0.00  0.00    +0.000 A 
ENDBRANCH  30  31
ENDBRANCH  28  30
ENDBRANCH  27  28
ENDBRANCH  26  27
ENDBRANCH  25  26
ENDBRANCH   8  25
TORSDOF 11
ENDMDL
MODEL 4
REMARK VINA RESULT:      -8.5      1.726      2.586
REMARK  Name = 
REMARK  15 active torsions:
REMARK  status: ('A' for Active; 'I' for Inactive)
REMARK    1  A    between atoms: C_1  and  O_2
REMARK    2  A    between atoms: O_2  and  C_3
REMARK    3  A    between atoms: C_3  and  C_5
REMARK    4  A    between atoms: C_6  and  C_7
REMARK    5  A    between atoms: C_9  and  C_10
REMARK    6  A    between atoms: C_12  and  O_13
REMARK    7  A    between atoms: C_12  and  O_14
REMARK    8  A    between atoms: O_14  and  C_15
REMARK    9  A    between atoms: C_15  and  C_16
REMARK   10  A    between atoms: C_16  and  N_17
REMARK   11  A    between atoms: N_17  and  C_18
REMARK   12  A    between atoms: N_17  and  C_19
REMARK   13  A    between atoms: C_19  and  C_20
REMARK   14  A    between atoms: C_26  and  C_27
REMARK   15  A    between atoms: C_31  and  N_32
REMARK                            x       y       z     vdW  Elec       q    Type
REMARK                         _______ _______ _______ _____ _____    ______ ____
ROOT
ATOM      1  C   UNL     1       2.589   3.970  19.282  0.00  0.00    +0.000 C 
ATOM      2  C   UNL     1       2.096   4.198  20.519  0.00  0.00    +0.000 C 
ATOM      3  C   UNL     1       1.706   3.150  21.536  0.00  0.00    +0.000 C 
ATOM      4  N   UNL     1       1.877   5.463  21.009  0.00  0.00    +0.000 NA
ATOM      5  C   UNL     1       2.070   6.519  20.283  0.00  0.00    +0.000 C 
ATOM      6  C   UNL     1       1.719   7.824  20.972  0.00  0.00    +0.000 C 
ATOM      7  C   UNL     1       2.590   6.502  18.868  0.00  0.00    +0.000 C 
ATOM      8  C   UNL     1       2.754   7.620  18.119  0.00  0.00    +0.000 C 
ATOM      9  C   UNL     1       2.994   5.111  18.384  0.00  0.00    +0.000 C 
ENDROOT
BRANCH   9  10
ATOM     10  C   UNL     1       4.508   5.082  18.109  0.00  0.00    +0.000 A 
ATOM     11  C   UNL     1       5.423   5.448  19.112  0.00  0.00    +0.000 A 
ATOM     12  C   UNL     1       6.784   5.567  18.830  0.00  0.00    +0.000 A 
ATOM     13  C   UNL     1       7.254   5.325  17.540  0.00  0.00    +0.000 A 
ATOM     14  C   UNL     1       6.358   4.925  16.543  0.00  0.00    +0.000 A 
ATOM     15  C   UNL     1       4.992   4.777  16.826  0.00  0.00    +0.000 A 
BRANCH  14  16
ATOM     16  N   UNL     1       6.837   4.713  15.171  0.00  0.00    +0.000 N 
ATOM     17  O   UNL     1       7.723   5.467  14.744  0.00  0.00    +0.000 OA
ATOM     18  O   UNL     1       6.314   3.799  14.518  0.00  0.00    +0.000 OA
ENDBRANCH  14  16
ENDBRANCH   9  10
BRANCH   1  19
ATOM     19  C   UNL     1       2.791   2.600  18.739  0.00  0.00    +0.000 C 
ATOM     20  O   UNL     1       3.698   1.840  19.036  0.00  0.00    +0.000 OA
BRANCH  19  22
ATOM     21  C   UNL     1       0.577   1.896  18.386  0.00  0.00    +0.000 C 
ATOM     22  O   UNL     1       1.821   2.326  17.823  0.00  0.00    +0.000 OA
ENDBRANCH  19  22
ENDBRANCH   1  19
BRANCH   8  23
ATOM     23  O   UNL     1       3.195   7.593  16.810  0.00  0.00    +0.000 OA
ATOM     24  H   UNL     1       3.442   8.475  16.503  0.00  0.00    +0.000 HD
ENDBRANCH   8  23
BRANCH   8  25
ATOM     25  O   UNL     1       2.500   8.871  18.635  0.00  0.00    +0.000 OA
BRANCH  25  26
ATOM     26  C   UNL     1       1.673   9.661  17.769  0.00  0.00    +0.000 C 
BRANCH  26  27
ATOM     27  C   UNL     1       1.826  11.131  18.177  0.00  0.00    +0.000 C 
BRANCH  27  28
ATOM     28  N   UNL     1       1.248  11.472  19.493  0.00  0.00    +0.000 NA
ATOM     29  C   UNL     1       1.677  12.803  19.937  0.00  0.00    +0.000 C 
BRANCH  28  30
ATOM     30  C   UNL     1      -0.229  11.441  19.434  0.00  0.00    +0.000 C 
BRANCH  30  31
ATOM     31  C   UNL     1      -0.901  11.513  20.789  0.00  0.00    +0.000 A 
ATOM     32  C   UNL     1      -0.494  10.673  21.836  0.00  0.00    +0.000 A 
ATOM     33  C   UNL     1      -1.122  10.740  23.081  0.00  0.00    +0.000 A 
ATOM     34  C   UNL     1      -2.156  11.650  23.293  0.00  0.00    +0.000 A 
ATOM     35  C   UNL     1      -2.566  12.492  22.261  0.00  0.00    +0.000 A 
ATOM     36  C   UNL     1      -1.943  12.425  21.015  0.00  0.00    +0.000 A 
ENDBRANCH  30  31
ENDBRANCH  28  30
ENDBRANCH  27  28
ENDBRANCH  26  27
ENDBRANCH  25  26
ENDBRANCH   8  25
TORSDOF 11
ENDMDL
MODEL 5
REMARK VINA RESULT:      -8.4      0.680      1.361
REMARK  Name = 
REMARK  15 active torsions:
REMARK  status: ('A' for Active; 'I' for Inactive)
REMARK    1  A    between atoms: C_1  and  O_2
REMARK    2  A    between atoms: O_2  and  C_3
REMARK    3  A    between atoms: C_3  and  C_5
REMARK    4  A    between atoms: C_6  and  C_7
REMARK    5  A    between atoms: C_9  and  C_10
REMARK    6  A    between atoms: C_12  and  O_13
REMARK    7  A    between atoms: C_12  and  O_14
REMARK    8  A    between atoms: O_14  and  C_15
REMARK    9  A    between atoms: C_15  and  C_16
REMARK   10  A    between atoms: C_16  and  N_17
REMARK   11  A    between atoms: N_17  and  C_18
REMARK   12  A    between atoms: N_17  and  C_19
REMARK   13  A    between atoms: C_19  and  C_20
REMARK   14  A    between atoms: C_26  and  C_27
REMARK   15  A    between atoms: C_31  and  N_32
REMARK                            x       y       z     vdW  Elec       q    Type
REMARK                         _______ _______ _______ _____ _____    ______ ____
ROOT
ATOM      1  C   UNL     1       2.711   3.785  19.387  0.00  0.00    +0.000 C 
ATOM      2  C   UNL     1       2.246   3.969  20.641  0.00  0.00    +0.000 C 
ATOM      3  C   UNL     1       1.952   2.888  21.657  0.00  0.00    +0.000 C 
ATOM      4  N   UNL     1       1.968   5.213  21.154  0.00  0.00    +0.000 NA
ATOM      5  C   UNL     1       2.073   6.287  20.436  0.00  0.00    +0.000 C 
ATOM      6  C   UNL     1       1.666   7.560  21.153  0.00  0.00    +0.000 C 
ATOM      7  C   UNL     1       2.547   6.316  19.005  0.00  0.00    +0.000 C 
ATOM      8  C   UNL     1       2.620   7.450  18.266  0.00  0.00    +0.000 C 
ATOM      9  C   UNL     1       3.019   4.958  18.491  0.00  0.00    +0.000 C 
ENDROOT
BRANCH   9  10
ATOM     10  C   UNL     1       4.522   5.022  18.168  0.00  0.00    +0.000 A 
ATOM     11  C   UNL     1       5.447   5.415  19.152  0.00  0.00    +0.000 A 
ATOM     12  C   UNL     1       6.789   5.620  18.830  0.00  0.00    +0.000 A 
ATOM     13  C   UNL     1       7.230   5.438  17.520  0.00  0.00    +0.000 A 
ATOM     14  C   UNL     1       6.325   5.013  16.541  0.00  0.00    +0.000 A 
ATOM     15  C   UNL     1       4.980   4.778  16.863  0.00  0.00    +0.000 A 
BRANCH  14  16
ATOM     16  N   UNL     1       6.770   4.863  15.150  0.00  0.00    +0.000 N 
ATOM     17  O   UNL     1       7.807   5.451  14.808  0.00  0.00    +0.000 OA
ATOM     18  O   UNL     1       6.073   4.168  14.398  0.00  0.00    +0.000 OA
ENDBRANCH  14  16
ENDBRANCH   9  10
BRANCH   1  19
ATOM     19  C   UNL     1       2.978   2.435  18.820  0.00  0.00    +0.000 C 
ATOM     20  O   UNL     1       3.941   1.730  19.074  0.00  0.00    +0.000 OA
BRANCH  19  22
ATOM     21  C   UNL     1       0.672   2.127  18.489  0.00  0.00    +0.000 C 
ATOM     22  O   UNL     1       1.993   2.109  17.938  0.00  0.00    +0.000 OA
ENDBRANCH  19  22
ENDBRANCH   1  19
BRANCH   8  23
ATOM     23  O   UNL     1       3.019   7.464  16.943  0.00  0.00    +0.000 OA
ATOM     24  H   UNL     1       3.766   8.062  16.806  0.00  0.00    +0.000 HD
ENDBRANCH   8  23
BRANCH   8  25
ATOM     25  O   UNL     1       2.308   8.677  18.806  0.00  0.00    +0.000 OA
BRANCH  25  26
ATOM     26  C   UNL     1       1.610   9.521  17.878  0.00  0.00    +0.000 C 
BRANCH  26  27
ATOM     27  C   UNL     1       1.091  10.742  18.644  0.00  0.00    +0.000 C 
BRANCH  27  28
ATOM     28  N   UNL     1      -0.081  10.482  19.506  0.00  0.00    +0.000 NA
ATOM     29  C   UNL     1       0.272  10.561  20.927  0.00  0.00    +0.000 C 
BRANCH  28  30
ATOM     30  C   UNL     1      -1.156  11.458  19.225  0.00  0.00    +0.000 C 
BRANCH  30  31
ATOM     31  C   UNL     1      -2.069  11.057  18.086  0.00  0.00    +0.000 A 
ATOM     32  C   UNL     1      -1.742   9.978  17.252  0.00  0.00    +0.000 A 
ATOM     33  C   UNL     1      -2.585   9.617  16.199  0.00  0.00    +0.000 A 
ATOM     34  C   UNL     1      -3.764  10.327  15.974  0.00  0.00    +0.000 A 
ATOM     35  C   UNL     1      -4.100  11.399  16.799  0.00  0.00    +0.000 A 
ATOM     36  C   UNL     1      -3.258  11.763  17.849  0.00  0.00    +0.000 A 
ENDBRANCH  30  31
ENDBRANCH  28  30
ENDBRANCH  27  28
ENDBRANCH  26  27
ENDBRANCH  25  26
ENDBRANCH   8  25
TORSDOF 11
ENDMDL
MODEL 6
REMARK VINA RESULT:      -8.4      1.666      2.916
REMARK  Name = 
REMARK  15 active torsions:
REMARK  status: ('A' for Active; 'I' for Inactive)
REMARK    1  A    between atoms: C_1  and  O_2
REMARK    2  A    between atoms: O_2  and  C_3
REMARK    3  A    between atoms: C_3  and  C_5
REMARK    4  A    between atoms: C_6  and  C_7
REMARK    5  A    between atoms: C_9  and  C_10
REMARK    6  A    between atoms: C_12  and  O_13
REMARK    7  A    between atoms: C_12  and  O_14
REMARK    8  A    between atoms: O_14  and  C_15
REMARK    9  A    between atoms: C_15  and  C_16
REMARK   10  A    between atoms: C_16  and  N_17
REMARK   11  A    between atoms: N_17  and  C_18
REMARK   12  A    between atoms: N_17  and  C_19
REMARK   13  A    between atoms: C_19  and  C_20
REMARK   14  A    between atoms: C_26  and  C_27
REMARK   15  A    between atoms: C_31  and  N_32
REMARK                            x       y       z     vdW  Elec       q    Type
REMARK                         _______ _______ _______ _____ _____    ______ ____
ROOT
ATOM      1  C   UNL     1       2.239   3.991  18.926  0.00  0.00    +0.000 C 
ATOM      2  C   UNL     1       1.681   4.139  20.147  0.00  0.00    +0.000 C 
ATOM      3  C   UNL     1       1.158   3.032  21.034  0.00  0.00    +0.000 C 
ATOM      4  N   UNL     1       1.511   5.365  20.742  0.00  0.00    +0.000 NA
ATOM      5  C   UNL     1       1.818   6.468  20.132  0.00  0.00    +0.000 C 
ATOM      6  C   UNL     1       1.505   7.726  20.921  0.00  0.00    +0.000 C 
ATOM      7  C   UNL     1       2.428   6.544  18.756  0.00  0.00    +0.000 C 
ATOM      8  C   UNL     1       2.712   7.711  18.129  0.00  0.00    +0.000 C 
ATOM      9  C   UNL     1       2.774   5.178  18.167  0.00  0.00    +0.000 C 
ENDROOT
BRANCH   9  10
ATOM     10  C   UNL     1       4.298   5.069  17.981  0.00  0.00    +0.000 A 
ATOM     11  C   UNL     1       5.168   5.328  19.056  0.00  0.00    +0.000 A 
ATOM     12  C   UNL     1       6.549   5.376  18.862  0.00  0.00    +0.000 A 
ATOM     13  C   UNL     1       7.084   5.170  17.591  0.00  0.00    +0.000 A 
ATOM     14  C   UNL     1       6.230   4.876  16.522  0.00  0.00    +0.000 A 
ATOM     15  C   UNL     1       4.843   4.798  16.715  0.00  0.00    +0.000 A 
BRANCH  14  16
ATOM     16  N   UNL     1       6.781   4.702  15.173  0.00  0.00    +0.000 N 
ATOM     17  O   UNL     1       6.341   3.770  14.484  0.00  0.00    +0.000 OA
ATOM     18  O   UNL     1       7.665   5.491  14.809  0.00  0.00    +0.000 OA
ENDBRANCH  14  16
ENDBRANCH   9  10
BRANCH   1  19
ATOM     19  C   UNL     1       2.389   2.665  18.268  0.00  0.00    +0.000 C 
ATOM     20  O   UNL     1       2.068   2.394  17.122  0.00  0.00    +0.000 OA
BRANCH  19  22
ATOM     21  C   UNL     1       4.307   1.501  18.965  0.00  0.00    +0.000 C 
ATOM     22  O   UNL     1       2.915   1.775  19.153  0.00  0.00    +0.000 OA
ENDBRANCH  19  22
ENDBRANCH   1  19
BRANCH   8  23
ATOM     23  O   UNL     1       3.236   7.773  16.852  0.00  0.00    +0.000 OA
ATOM     24  H   UNL     1       2.976   7.006  16.326  0.00  0.00    +0.000 HD
ENDBRANCH   8  23
BRANCH   8  25
ATOM     25  O   UNL     1       2.504   8.924  18.746  0.00  0.00    +0.000 OA
BRANCH  25  26
ATOM     26  C   UNL     1       1.867   9.875  17.880  0.00  0.00    +0.000 C 
BRANCH  26  27
ATOM     27  C   UNL     1       0.408  10.020  18.326  0.00  0.00    +0.000 C 
BRANCH  27  28
ATOM     28  N   UNL     1       0.001  11.396  18.679  0.00  0.00    +0.000 NA
ATOM     29  C   UNL     1      -1.316  11.416  19.324  0.00  0.00    +0.000 C 
BRANCH  28  30
ATOM     30  C   UNL     1       0.990  12.010  19.590  0.00  0.00    +0.000 C 
BRANCH  30  31
ATOM     31  C   UNL     1       1.507  13.354  19.123  0.00  0.00    +0.000 A 
ATOM     32  C   UNL     1       2.718  13.452  18.423  0.00  0.00    +0.000 A 
ATOM     33  C   UNL     1       3.192  14.695  18.000  0.00  0.00    +0.000 A 
ATOM     34  C   UNL     1       2.457  15.850  18.266  0.00  0.00    +0.000 A 
ATOM     35  C   UNL     1       1.251  15.764  18.958  0.00  0.00    +0.000 A 
ATOM     36  C   UNL     1       0.777  14.523  19.385  0.00  0.00    +0.000 A 
ENDBRANCH  30  31
ENDBRANCH  28  30
ENDBRANCH  27  28
ENDBRANCH  26  27
ENDBRANCH  25  26
ENDBRANCH   8  25
TORSDOF 11
ENDMDL
MODEL 7
REMARK VINA RESULT:      -8.3      1.378      2.449
REMARK  Name = 
REMARK  15 active torsions:
REMARK  status: ('A' for Active; 'I' for Inactive)
REMARK    1  A    between atoms: C_1  and  O_2
REMARK    2  A    between atoms: O_2  and  C_3
REMARK    3  A    between atoms: C_3  and  C_5
REMARK    4  A    between atoms: C_6  and  C_7
REMARK    5  A    between atoms: C_9  and  C_10
REMARK    6  A    between atoms: C_12  and  O_13
REMARK    7  A    between atoms: C_12  and  O_14
REMARK    8  A    between atoms: O_14  and  C_15
REMARK    9  A    between atoms: C_15  and  C_16
REMARK   10  A    between atoms: C_16  and  N_17
REMARK   11  A    between atoms: N_17  and  C_18
REMARK   12  A    between atoms: N_17  and  C_19
REMARK   13  A    between atoms: C_19  and  C_20
REMARK   14  A    between atoms: C_26  and  C_27
REMARK   15  A    between atoms: C_31  and  N_32
REMARK                            x       y       z     vdW  Elec       q    Type
REMARK                         _______ _______ _______ _____ _____    ______ ____
ROOT
ATOM      1  C   UNL     1       2.755   3.799  19.435  0.00  0.00    +0.000 C 
ATOM      2  C   UNL     1       2.253   4.008  20.671  0.00  0.00    +0.000 C 
ATOM      3  C   UNL     1       1.926   2.948  21.698  0.00  0.00    +0.000 C 
ATOM      4  N   UNL     1       1.961   5.262  21.151  0.00  0.00    +0.000 NA
ATOM      5  C   UNL     1       2.090   6.322  20.415  0.00  0.00    +0.000 C 
ATOM      6  C   UNL     1       1.664   7.610  21.095  0.00  0.00    +0.000 C 
ATOM      7  C   UNL     1       2.607   6.323  18.999  0.00  0.00    +0.000 C 
ATOM      8  C   UNL     1       2.704   7.442  18.241  0.00  0.00    +0.000 C 
ATOM      9  C   UNL     1       3.092   4.954  18.527  0.00  0.00    +0.000 C 
ENDROOT
BRANCH   9  10
ATOM     10  C   UNL     1       4.604   5.011  18.248  0.00  0.00    +0.000 A 
ATOM     11  C   UNL     1       5.501   5.407  19.257  0.00  0.00    +0.000 A 
ATOM     12  C   UNL     1       6.853   5.604  18.974  0.00  0.00    +0.000 A 
ATOM     13  C   UNL     1       7.332   5.412  17.678  0.00  0.00    +0.000 A 
ATOM     14  C   UNL     1       6.455   4.984  16.676  0.00  0.00    +0.000 A 
ATOM     15  C   UNL     1       5.100   4.757  16.959  0.00  0.00    +0.000 A 
BRANCH  14  16
ATOM     16  N   UNL     1       6.941   4.823  15.300  0.00  0.00    +0.000 N 
ATOM     17  O   UNL     1       6.479   3.888  14.629  0.00  0.00    +0.000 OA
ATOM     18  O   UNL     1       7.796   5.624  14.897  0.00  0.00    +0.000 OA
ENDBRANCH  14  16
ENDBRANCH   9  10
BRANCH   1  19
ATOM     19  C   UNL     1       3.037   2.439  18.903  0.00  0.00    +0.000 C 
ATOM     20  O   UNL     1       4.000   1.745  19.186  0.00  0.00    +0.000 OA
BRANCH  19  22
ATOM     21  C   UNL     1       0.730   2.220  18.512  0.00  0.00    +0.000 C 
ATOM     22  O   UNL     1       2.066   2.087  18.015  0.00  0.00    +0.000 OA
ENDBRANCH  19  22
ENDBRANCH   1  19
BRANCH   8  23
ATOM     23  O   UNL     1       3.144   7.430  16.931  0.00  0.00    +0.000 OA
ATOM     24  H   UNL     1       4.080   7.199  16.875  0.00  0.00    +0.000 HD
ENDBRANCH   8  23
BRANCH   8  25
ATOM     25  O   UNL     1       2.378   8.680  18.747  0.00  0.00    +0.000 OA
BRANCH  25  26
ATOM     26  C   UNL     1       1.747   9.521  17.770  0.00  0.00    +0.000 C 
BRANCH  26  27
ATOM     27  C   UNL     1       1.283  10.801  18.474  0.00  0.00    +0.000 C 
BRANCH  27  28
ATOM     28  N   UNL     1      -0.171  10.879  18.724  0.00  0.00    +0.000 NA
ATOM     29  C   UNL     1      -0.922  10.036  17.787  0.00  0.00    +0.000 C 
BRANCH  28  30
ATOM     30  C   UNL     1      -0.482  10.453  20.105  0.00  0.00    +0.000 C 
BRANCH  30  31
ATOM     31  C   UNL     1      -1.113  11.535  20.955  0.00  0.00    +0.000 A 
ATOM     32  C   UNL     1      -0.699  11.739  22.280  0.00  0.00    +0.000 A 
ATOM     33  C   UNL     1      -1.290  12.735  23.060  0.00  0.00    +0.000 A 
ATOM     34  C   UNL     1      -2.294  13.539  22.523  0.00  0.00    +0.000 A 
ATOM     35  C   UNL     1      -2.711  13.347  21.207  0.00  0.00    +0.000 A 
ATOM     36  C   UNL     1      -2.125  12.351  20.426  0.00  0.00    +0.000 A 
ENDBRANCH  30  31
ENDBRANCH  28  30
ENDBRANCH  27  28
ENDBRANCH  26  27
ENDBRANCH  25  26
ENDBRANCH   8  25
TORSDOF 11
ENDMDL
MODEL 8
REMARK VINA RESULT:      -8.3      1.565      2.090
REMARK  Name = 
REMARK  15 active torsions:
REMARK  status: ('A' for Active; 'I' for Inactive)
REMARK    1  A    between atoms: C_1  and  O_2
REMARK    2  A    between atoms: O_2  and  C_3
REMARK    3  A    between atoms: C_3  and  C_5
REMARK    4  A    between atoms: C_6  and  C_7
REMARK    5  A    between atoms: C_9  and  C_10
REMARK    6  A    between atoms: C_12  and  O_13
REMARK    7  A    between atoms: C_12  and  O_14
REMARK    8  A    between atoms: O_14  and  C_15
REMARK    9  A    between atoms: C_15  and  C_16
REMARK   10  A    between atoms: C_16  and  N_17
REMARK   11  A    between atoms: N_17  and  C_18
REMARK   12  A    between atoms: N_17  and  C_19
REMARK   13  A    between atoms: C_19  and  C_20
REMARK   14  A    between atoms: C_26  and  C_27
REMARK   15  A    between atoms: C_31  and  N_32
REMARK                            x       y       z     vdW  Elec       q    Type
REMARK                         _______ _______ _______ _____ _____    ______ ____
ROOT
ATOM      1  C   UNL     1       2.330   4.234  19.085  0.00  0.00    +0.000 C 
ATOM      2  C   UNL     1       1.973   4.408  20.376  0.00  0.00    +0.000 C 
ATOM      3  C   UNL     1       1.652   3.318  21.373  0.00  0.00    +0.000 C 
ATOM      4  N   UNL     1       1.847   5.650  20.950  0.00  0.00    +0.000 NA
ATOM      5  C   UNL     1       2.001   6.739  20.263  0.00  0.00    +0.000 C 
ATOM      6  C   UNL     1       1.765   8.014  21.051  0.00  0.00    +0.000 C 
ATOM      7  C   UNL     1       2.375   6.784  18.803  0.00  0.00    +0.000 C 
ATOM      8  C   UNL     1       2.500   7.936  18.100  0.00  0.00    +0.000 C 
ATOM      9  C   UNL     1       2.681   5.410  18.210  0.00  0.00    +0.000 C 
ENDROOT
BRANCH   9  10
ATOM     10  C   UNL     1       4.157   5.353  17.780  0.00  0.00    +0.000 A 
ATOM     11  C   UNL     1       4.520   4.779  16.548  0.00  0.00    +0.000 A 
ATOM     12  C   UNL     1       5.861   4.588  16.215  0.00  0.00    +0.000 A 
ATOM     13  C   UNL     1       6.864   4.965  17.108  0.00  0.00    +0.000 A 
ATOM     14  C   UNL     1       6.515   5.568  18.321  0.00  0.00    +0.000 A 
ATOM     15  C   UNL     1       5.170   5.789  18.650  0.00  0.00    +0.000 A 
BRANCH  14  16
ATOM     16  N   UNL     1       7.562   5.926  19.287  0.00  0.00    +0.000 N 
ATOM     17  O   UNL     1       8.330   6.853  18.991  0.00  0.00    +0.000 OA
ATOM     18  O   UNL     1       7.622   5.269  20.335  0.00  0.00    +0.000 OA
ENDBRANCH  14  16
ENDBRANCH   9  10
BRANCH   1  19
ATOM     19  C   UNL     1       2.430   2.891  18.455  0.00  0.00    +0.000 C 
ATOM     20  O   UNL     1       1.631   2.407  17.669  0.00  0.00    +0.000 OA
BRANCH  19  22
ATOM     21  C   UNL     1       3.895   1.074  18.186  0.00  0.00    +0.000 C 
ATOM     22  O   UNL     1       3.542   2.254  18.914  0.00  0.00    +0.000 OA
ENDBRANCH  19  22
ENDBRANCH   1  19
BRANCH   8  23
ATOM     23  O   UNL     1       2.805   7.968  16.753  0.00  0.00    +0.000 OA
ATOM     24  H   UNL     1       2.202   8.545  16.268  0.00  0.00    +0.000 HD
ENDBRANCH   8  23
BRANCH   8  25
ATOM     25  O   UNL     1       2.341   9.163  18.703  0.00  0.00    +0.000 OA
BRANCH  25  26
ATOM     26  C   UNL     1       1.379   9.984  18.025  0.00  0.00    +0.000 C 
BRANCH  26  27
ATOM     27  C   UNL     1       1.220  11.284  18.820  0.00  0.00    +0.000 C 
BRANCH  27  28
ATOM     28  N   UNL     1      -0.177  11.667  19.110  0.00  0.00    +0.000 NA
ATOM     29  C   UNL     1      -0.652  12.702  18.185  0.00  0.00    +0.000 C 
BRANCH  28  30
ATOM     30  C   UNL     1      -1.068  10.491  19.008  0.00  0.00    +0.000 C 
BRANCH  30  31
ATOM     31  C   UNL     1      -2.163  10.635  17.973  0.00  0.00    +0.000 A 
ATOM     32  C   UNL     1      -2.032  10.049  16.705  0.00  0.00    +0.000 A 
ATOM     33  C   UNL     1      -3.043  10.191  15.753  0.00  0.00    +0.000 A 
ATOM     34  C   UNL     1      -4.195  10.915  16.060  0.00  0.00    +0.000 A 
ATOM     35  C   UNL     1      -4.336  11.499  17.317  0.00  0.00    +0.000 A 
ATOM     36  C   UNL     1      -3.326  11.361  18.270  0.00  0.00    +0.000 A 
ENDBRANCH  30  31
ENDBRANCH  28  30
ENDBRANCH  27  28
ENDBRANCH  26  27
ENDBRANCH  25  26
ENDBRANCH   8  25
TORSDOF 11
ENDMDL
MODEL 9
REMARK VINA RESULT:      -8.3      1.914      2.596
REMARK  Name = 
REMARK  15 active torsions:
REMARK  status: ('A' for Active; 'I' for Inactive)
REMARK    1  A    between atoms: C_1  and  O_2
REMARK    2  A    between atoms: O_2  and  C_3
REMARK    3  A    between atoms: C_3  and  C_5
REMARK    4  A    between atoms: C_6  and  C_7
REMARK    5  A    between atoms: C_9  and  C_10
REMARK    6  A    between atoms: C_12  and  O_13
REMARK    7  A    between atoms: C_12  and  O_14
REMARK    8  A    between atoms: O_14  and  C_15
REMARK    9  A    between atoms: C_15  and  C_16
REMARK   10  A    between atoms: C_16  and  N_17
REMARK   11  A    between atoms: N_17  and  C_18
REMARK   12  A    between atoms: N_17  and  C_19
REMARK   13  A    between atoms: C_19  and  C_20
REMARK   14  A    between atoms: C_26  and  C_27
REMARK   15  A    between atoms: C_31  and  N_32
REMARK                            x       y       z     vdW  Elec       q    Type
REMARK                         _______ _______ _______ _____ _____    ______ ____
ROOT
ATOM      1  C   UNL     1       2.312   3.995  19.036  0.00  0.00    +0.000 C 
ATOM      2  C   UNL     1       1.736   4.158  20.247  0.00  0.00    +0.000 C 
ATOM      3  C   UNL     1       1.258   3.059  21.168  0.00  0.00    +0.000 C 
ATOM      4  N   UNL     1       1.503   5.395  20.797  0.00  0.00    +0.000 NA
ATOM      5  C   UNL     1       1.763   6.489  20.152  0.00  0.00    +0.000 C 
ATOM      6  C   UNL     1       1.384   7.757  20.894  0.00  0.00    +0.000 C 
ATOM      7  C   UNL     1       2.382   6.546  18.778  0.00  0.00    +0.000 C 
ATOM      8  C   UNL     1       2.617   7.704  18.113  0.00  0.00    +0.000 C 
ATOM      9  C   UNL     1       2.798   5.179  18.240  0.00  0.00    +0.000 C 
ENDROOT
BRANCH   9  10
ATOM     10  C   UNL     1       4.327   5.136  18.070  0.00  0.00    +0.000 A 
ATOM     11  C   UNL     1       5.174   5.506  19.131  0.00  0.00    +0.000 A 
ATOM     12  C   UNL     1       6.552   5.612  18.941  0.00  0.00    +0.000 A 
ATOM     13  C   UNL     1       7.108   5.354  17.689  0.00  0.00    +0.000 A 
ATOM     14  C   UNL     1       6.279   4.951  16.637  0.00  0.00    +0.000 A 
ATOM     15  C   UNL     1       4.896   4.815  16.827  0.00  0.00    +0.000 A 
BRANCH  14  16
ATOM     16  N   UNL     1       6.850   4.720  15.304  0.00  0.00    +0.000 N 
ATOM     17  O   UNL     1       7.738   5.492  14.913  0.00  0.00    +0.000 OA
ATOM     18  O   UNL     1       6.397   3.775  14.643  0.00  0.00    +0.000 OA
ENDBRANCH  14  16
ENDBRANCH   9  10
BRANCH   1  19
ATOM     19  C   UNL     1       2.531   2.656  18.425  0.00  0.00    +0.000 C 
ATOM     20  O   UNL     1       2.256   2.338  17.280  0.00  0.00    +0.000 OA
BRANCH  19  22
ATOM     21  C   UNL     1       4.468   1.965  19.561  0.00  0.00    +0.000 C 
ATOM     22  O   UNL     1       3.060   1.813  19.354  0.00  0.00    +0.000 OA
ENDBRANCH  19  22
ENDBRANCH   1  19
BRANCH   8  23
ATOM     23  O   UNL     1       3.149   7.747  16.839  0.00  0.00    +0.000 OA
ATOM     24  H   UNL     1       2.632   8.322  16.260  0.00  0.00    +0.000 HD
ENDBRANCH   8  23
BRANCH   8  25
ATOM     25  O   UNL     1       2.346   8.926  18.686  0.00  0.00    +0.000 OA
BRANCH  25  26
ATOM     26  C   UNL     1       1.472   9.726  17.876  0.00  0.00    +0.000 C 
BRANCH  26  27
ATOM     27  C   UNL     1       0.727  10.698  18.799  0.00  0.00    +0.000 C 
BRANCH  27  28
ATOM     28  N   UNL     1       1.562  11.776  19.368  0.00  0.00    +0.000 NA
ATOM     29  C   UNL     1       2.368  12.431  18.333  0.00  0.00    +0.000 C 
BRANCH  28  30
ATOM     30  C   UNL     1       0.714  12.792  20.028  0.00  0.00    +0.000 C 
BRANCH  30  31
ATOM     31  C   UNL     1      -0.174  12.237  21.121  0.00  0.00    +0.000 A 
ATOM     32  C   UNL     1       0.240  11.143  21.894  0.00  0.00    +0.000 A 
ATOM     33  C   UNL     1      -0.586  10.633  22.897  0.00  0.00    +0.000 A 
ATOM     34  C   UNL     1      -1.831  11.214  23.139  0.00  0.00    +0.000 A 
ATOM     35  C   UNL     1      -2.251  12.303  22.378  0.00  0.00    +0.000 A 
ATOM     36  C   UNL     1      -1.428  12.813  21.374  0.00  0.00    +0.000 A 
ENDBRANCH  30  31
ENDBRANCH  28  30
ENDBRANCH  27  28
ENDBRANCH  26  27
ENDBRANCH  25  26
ENDBRANCH   8  25
TORSDOF 11
ENDMDL
