MODEL 1
REMARK VINA RESULT:      -7.9      0.000      0.000
REMARK  Name = 
REMARK  8 active torsions:
REMARK  status: ('A' for Active; 'I' for Inactive)
REMARK    1  A    between atoms: C_1  and  C_2
REMARK    2  A    between atoms: C_2  and  N_3
REMARK    3  A    between atoms: N_3  and  C_4
REMARK    4  A    between atoms: C_4  and  C_5
REMARK    5  A    between atoms: C_4  and  C_6
REMARK    6  A    between atoms: C_6  and  N_7
REMARK    7  A    between atoms: C_17  and  O_18
REMARK    8  A    between atoms: O_18  and  C_19
REMARK                            x       y       z     vdW  Elec       q    Type
REMARK                         _______ _______ _______ _____ _____    ______ ____
ROOT
ATOM      1  N   UNL     1       5.533   4.656  15.290  0.00  0.00    +0.000 NA
ATOM      2  C   UNL     1       5.892   6.030  15.698  0.00  0.00    +0.000 C 
ATOM      3  C   UNL     1       4.599   6.754  16.317  0.00  0.00    +0.000 C 
ATOM      4  C   UNL     1       4.076   5.929  17.449  0.00  0.00    +0.000 A 
ATOM      5  C   UNL     1       4.675   4.771  17.605  0.00  0.00    +0.000 A 
ATOM      6  C   UNL     1       5.344   4.768  18.927  0.00  0.00    +0.000 A 
ATOM      7  O   UNL     1       6.495   4.392  19.090  0.00  0.00    +0.000 OA
ATOM      8  O   UNL     1       4.586   5.418  19.917  0.00  0.00    +0.000 OA
ATOM      9  C   UNL     1       3.193   5.379  19.583  0.00  0.00    +0.000 A 
ATOM     10  C   UNL     1       2.481   4.497  20.380  0.00  0.00    +0.000 A 
ATOM     11  C   UNL     1       1.555   3.648  19.787  0.00  0.00    +0.000 A 
ATOM     12  C   UNL     1       1.214   3.846  18.444  0.00  0.00    +0.000 A 
ATOM     13  C   UNL     1       1.789   4.908  17.692  0.00  0.00    +0.000 A 
ATOM     14  C   UNL     1       2.847   5.675  18.240  0.00  0.00    +0.000 A 
ATOM     15  C   UNL     1       4.882   3.950  16.400  0.00  0.00    +0.000 C 
ENDROOT
BRANCH  11  16
ATOM     16  O   UNL     1       1.197   2.605  20.594  0.00  0.00    +0.000 OA
ATOM     17  C   UNL     1       1.731   2.535  21.905  0.00  0.00    +0.000 C 
ENDBRANCH  11  16
BRANCH   1  18
ATOM     18  C   UNL     1       6.588   3.777  14.758  0.00  0.00    +0.000 C 
BRANCH  18  19
ATOM     19  C   UNL     1       6.513   3.781  13.178  0.00  0.00    +0.000 C 
ATOM     20  C   UNL     1       7.354   4.910  12.589  0.00  0.00    +0.000 C 
BRANCH  19  21
ATOM     21  N   UNL     1       5.101   3.834  12.745  0.00  0.00    +0.000 NA
ATOM     22  H   UNL     1       4.531   3.544  13.546  0.00  0.00    +0.000 HD
BRANCH  21  24
ATOM     23  C   UNL     1       3.576   3.471  10.858  0.00  0.00    +0.000 C 
ATOM     24  C   UNL     1       4.811   2.976  11.595  0.00  0.00    +0.000 C 
ENDBRANCH  21  24
ENDBRANCH  19  21
ENDBRANCH  18  19
ENDBRANCH   1  18
TORSDOF 5
ENDMDL
MODEL 2
REMARK VINA RESULT:      -7.7      1.011      1.310
REMARK  Name = 
REMARK  8 active torsions:
REMARK  status: ('A' for Active; 'I' for Inactive)
REMARK    1  A    between atoms: C_1  and  C_2
REMARK    2  A    between atoms: C_2  and  N_3
REMARK    3  A    between atoms: N_3  and  C_4
REMARK    4  A    between atoms: C_4  and  C_5
REMARK    5  A    between atoms: C_4  and  C_6
REMARK    6  A    between atoms: C_6  and  N_7
REMARK    7  A    between atoms: C_17  and  O_18
REMARK    8  A    between atoms: O_18  and  C_19
REMARK                            x       y       z     vdW  Elec       q    Type
REMARK                         _______ _______ _______ _____ _____    ______ ____
ROOT
ATOM      1  N   UNL     1       5.443   4.583  14.862  0.00  0.00    +0.000 NA
ATOM      2  C   UNL     1       5.947   5.920  15.236  0.00  0.00    +0.000 C 
ATOM      3  C   UNL     1       4.785   6.732  15.991  0.00  0.00    +0.000 C 
ATOM      4  C   UNL     1       4.323   5.935  17.168  0.00  0.00    +0.000 A 
ATOM      5  C   UNL     1       4.844   4.733  17.255  0.00  0.00    +0.000 A 
ATOM      6  C   UNL     1       5.646   4.664  18.500  0.00  0.00    +0.000 A 
ATOM      7  O   UNL     1       6.776   4.201  18.538  0.00  0.00    +0.000 OA
ATOM      8  O   UNL     1       5.048   5.356  19.566  0.00  0.00    +0.000 OA
ATOM      9  C   UNL     1       3.629   5.426  19.381  0.00  0.00    +0.000 A 
ATOM     10  C   UNL     1       2.940   4.591  20.245  0.00  0.00    +0.000 A 
ATOM     11  C   UNL     1       1.894   3.821  19.750  0.00  0.00    +0.000 A 
ATOM     12  C   UNL     1       1.430   4.061  18.451  0.00  0.00    +0.000 A 
ATOM     13  C   UNL     1       2.003   5.086  17.647  0.00  0.00    +0.000 A 
ATOM     14  C   UNL     1       3.167   5.764  18.084  0.00  0.00    +0.000 A 
ATOM     15  C   UNL     1       4.861   3.914  16.032  0.00  0.00    +0.000 C 
ENDROOT
BRANCH  11  16
ATOM     16  O   UNL     1       1.545   2.798  20.586  0.00  0.00    +0.000 OA
ATOM     17  C   UNL     1       2.267   2.618  21.792  0.00  0.00    +0.000 C 
ENDBRANCH  11  16
BRANCH   1  18
ATOM     18  C   UNL     1       6.367   3.634  14.218  0.00  0.00    +0.000 C 
BRANCH  18  19
ATOM     19  C   UNL     1       6.111   3.644  12.658  0.00  0.00    +0.000 C 
ATOM     20  C   UNL     1       4.620   3.743  12.345  0.00  0.00    +0.000 C 
BRANCH  19  21
ATOM     21  N   UNL     1       6.748   2.463  12.037  0.00  0.00    +0.000 NA
ATOM     22  H   UNL     1       7.487   2.814  11.419  0.00  0.00    +0.000 HD
BRANCH  21  24
ATOM     23  C   UNL     1       6.267   0.177  11.291  0.00  0.00    +0.000 C 
ATOM     24  C   UNL     1       5.817   1.630  11.276  0.00  0.00    +0.000 C 
ENDBRANCH  21  24
ENDBRANCH  19  21
ENDBRANCH  18  19
ENDBRANCH   1  18
TORSDOF 5
ENDMDL
MODEL 3
REMARK VINA RESULT:      -6.8      0.833      1.683
REMARK  Name = 
REMARK  8 active torsions:
REMARK  status: ('A' for Active; 'I' for Inactive)
REMARK    1  A    between atoms: C_1  and  C_2
REMARK    2  A    between atoms: C_2  and  N_3
REMARK    3  A    between atoms: N_3  and  C_4
REMARK    4  A    between atoms: C_4  and  C_5
REMARK    5  A    between atoms: C_4  and  C_6
REMARK    6  A    between atoms: C_6  and  N_7
REMARK    7  A    between atoms: C_17  and  O_18
REMARK    8  A    between atoms: O_18  and  C_19
REMARK                            x       y       z     vdW  Elec       q    Type
REMARK                         _______ _______ _______ _____ _____    ______ ____
ROOT
ATOM      1  N   UNL     1       5.370   4.703  15.033  0.00  0.00    +0.000 NA
ATOM      2  C   UNL     1       5.894   6.022  15.442  0.00  0.00    +0.000 C 
ATOM      3  C   UNL     1       4.743   6.832  16.217  0.00  0.00    +0.000 C 
ATOM      4  C   UNL     1       4.266   6.011  17.372  0.00  0.00    +0.000 A 
ATOM      5  C   UNL     1       4.769   4.800  17.428  0.00  0.00    +0.000 A 
ATOM      6  C   UNL     1       5.568   4.685  18.671  0.00  0.00    +0.000 A 
ATOM      7  O   UNL     1       6.690   4.203  18.699  0.00  0.00    +0.000 OA
ATOM      8  O   UNL     1       4.979   5.358  19.755  0.00  0.00    +0.000 OA
ATOM      9  C   UNL     1       3.561   5.455  19.570  0.00  0.00    +0.000 A 
ATOM     10  C   UNL     1       2.858   4.608  20.411  0.00  0.00    +0.000 A 
ATOM     11  C   UNL     1       1.801   3.869  19.895  0.00  0.00    +0.000 A 
ATOM     12  C   UNL     1       1.343   4.149  18.601  0.00  0.00    +0.000 A 
ATOM     13  C   UNL     1       1.933   5.186  17.825  0.00  0.00    +0.000 A 
ATOM     14  C   UNL     1       3.107   5.835  18.282  0.00  0.00    +0.000 A 
ATOM     15  C   UNL     1       4.775   4.012  16.184  0.00  0.00    +0.000 C 
ENDROOT
BRANCH  11  16
ATOM     16  O   UNL     1       1.435   2.829  20.702  0.00  0.00    +0.000 OA
ATOM     17  C   UNL     1       2.313   2.419  21.736  0.00  0.00    +0.000 C 
ENDBRANCH  11  16
BRANCH   1  18
ATOM     18  C   UNL     1       6.280   3.757  14.365  0.00  0.00    +0.000 C 
BRANCH  18  19
ATOM     19  C   UNL     1       6.109   3.897  12.799  0.00  0.00    +0.000 C 
ATOM     20  C   UNL     1       5.413   2.673  12.208  0.00  0.00    +0.000 C 
BRANCH  19  21
ATOM     21  N   UNL     1       7.422   4.165  12.174  0.00  0.00    +0.000 NA
ATOM     22  H   UNL     1       8.011   3.345  12.354  0.00  0.00    +0.000 HD
BRANCH  21  24
ATOM     23  C   UNL     1       8.125   6.448  11.617  0.00  0.00    +0.000 C 
ATOM     24  C   UNL     1       8.077   5.369  12.687  0.00  0.00    +0.000 C 
ENDBRANCH  21  24
ENDBRANCH  19  21
ENDBRANCH  18  19
ENDBRANCH   1  18
TORSDOF 5
ENDMDL
MODEL 4
REMARK VINA RESULT:      -6.7      2.837      4.817
REMARK  Name = 
REMARK  8 active torsions:
REMARK  status: ('A' for Active; 'I' for Inactive)
REMARK    1  A    between atoms: C_1  and  C_2
REMARK    2  A    between atoms: C_2  and  N_3
REMARK    3  A    between atoms: N_3  and  C_4
REMARK    4  A    between atoms: C_4  and  C_5
REMARK    5  A    between atoms: C_4  and  C_6
REMARK    6  A    between atoms: C_6  and  N_7
REMARK    7  A    between atoms: C_17  and  O_18
REMARK    8  A    between atoms: O_18  and  C_19
REMARK                            x       y       z     vdW  Elec       q    Type
REMARK                         _______ _______ _______ _____ _____    ______ ____
ROOT
ATOM      1  N   UNL     1       6.069   6.006  17.171  0.00  0.00    +0.000 NA
ATOM      2  C   UNL     1       5.402   6.030  15.853  0.00  0.00    +0.000 C 
ATOM      3  C   UNL     1       4.746   4.592  15.566  0.00  0.00    +0.000 C 
ATOM      4  C   UNL     1       3.814   4.253  16.685  0.00  0.00    +0.000 A 
ATOM      5  C   UNL     1       3.829   5.100  17.688  0.00  0.00    +0.000 A 
ATOM      6  C   UNL     1       2.489   5.725  17.788  0.00  0.00    +0.000 A 
ATOM      7  O   UNL     1       2.325   6.928  17.921  0.00  0.00    +0.000 OA
ATOM      8  O   UNL     1       1.449   4.818  17.523  0.00  0.00    +0.000 OA
ATOM      9  C   UNL     1       1.871   3.479  17.809  0.00  0.00    +0.000 A 
ATOM     10  C   UNL     1       1.290   2.975  18.961  0.00  0.00    +0.000 A 
ATOM     11  C   UNL     1       2.080   2.282  19.870  0.00  0.00    +0.000 A 
ATOM     12  C   UNL     1       3.386   1.932  19.505  0.00  0.00    +0.000 A 
ATOM     13  C   UNL     1       3.899   2.260  18.219  0.00  0.00    +0.000 A 
ATOM     14  C   UNL     1       3.158   3.100  17.351  0.00  0.00    +0.000 A 
ATOM     15  C   UNL     1       5.145   5.515  18.200  0.00  0.00    +0.000 C 
ENDROOT
BRANCH  11  16
ATOM     16  O   UNL     1       1.496   2.160  21.099  0.00  0.00    +0.000 OA
ATOM     17  C   UNL     1       1.850   3.074  22.122  0.00  0.00    +0.000 C 
ENDBRANCH  11  16
BRANCH   1  18
ATOM     18  C   UNL     1       6.683   7.247  17.675  0.00  0.00    +0.000 C 
BRANCH  18  19
ATOM     19  C   UNL     1       8.090   6.904  18.309  0.00  0.00    +0.000 C 
ATOM     20  C   UNL     1       7.991   5.721  19.268  0.00  0.00    +0.000 C 
BRANCH  19  21
ATOM     21  N   UNL     1       8.659   8.111  18.947  0.00  0.00    +0.000 NA
ATOM     22  H   UNL     1       8.226   8.191  19.873  0.00  0.00    +0.000 HD
BRANCH  21  24
ATOM     23  C   UNL     1       9.247  10.485  18.758  0.00  0.00    +0.000 C 
ATOM     24  C   UNL     1       8.428   9.338  18.184  0.00  0.00    +0.000 C 
ENDBRANCH  21  24
ENDBRANCH  19  21
ENDBRANCH  18  19
ENDBRANCH   1  18
TORSDOF 5
ENDMDL
MODEL 5
REMARK VINA RESULT:      -6.7      1.315      1.756
REMARK  Name = 
REMARK  8 active torsions:
REMARK  status: ('A' for Active; 'I' for Inactive)
REMARK    1  A    between atoms: C_1  and  C_2
REMARK    2  A    between atoms: C_2  and  N_3
REMARK    3  A    between atoms: N_3  and  C_4
REMARK    4  A    between atoms: C_4  and  C_5
REMARK    5  A    between atoms: C_4  and  C_6
REMARK    6  A    between atoms: C_6  and  N_7
REMARK    7  A    between atoms: C_17  and  O_18
REMARK    8  A    between atoms: O_18  and  C_19
REMARK                            x       y       z     vdW  Elec       q    Type
REMARK                         _______ _______ _______ _____ _____    ______ ____
ROOT
ATOM      1  N   UNL     1       5.715   4.388  14.112  0.00  0.00    +0.000 NA
ATOM      2  C   UNL     1       6.231   5.759  14.309  0.00  0.00    +0.000 C 
ATOM      3  C   UNL     1       5.251   6.556  15.299  0.00  0.00    +0.000 C 
ATOM      4  C   UNL     1       5.127   5.793  16.579  0.00  0.00    +0.000 A 
ATOM      5  C   UNL     1       5.710   4.616  16.573  0.00  0.00    +0.000 A 
ATOM      6  C   UNL     1       6.794   4.630  17.585  0.00  0.00    +0.000 A 
ATOM      7  O   UNL     1       7.919   4.212  17.359  0.00  0.00    +0.000 OA
ATOM      8  O   UNL     1       6.441   5.343  18.743  0.00  0.00    +0.000 OA
ATOM      9  C   UNL     1       5.018   5.352  18.909  0.00  0.00    +0.000 A 
ATOM     10  C   UNL     1       4.600   4.527  19.941  0.00  0.00    +0.000 A 
ATOM     11  C   UNL     1       3.502   3.699  19.742  0.00  0.00    +0.000 A 
ATOM     12  C   UNL     1       2.726   3.866  18.589  0.00  0.00    +0.000 A 
ATOM     13  C   UNL     1       3.036   4.877  17.638  0.00  0.00    +0.000 A 
ATOM     14  C   UNL     1       4.239   5.617  17.755  0.00  0.00    +0.000 A 
ATOM     15  C   UNL     1       5.467   3.747  15.410  0.00  0.00    +0.000 C 
ENDROOT
BRANCH  11  16
ATOM     16  O   UNL     1       3.416   2.699  20.670  0.00  0.00    +0.000 OA
ATOM     17  C   UNL     1       2.145   2.352  21.191  0.00  0.00    +0.000 C 
ENDBRANCH  11  16
BRANCH   1  18
ATOM     18  C   UNL     1       6.498   3.449  13.291  0.00  0.00    +0.000 C 
BRANCH  18  19
ATOM     19  C   UNL     1       5.527   2.716  12.280  0.00  0.00    +0.000 C 
ATOM     20  C   UNL     1       6.308   1.853  11.293  0.00  0.00    +0.000 C 
BRANCH  19  21
ATOM     21  N   UNL     1       4.660   3.709  11.611  0.00  0.00    +0.000 NA
ATOM     22  H   UNL     1       4.286   4.321  12.343  0.00  0.00    +0.000 HD
BRANCH  21  24
ATOM     23  C   UNL     1       3.030   4.085   9.817  0.00  0.00    +0.000 C 
ATOM     24  C   UNL     1       3.560   3.108  10.855  0.00  0.00    +0.000 C 
ENDBRANCH  21  24
ENDBRANCH  19  21
ENDBRANCH  18  19
ENDBRANCH   1  18
TORSDOF 5
ENDMDL
MODEL 6
REMARK VINA RESULT:      -6.6      2.676      4.573
REMARK  Name = 
REMARK  8 active torsions:
REMARK  status: ('A' for Active; 'I' for Inactive)
REMARK    1  A    between atoms: C_1  and  C_2
REMARK    2  A    between atoms: C_2  and  N_3
REMARK    3  A    between atoms: N_3  and  C_4
REMARK    4  A    between atoms: C_4  and  C_5
REMARK    5  A    between atoms: C_4  and  C_6
REMARK    6  A    between atoms: C_6  and  N_7
REMARK    7  A    between atoms: C_17  and  O_18
REMARK    8  A    between atoms: O_18  and  C_19
REMARK                            x       y       z     vdW  Elec       q    Type
REMARK                         _______ _______ _______ _____ _____    ______ ____
ROOT
ATOM      1  N   UNL     1       6.914   4.618  17.519  0.00  0.00    +0.000 NA
ATOM      2  C   UNL     1       6.424   5.062  16.197  0.00  0.00    +0.000 C 
ATOM      3  C   UNL     1       5.266   4.066  15.701  0.00  0.00    +0.000 C 
ATOM      4  C   UNL     1       4.188   4.022  16.735  0.00  0.00    +0.000 A 
ATOM      5  C   UNL     1       4.465   4.669  17.843  0.00  0.00    +0.000 A 
ATOM      6  C   UNL     1       3.492   5.778  17.989  0.00  0.00    +0.000 A 
ATOM      7  O   UNL     1       3.822   6.919  18.278  0.00  0.00    +0.000 OA
ATOM      8  O   UNL     1       2.199   5.419  17.573  0.00  0.00    +0.000 OA
ATOM      9  C   UNL     1       2.013   4.003  17.689  0.00  0.00    +0.000 A 
ATOM     10  C   UNL     1       1.185   3.661  18.745  0.00  0.00    +0.000 A 
ATOM     11  C   UNL     1       1.548   2.606  19.574  0.00  0.00    +0.000 A 
ATOM     12  C   UNL     1       2.623   1.789  19.203  0.00  0.00    +0.000 A 
ATOM     13  C   UNL     1       3.329   2.016  17.989  0.00  0.00    +0.000 A 
ATOM     14  C   UNL     1       3.068   3.178  17.221  0.00  0.00    +0.000 A 
ATOM     15  C   UNL     1       5.789   4.443  18.445  0.00  0.00    +0.000 C 
ENDROOT
BRANCH  11  16
ATOM     16  O   UNL     1       0.866   2.602  20.758  0.00  0.00    +0.000 OA
ATOM     17  C   UNL     1       1.571   2.863  21.959  0.00  0.00    +0.000 C 
ENDBRANCH  11  16
BRANCH   1  18
ATOM     18  C   UNL     1       7.936   5.429  18.203  0.00  0.00    +0.000 C 
BRANCH  18  19
ATOM     19  C   UNL     1       7.461   6.937  18.233  0.00  0.00    +0.000 C 
ATOM     20  C   UNL     1       7.041   7.410  16.844  0.00  0.00    +0.000 C 
BRANCH  19  21
ATOM     21  N   UNL     1       8.517   7.782  18.830  0.00  0.00    +0.000 NA
ATOM     22  H   UNL     1       8.367   7.775  19.844  0.00  0.00    +0.000 HD
BRANCH  21  24
ATOM     23  C   UNL     1       9.236  10.078  19.309  0.00  0.00    +0.000 C 
ATOM     24  C   UNL     1       8.510   9.160  18.337  0.00  0.00    +0.000 C 
ENDBRANCH  21  24
ENDBRANCH  19  21
ENDBRANCH  18  19
ENDBRANCH   1  18
TORSDOF 5
ENDMDL
MODEL 7
REMARK VINA RESULT:      -6.1      3.273      6.850
REMARK  Name = 
REMARK  8 active torsions:
REMARK  status: ('A' for Active; 'I' for Inactive)
REMARK    1  A    between atoms: C_1  and  C_2
REMARK    2  A    between atoms: C_2  and  N_3
REMARK    3  A    between atoms: N_3  and  C_4
REMARK    4  A    between atoms: C_4  and  C_5
REMARK    5  A    between atoms: C_4  and  C_6
REMARK    6  A    between atoms: C_6  and  N_7
REMARK    7  A    between atoms: C_17  and  O_18
REMARK    8  A    between atoms: O_18  and  C_19
REMARK                            x       y       z     vdW  Elec       q    Type
REMARK                         _______ _______ _______ _____ _____    ______ ____
ROOT
ATOM      1  N   UNL     1       2.486   6.497  18.726  0.00  0.00    +0.000 NA
ATOM      2  C   UNL     1       2.432   5.194  19.422  0.00  0.00    +0.000 C 
ATOM      3  C   UNL     1       2.744   4.020  18.371  0.00  0.00    +0.000 C 
ATOM      4  C   UNL     1       4.068   4.283  17.729  0.00  0.00    +0.000 A 
ATOM      5  C   UNL     1       4.611   5.436  18.044  0.00  0.00    +0.000 A 
ATOM      6  C   UNL     1       5.880   5.170  18.764  0.00  0.00    +0.000 A 
ATOM      7  O   UNL     1       6.188   5.739  19.800  0.00  0.00    +0.000 OA
ATOM      8  O   UNL     1       6.581   4.073  18.234  0.00  0.00    +0.000 OA
ATOM      9  C   UNL     1       6.240   3.882  16.856  0.00  0.00    +0.000 A 
ATOM     10  C   UNL     1       7.261   4.260  15.999  0.00  0.00    +0.000 A 
ATOM     11  C   UNL     1       6.953   5.005  14.868  0.00  0.00    +0.000 A 
ATOM     12  C   UNL     1       5.610   5.178  14.513  0.00  0.00    +0.000 A 
ATOM     13  C   UNL     1       4.568   4.588  15.282  0.00  0.00    +0.000 A 
ATOM     14  C   UNL     1       4.865   3.963  16.518  0.00  0.00    +0.000 A 
ATOM     15  C   UNL     1       3.748   6.627  17.987  0.00  0.00    +0.000 C 
ENDROOT
BRANCH  11  16
ATOM     16  O   UNL     1       8.047   5.613  14.318  0.00  0.00    +0.000 OA
ATOM     17  C   UNL     1       8.226   5.566  12.913  0.00  0.00    +0.000 C 
ENDBRANCH  11  16
BRANCH   1  18
ATOM     18  C   UNL     1       2.300   7.727  19.515  0.00  0.00    +0.000 C 
BRANCH  18  19
ATOM     19  C   UNL     1       1.348   8.708  18.720  0.00  0.00    +0.000 C 
ATOM     20  C   UNL     1       2.143   9.604  17.775  0.00  0.00    +0.000 C 
BRANCH  19  21
ATOM     21  N   UNL     1       0.515   9.476  19.671  0.00  0.00    +0.000 NA
ATOM     22  H   UNL     1      -0.199   8.833  20.029  0.00  0.00    +0.000 HD
BRANCH  21  24
ATOM     23  C   UNL     1      -1.453  10.260  18.434  0.00  0.00    +0.000 C 
ATOM     24  C   UNL     1      -0.127  10.646  19.071  0.00  0.00    +0.000 C 
ENDBRANCH  21  24
ENDBRANCH  19  21
ENDBRANCH  18  19
ENDBRANCH   1  18
TORSDOF 5
ENDMDL
MODEL 8
REMARK VINA RESULT:      -6.1      2.005      2.428
REMARK  Name = 
REMARK  8 active torsions:
REMARK  status: ('A' for Active; 'I' for Inactive)
REMARK    1  A    between atoms: C_1  and  C_2
REMARK    2  A    between atoms: C_2  and  N_3
REMARK    3  A    between atoms: N_3  and  C_4
REMARK    4  A    between atoms: C_4  and  C_5
REMARK    5  A    between atoms: C_4  and  C_6
REMARK    6  A    between atoms: C_6  and  N_7
REMARK    7  A    between atoms: C_17  and  O_18
REMARK    8  A    between atoms: O_18  and  C_19
REMARK                            x       y       z     vdW  Elec       q    Type
REMARK                         _______ _______ _______ _____ _____    ______ ____
ROOT
ATOM      1  N   UNL     1       6.027   4.558  13.960  0.00  0.00    +0.000 NA
ATOM      2  C   UNL     1       6.244   5.950  14.405  0.00  0.00    +0.000 C 
ATOM      3  C   UNL     1       5.108   6.349  15.468  0.00  0.00    +0.000 C 
ATOM      4  C   UNL     1       5.133   5.367  16.596  0.00  0.00    +0.000 A 
ATOM      5  C   UNL     1       5.948   4.353  16.422  0.00  0.00    +0.000 A 
ATOM      6  C   UNL     1       6.994   4.412  17.470  0.00  0.00    +0.000 A 
ATOM      7  O   UNL     1       8.185   4.277  17.231  0.00  0.00    +0.000 OA
ATOM      8  O   UNL     1       6.489   4.829  18.713  0.00  0.00    +0.000 OA
ATOM      9  C   UNL     1       5.093   4.519  18.813  0.00  0.00    +0.000 A 
ATOM     10  C   UNL     1       4.845   3.462  19.673  0.00  0.00    +0.000 A 
ATOM     11  C   UNL     1       3.947   2.474  19.289  0.00  0.00    +0.000 A 
ATOM     12  C   UNL     1       3.165   2.675  18.145  0.00  0.00    +0.000 A 
ATOM     13  C   UNL     1       3.268   3.877  17.391  0.00  0.00    +0.000 A 
ATOM     14  C   UNL     1       4.288   4.815  17.684  0.00  0.00    +0.000 A 
ATOM     15  C   UNL     1       5.904   3.666  15.120  0.00  0.00    +0.000 C 
ENDROOT
BRANCH  11  16
ATOM     16  O   UNL     1       4.061   1.333  20.033  0.00  0.00    +0.000 OA
ATOM     17  C   UNL     1       5.146   1.205  20.935  0.00  0.00    +0.000 C 
ENDBRANCH  11  16
BRANCH   1  18
ATOM     18  C   UNL     1       6.996   3.953  13.031  0.00  0.00    +0.000 C 
BRANCH  18  19
ATOM     19  C   UNL     1       6.211   3.149  11.919  0.00  0.00    +0.000 C 
ATOM     20  C   UNL     1       4.723   3.489  11.939  0.00  0.00    +0.000 C 
BRANCH  19  21
ATOM     21  N   UNL     1       6.469   1.701  12.071  0.00  0.00    +0.000 NA
ATOM     22  H   UNL     1       7.474   1.594  12.243  0.00  0.00    +0.000 HD
BRANCH  21  24
ATOM     23  C   UNL     1       5.987  -0.563  11.261  0.00  0.00    +0.000 C 
ATOM     24  C   UNL     1       6.078   0.912  10.902  0.00  0.00    +0.000 C 
ENDBRANCH  21  24
ENDBRANCH  19  21
ENDBRANCH  18  19
ENDBRANCH   1  18
TORSDOF 5
ENDMDL
MODEL 9
REMARK VINA RESULT:      -5.9      2.892      6.733
REMARK  Name = 
REMARK  8 active torsions:
REMARK  status: ('A' for Active; 'I' for Inactive)
REMARK    1  A    between atoms: C_1  and  C_2
REMARK    2  A    between atoms: C_2  and  N_3
REMARK    3  A    between atoms: N_3  and  C_4
REMARK    4  A    between atoms: C_4  and  C_5
REMARK    5  A    between atoms: C_4  and  C_6
REMARK    6  A    between atoms: C_6  and  N_7
REMARK    7  A    between atoms: C_17  and  O_18
REMARK    8  A    between atoms: O_18  and  C_19
REMARK                            x       y       z     vdW  Elec       q    Type
REMARK                         _______ _______ _______ _____ _____    ______ ____
ROOT
ATOM      1  N   UNL     1       2.146   4.704  18.160  0.00  0.00    +0.000 NA
ATOM      2  C   UNL     1       2.531   3.441  17.498  0.00  0.00    +0.000 C 
ATOM      3  C   UNL     1       3.616   3.752  16.355  0.00  0.00    +0.000 C 
ATOM      4  C   UNL     1       4.778   4.464  16.971  0.00  0.00    +0.000 A 
ATOM      5  C   UNL     1       4.614   4.791  18.231  0.00  0.00    +0.000 A 
ATOM      6  C   UNL     1       5.624   4.063  19.035  0.00  0.00    +0.000 A 
ATOM      7  O   UNL     1       5.350   3.467  20.066  0.00  0.00    +0.000 OA
ATOM      8  O   UNL     1       6.867   3.972  18.387  0.00  0.00    +0.000 OA
ATOM      9  C   UNL     1       7.025   5.053  17.460  0.00  0.00    +0.000 A 
ATOM     10  C   UNL     1       7.932   6.002  17.901  0.00  0.00    +0.000 A 
ATOM     11  C   UNL     1       7.616   7.349  17.777  0.00  0.00    +0.000 A 
ATOM     12  C   UNL     1       6.492   7.716  17.026  0.00  0.00    +0.000 A 
ATOM     13  C   UNL     1       5.690   6.733  16.381  0.00  0.00    +0.000 A 
ATOM     14  C   UNL     1       5.914   5.357  16.633  0.00  0.00    +0.000 A 
ATOM     15  C   UNL     1       3.341   5.431  18.603  0.00  0.00    +0.000 C 
ENDROOT
BRANCH  11  16
ATOM     16  O   UNL     1       8.397   8.154  18.557  0.00  0.00    +0.000 OA
ATOM     17  C   UNL     1       8.512   9.528  18.231  0.00  0.00    +0.000 C 
ENDBRANCH  11  16
BRANCH   1  18
ATOM     18  C   UNL     1       1.208   4.650  19.294  0.00  0.00    +0.000 C 
BRANCH  18  19
ATOM     19  C   UNL     1       1.972   5.069  20.614  0.00  0.00    +0.000 C 
ATOM     20  C   UNL     1       2.123   3.884  21.564  0.00  0.00    +0.000 C 
BRANCH  19  21
ATOM     21  N   UNL     1       1.292   6.222  21.242  0.00  0.00    +0.000 NA
ATOM     22  H   UNL     1       0.286   6.093  21.092  0.00  0.00    +0.000 HD
BRANCH  21  24
ATOM     23  C   UNL     1       0.730   8.605  21.096  0.00  0.00    +0.000 C 
ATOM     24  C   UNL     1       1.712   7.514  20.699  0.00  0.00    +0.000 C 
ENDBRANCH  21  24
ENDBRANCH  19  21
ENDBRANCH  18  19
ENDBRANCH   1  18
TORSDOF 5
ENDMDL
