MODEL 1
REMARK VINA RESULT:      -8.2      0.000      0.000
REMARK  Name = 
REMARK  6 active torsions:
REMARK  status: ('A' for Active; 'I' for Inactive)
REMARK    1  A    between atoms: C_1  and  C_2
REMARK    2  A    between atoms: C_2  and  C_3
REMARK    3  A    between atoms: C_5  and  C_6
REMARK    4  A    between atoms: C_6  and  N_7
REMARK    5  A    between atoms: C_14  and  O_15
REMARK    6  A    between atoms: O_15  and  C_16
REMARK                            x       y       z     vdW  Elec       q    Type
REMARK                         _______ _______ _______ _____ _____    ______ ____
ROOT
ATOM      1  N   UNL     1       5.856   3.944  18.152  0.00  0.00    +0.000 N 
ATOM      2  C   UNL     1       4.613   3.597  17.701  0.00  0.00    +0.000 C 
ATOM      3  O   UNL     1       4.233   3.931  16.579  0.00  0.00    +0.000 OA
ATOM      4  N   UNL     1       3.811   2.873  18.567  0.00  0.00    +0.000 N 
ATOM      5  C   UNL     1       2.502   2.492  18.056  0.00  0.00    +0.000 C 
ATOM      6  C   UNL     1       1.489   3.615  18.265  0.00  0.00    +0.000 C 
ATOM      7  C   UNL     1       0.889   3.621  19.668  0.00  0.00    +0.000 C 
ATOM      8  C   UNL     1       1.882   3.770  20.832  0.00  0.00    +0.000 C 
ATOM      9  C   UNL     1       2.885   2.610  20.930  0.00  0.00    +0.000 C 
ATOM     10  C   UNL     1       4.093   2.642  19.981  0.00  0.00    +0.000 C 
ATOM     11  H   UNL     1       6.343   3.290  18.745  0.00  0.00    +0.000 HD
ENDROOT
BRANCH   8  12
ATOM     12  O   UNL     1       2.498   5.054  20.752  0.00  0.00    +0.000 OA
ATOM     13  C   UNL     1       1.578   6.136  20.776  0.00  0.00    +0.000 C 
ENDBRANCH   8  12
BRANCH   1  14
ATOM     14  C   UNL     1       6.694   4.677  17.212  0.00  0.00    +0.000 C 
BRANCH  14  17
ATOM     15  C   UNL     1       7.928   7.917  17.927  0.00  0.00    +0.000 A 
ATOM     16  N   UNL     1       7.241   7.110  17.154  0.00  0.00    +0.000 NA
ATOM     17  C   UNL     1       7.304   5.900  17.806  0.00  0.00    +0.000 A 
ATOM     18  N   UNL     1       8.016   5.919  18.945  0.00  0.00    +0.000 NA
ATOM     19  N   UNL     1       8.393   7.210  19.000  0.00  0.00    +0.000 N 
ATOM     20  H   UNL     1       8.956   7.533  19.778  0.00  0.00    +0.000 HD
BRANCH  15  22
ATOM     21  C   UNL     1       9.019   9.947  18.849  0.00  0.00    +0.000 C 
ATOM     22  C   UNL     1       8.180   9.368  17.722  0.00  0.00    +0.000 C 
ENDBRANCH  15  22
ENDBRANCH  14  17
ENDBRANCH   1  14
TORSDOF 4
ENDMDL
MODEL 2
REMARK VINA RESULT:      -7.8      2.809      4.038
REMARK  Name = 
REMARK  6 active torsions:
REMARK  status: ('A' for Active; 'I' for Inactive)
REMARK    1  A    between atoms: C_1  and  C_2
REMARK    2  A    between atoms: C_2  and  C_3
REMARK    3  A    between atoms: C_5  and  C_6
REMARK    4  A    between atoms: C_6  and  N_7
REMARK    5  A    between atoms: C_14  and  O_15
REMARK    6  A    between atoms: O_15  and  C_16
REMARK                            x       y       z     vdW  Elec       q    Type
REMARK                         _______ _______ _______ _____ _____    ______ ____
ROOT
ATOM      1  N   UNL     1       5.147   3.624  17.206  0.00  0.00    +0.000 N 
ATOM      2  C   UNL     1       4.069   4.425  17.458  0.00  0.00    +0.000 C 
ATOM      3  O   UNL     1       4.205   5.640  17.606  0.00  0.00    +0.000 OA
ATOM      4  N   UNL     1       2.835   3.804  17.552  0.00  0.00    +0.000 N 
ATOM      5  C   UNL     1       1.697   4.680  17.795  0.00  0.00    +0.000 C 
ATOM      6  C   UNL     1       1.529   4.951  19.288  0.00  0.00    +0.000 C 
ATOM      7  C   UNL     1       0.771   3.842  20.011  0.00  0.00    +0.000 C 
ATOM      8  C   UNL     1       1.388   2.435  19.937  0.00  0.00    +0.000 C 
ATOM      9  C   UNL     1       1.463   1.877  18.508  0.00  0.00    +0.000 C 
ATOM     10  C   UNL     1       2.621   2.361  17.623  0.00  0.00    +0.000 C 
ATOM     11  H   UNL     1       5.016   2.832  16.596  0.00  0.00    +0.000 HD
ENDROOT
BRANCH   8  12
ATOM     12  O   UNL     1       2.644   2.446  20.614  0.00  0.00    +0.000 OA
ATOM     13  C   UNL     1       2.588   2.999  21.922  0.00  0.00    +0.000 C 
ENDBRANCH   8  12
BRANCH   1  14
ATOM     14  C   UNL     1       6.431   4.303  17.080  0.00  0.00    +0.000 C 
BRANCH  14  17
ATOM     15  C   UNL     1       6.911   4.347  13.573  0.00  0.00    +0.000 A 
ATOM     16  N   UNL     1       6.355   3.815  14.635  0.00  0.00    +0.000 NA
ATOM     17  C   UNL     1       6.789   4.614  15.668  0.00  0.00    +0.000 A 
ATOM     18  N   UNL     1       7.605   5.613  15.291  0.00  0.00    +0.000 NA
ATOM     19  N   UNL     1       7.658   5.424  13.959  0.00  0.00    +0.000 N 
ATOM     20  H   UNL     1       8.214   6.050  13.388  0.00  0.00    +0.000 HD
BRANCH  15  22
ATOM     21  C   UNL     1       5.545   3.027  11.976  0.00  0.00    +0.000 C 
ATOM     22  C   UNL     1       6.774   3.900  12.162  0.00  0.00    +0.000 C 
ENDBRANCH  15  22
ENDBRANCH  14  17
ENDBRANCH   1  14
TORSDOF 4
ENDMDL
MODEL 3
REMARK VINA RESULT:      -7.6      1.243      1.677
REMARK  Name = 
REMARK  6 active torsions:
REMARK  status: ('A' for Active; 'I' for Inactive)
REMARK    1  A    between atoms: C_1  and  C_2
REMARK    2  A    between atoms: C_2  and  C_3
REMARK    3  A    between atoms: C_5  and  C_6
REMARK    4  A    between atoms: C_6  and  N_7
REMARK    5  A    between atoms: C_14  and  O_15
REMARK    6  A    between atoms: O_15  and  C_16
REMARK                            x       y       z     vdW  Elec       q    Type
REMARK                         _______ _______ _______ _____ _____    ______ ____
ROOT
ATOM      1  N   UNL     1       4.842   3.285  17.514  0.00  0.00    +0.000 N 
ATOM      2  C   UNL     1       3.522   2.932  17.561  0.00  0.00    +0.000 C 
ATOM      3  O   UNL     1       2.784   3.115  16.592  0.00  0.00    +0.000 OA
ATOM      4  N   UNL     1       3.062   2.380  18.745  0.00  0.00    +0.000 N 
ATOM      5  C   UNL     1       1.660   1.988  18.763  0.00  0.00    +0.000 C 
ATOM      6  C   UNL     1       0.769   3.174  19.122  0.00  0.00    +0.000 C 
ATOM      7  C   UNL     1       0.674   3.413  20.626  0.00  0.00    +0.000 C 
ATOM      8  C   UNL     1       2.000   3.686  21.356  0.00  0.00    +0.000 C 
ATOM      9  C   UNL     1       2.985   2.509  21.292  0.00  0.00    +0.000 C 
ATOM     10  C   UNL     1       3.804   2.347  20.002  0.00  0.00    +0.000 C 
ATOM     11  H   UNL     1       5.504   2.704  18.004  0.00  0.00    +0.000 HD
ENDROOT
BRANCH   8  12
ATOM     12  O   UNL     1       2.544   4.915  20.880  0.00  0.00    +0.000 OA
ATOM     13  C   UNL     1       1.613   5.988  20.860  0.00  0.00    +0.000 C 
ENDBRANCH   8  12
BRANCH   1  14
ATOM     14  C   UNL     1       5.310   3.834  16.248  0.00  0.00    +0.000 C 
BRANCH  14  17
ATOM     15  C   UNL     1       7.423   6.429  17.401  0.00  0.00    +0.000 A 
ATOM     16  N   UNL     1       6.529   5.501  17.646  0.00  0.00    +0.000 NA
ATOM     17  C   UNL     1       6.324   4.913  16.419  0.00  0.00    +0.000 A 
ATOM     18  N   UNL     1       7.043   5.448  15.419  0.00  0.00    +0.000 NA
ATOM     19  N   UNL     1       7.735   6.401  16.071  0.00  0.00    +0.000 N 
ATOM     20  H   UNL     1       8.385   6.985  15.558  0.00  0.00    +0.000 HD
BRANCH  15  22
ATOM     21  C   UNL     1       8.045   8.793  17.833  0.00  0.00    +0.000 C 
ATOM     22  C   UNL     1       8.036   7.373  18.373  0.00  0.00    +0.000 C 
ENDBRANCH  15  22
ENDBRANCH  14  17
ENDBRANCH   1  14
TORSDOF 4
ENDMDL
MODEL 4
REMARK VINA RESULT:      -7.6      2.751      4.255
REMARK  Name = 
REMARK  6 active torsions:
REMARK  status: ('A' for Active; 'I' for Inactive)
REMARK    1  A    between atoms: C_1  and  C_2
REMARK    2  A    between atoms: C_2  and  C_3
REMARK    3  A    between atoms: C_5  and  C_6
REMARK    4  A    between atoms: C_6  and  N_7
REMARK    5  A    between atoms: C_14  and  O_15
REMARK    6  A    between atoms: O_15  and  C_16
REMARK                            x       y       z     vdW  Elec       q    Type
REMARK                         _______ _______ _______ _____ _____    ______ ____
ROOT
ATOM      1  N   UNL     1       3.799   5.662  17.305  0.00  0.00    +0.000 N 
ATOM      2  C   UNL     1       3.254   5.833  18.547  0.00  0.00    +0.000 C 
ATOM      3  O   UNL     1       3.751   6.621  19.352  0.00  0.00    +0.000 OA
ATOM      4  N   UNL     1       2.139   5.071  18.852  0.00  0.00    +0.000 N 
ATOM      5  C   UNL     1       1.560   5.288  20.171  0.00  0.00    +0.000 C 
ATOM      6  C   UNL     1       2.267   4.437  21.221  0.00  0.00    +0.000 C 
ATOM      7  C   UNL     1       1.743   3.005  21.278  0.00  0.00    +0.000 C 
ATOM      8  C   UNL     1       1.850   2.190  19.978  0.00  0.00    +0.000 C 
ATOM      9  C   UNL     1       1.026   2.776  18.821  0.00  0.00    +0.000 C 
ATOM     10  C   UNL     1       1.634   3.959  18.053  0.00  0.00    +0.000 C 
ATOM     11  H   UNL     1       3.173   5.487  16.535  0.00  0.00    +0.000 HD
ENDROOT
BRANCH   8  12
ATOM     12  O   UNL     1       3.229   2.004  19.662  0.00  0.00    +0.000 OA
ATOM     13  C   UNL     1       3.451   1.307  18.444  0.00  0.00    +0.000 C 
ENDBRANCH   8  12
BRANCH   1  14
ATOM     14  C   UNL     1       4.953   6.497  16.995  0.00  0.00    +0.000 C 
BRANCH  14  17
ATOM     15  C   UNL     1       6.436   4.651  14.364  0.00  0.00    +0.000 A 
ATOM     16  N   UNL     1       5.366   5.029  15.021  0.00  0.00    +0.000 NA
ATOM     17  C   UNL     1       5.856   5.889  15.977  0.00  0.00    +0.000 A 
ATOM     18  N   UNL     1       7.189   6.050  15.949  0.00  0.00    +0.000 NA
ATOM     19  N   UNL     1       7.529   5.260  14.913  0.00  0.00    +0.000 N 
ATOM     20  H   UNL     1       8.503   5.182  14.643  0.00  0.00    +0.000 HD
BRANCH  15  22
ATOM     21  C   UNL     1       5.168   3.653  12.478  0.00  0.00    +0.000 C 
ATOM     22  C   UNL     1       6.503   3.728  13.200  0.00  0.00    +0.000 C 
ENDBRANCH  15  22
ENDBRANCH  14  17
ENDBRANCH   1  14
TORSDOF 4
ENDMDL
MODEL 5
REMARK VINA RESULT:      -7.3      4.373      6.367
REMARK  Name = 
REMARK  6 active torsions:
REMARK  status: ('A' for Active; 'I' for Inactive)
REMARK    1  A    between atoms: C_1  and  C_2
REMARK    2  A    between atoms: C_2  and  C_3
REMARK    3  A    between atoms: C_5  and  C_6
REMARK    4  A    between atoms: C_6  and  N_7
REMARK    5  A    between atoms: C_14  and  O_15
REMARK    6  A    between atoms: O_15  and  C_16
REMARK                            x       y       z     vdW  Elec       q    Type
REMARK                         _______ _______ _______ _____ _____    ______ ____
ROOT
ATOM      1  N   UNL     1       6.362   5.167  14.466  0.00  0.00    +0.000 N 
ATOM      2  C   UNL     1       6.830   5.219  15.749  0.00  0.00    +0.000 C 
ATOM      3  O   UNL     1       7.807   4.553  16.092  0.00  0.00    +0.000 OA
ATOM      4  N   UNL     1       6.147   6.037  16.634  0.00  0.00    +0.000 N 
ATOM      5  C   UNL     1       6.680   6.096  17.987  0.00  0.00    +0.000 C 
ATOM      6  C   UNL     1       6.139   4.948  18.835  0.00  0.00    +0.000 C 
ATOM      7  C   UNL     1       4.757   5.237  19.415  0.00  0.00    +0.000 C 
ATOM      8  C   UNL     1       3.641   5.532  18.399  0.00  0.00    +0.000 C 
ATOM      9  C   UNL     1       3.896   6.796  17.563  0.00  0.00    +0.000 C 
ATOM     10  C   UNL     1       4.858   6.669  16.372  0.00  0.00    +0.000 C 
ATOM     11  H   UNL     1       5.983   6.012  14.067  0.00  0.00    +0.000 HD
ENDROOT
BRANCH   8  12
ATOM     12  O   UNL     1       3.411   4.363  17.615  0.00  0.00    +0.000 OA
ATOM     13  C   UNL     1       2.055   3.939  17.597  0.00  0.00    +0.000 C 
ENDBRANCH   8  12
BRANCH   1  14
ATOM     14  C   UNL     1       7.115   4.325  13.546  0.00  0.00    +0.000 C 
BRANCH  14  17
ATOM     15  C   UNL     1       4.501   3.108  11.491  0.00  0.00    +0.000 A 
ATOM     16  N   UNL     1       4.978   4.030  12.293  0.00  0.00    +0.000 NA
ATOM     17  C   UNL     1       6.245   3.583  12.590  0.00  0.00    +0.000 A 
ATOM     18  N   UNL     1       6.569   2.411  12.017  0.00  0.00    +0.000 NA
ATOM     19  N   UNL     1       5.449   2.139  11.321  0.00  0.00    +0.000 N 
ATOM     20  H   UNL     1       5.400   1.291  10.768  0.00  0.00    +0.000 HD
BRANCH  15  22
ATOM     21  C   UNL     1       3.056   4.142   9.758  0.00  0.00    +0.000 C 
ATOM     22  C   UNL     1       3.165   3.080  10.839  0.00  0.00    +0.000 C 
ENDBRANCH  15  22
ENDBRANCH  14  17
ENDBRANCH   1  14
TORSDOF 4
ENDMDL
MODEL 6
REMARK VINA RESULT:      -7.3      0.642      1.071
REMARK  Name = 
REMARK  6 active torsions:
REMARK  status: ('A' for Active; 'I' for Inactive)
REMARK    1  A    between atoms: C_1  and  C_2
REMARK    2  A    between atoms: C_2  and  C_3
REMARK    3  A    between atoms: C_5  and  C_6
REMARK    4  A    between atoms: C_6  and  N_7
REMARK    5  A    between atoms: C_14  and  O_15
REMARK    6  A    between atoms: O_15  and  C_16
REMARK                            x       y       z     vdW  Elec       q    Type
REMARK                         _______ _______ _______ _____ _____    ______ ____
ROOT
ATOM      1  N   UNL     1       6.057   3.872  17.874  0.00  0.00    +0.000 N 
ATOM      2  C   UNL     1       4.802   3.546  17.443  0.00  0.00    +0.000 C 
ATOM      3  O   UNL     1       4.440   3.808  16.296  0.00  0.00    +0.000 OA
ATOM      4  N   UNL     1       3.966   2.926  18.357  0.00  0.00    +0.000 N 
ATOM      5  C   UNL     1       2.644   2.563  17.868  0.00  0.00    +0.000 C 
ATOM      6  C   UNL     1       1.680   3.741  17.983  0.00  0.00    +0.000 C 
ATOM      7  C   UNL     1       1.076   3.881  19.377  0.00  0.00    +0.000 C 
ATOM      8  C   UNL     1       2.071   4.077  20.533  0.00  0.00    +0.000 C 
ATOM      9  C   UNL     1       3.022   2.886  20.727  0.00  0.00    +0.000 C 
ATOM     10  C   UNL     1       4.233   2.792  19.787  0.00  0.00    +0.000 C 
ATOM     11  H   UNL     1       6.513   3.246  18.519  0.00  0.00    +0.000 HD
ENDROOT
BRANCH   8  12
ATOM     12  O   UNL     1       2.742   5.323  20.359  0.00  0.00    +0.000 OA
ATOM     13  C   UNL     1       1.905   6.458  20.536  0.00  0.00    +0.000 C 
ENDBRANCH   8  12
BRANCH   1  14
ATOM     14  C   UNL     1       6.929   4.495  16.886  0.00  0.00    +0.000 C 
BRANCH  14  17
ATOM     15  C   UNL     1       7.874   7.722  17.992  0.00  0.00    +0.000 A 
ATOM     16  N   UNL     1       8.040   6.421  18.016  0.00  0.00    +0.000 NA
ATOM     17  C   UNL     1       7.114   5.956  17.110  0.00  0.00    +0.000 A 
ATOM     18  N   UNL     1       6.370   6.915  16.535  0.00  0.00    +0.000 NA
ATOM     19  N   UNL     1       6.878   8.023  17.107  0.00  0.00    +0.000 N 
ATOM     20  H   UNL     1       6.503   8.931  16.856  0.00  0.00    +0.000 HD
BRANCH  15  22
ATOM     21  C   UNL     1       8.634  10.083  18.054  0.00  0.00    +0.000 C 
ATOM     22  C   UNL     1       8.625   8.743  18.769  0.00  0.00    +0.000 C 
ENDBRANCH  15  22
ENDBRANCH  14  17
ENDBRANCH   1  14
TORSDOF 4
ENDMDL
MODEL 7
REMARK VINA RESULT:      -7.2      2.853      4.470
REMARK  Name = 
REMARK  6 active torsions:
REMARK  status: ('A' for Active; 'I' for Inactive)
REMARK    1  A    between atoms: C_1  and  C_2
REMARK    2  A    between atoms: C_2  and  C_3
REMARK    3  A    between atoms: C_5  and  C_6
REMARK    4  A    between atoms: C_6  and  N_7
REMARK    5  A    between atoms: C_14  and  O_15
REMARK    6  A    between atoms: O_15  and  C_16
REMARK                            x       y       z     vdW  Elec       q    Type
REMARK                         _______ _______ _______ _____ _____    ______ ____
ROOT
ATOM      1  N   UNL     1       4.743   4.838  17.212  0.00  0.00    +0.000 N 
ATOM      2  C   UNL     1       4.288   5.223  18.442  0.00  0.00    +0.000 C 
ATOM      3  O   UNL     1       5.067   5.633  19.303  0.00  0.00    +0.000 OA
ATOM      4  N   UNL     1       2.926   5.116  18.669  0.00  0.00    +0.000 N 
ATOM      5  C   UNL     1       2.461   5.557  19.976  0.00  0.00    +0.000 C 
ATOM      6  C   UNL     1       2.588   4.437  21.005  0.00  0.00    +0.000 C 
ATOM      7  C   UNL     1       1.417   3.460  20.968  0.00  0.00    +0.000 C 
ATOM      8  C   UNL     1       1.174   2.738  19.632  0.00  0.00    +0.000 C 
ATOM      9  C   UNL     1       0.819   3.691  18.480  0.00  0.00    +0.000 C 
ATOM     10  C   UNL     1       1.979   4.430  17.795  0.00  0.00    +0.000 C 
ATOM     11  H   UNL     1       4.157   5.022  16.412  0.00  0.00    +0.000 HD
ENDROOT
BRANCH   8  12
ATOM     12  O   UNL     1       2.290   1.895  19.354  0.00  0.00    +0.000 OA
ATOM     13  C   UNL     1       2.557   1.730  17.968  0.00  0.00    +0.000 C 
ENDBRANCH   8  12
BRANCH   1  14
ATOM     14  C   UNL     1       6.175   4.989  16.985  0.00  0.00    +0.000 C 
BRANCH  14  17
ATOM     15  C   UNL     1       6.573   4.131  13.574  0.00  0.00    +0.000 A 
ATOM     16  N   UNL     1       5.956   3.969  14.720  0.00  0.00    +0.000 NA
ATOM     17  C   UNL     1       6.551   4.894  15.547  0.00  0.00    +0.000 A 
ATOM     18  N   UNL     1       7.524   5.615  14.964  0.00  0.00    +0.000 NA
ATOM     19  N   UNL     1       7.511   5.115  13.714  0.00  0.00    +0.000 N 
ATOM     20  H   UNL     1       8.157   5.481  13.024  0.00  0.00    +0.000 HD
BRANCH  15  22
ATOM     21  C   UNL     1       4.857   3.450  11.916  0.00  0.00    +0.000 C 
ATOM     22  C   UNL     1       6.325   3.401  12.303  0.00  0.00    +0.000 C 
ENDBRANCH  15  22
ENDBRANCH  14  17
ENDBRANCH   1  14
TORSDOF 4
ENDMDL
MODEL 8
REMARK VINA RESULT:      -7.1      3.018      4.633
REMARK  Name = 
REMARK  6 active torsions:
REMARK  status: ('A' for Active; 'I' for Inactive)
REMARK    1  A    between atoms: C_1  and  C_2
REMARK    2  A    between atoms: C_2  and  C_3
REMARK    3  A    between atoms: C_5  and  C_6
REMARK    4  A    between atoms: C_6  and  N_7
REMARK    5  A    between atoms: C_14  and  O_15
REMARK    6  A    between atoms: O_15  and  C_16
REMARK                            x       y       z     vdW  Elec       q    Type
REMARK                         _______ _______ _______ _____ _____    ______ ____
ROOT
ATOM      1  N   UNL     1       5.041   4.673  16.824  0.00  0.00    +0.000 N 
ATOM      2  C   UNL     1       4.281   5.688  17.334  0.00  0.00    +0.000 C 
ATOM      3  O   UNL     1       4.737   6.826  17.443  0.00  0.00    +0.000 OA
ATOM      4  N   UNL     1       2.993   5.368  17.730  0.00  0.00    +0.000 N 
ATOM      5  C   UNL     1       2.192   6.469  18.246  0.00  0.00    +0.000 C 
ATOM      6  C   UNL     1       2.457   6.684  19.734  0.00  0.00    +0.000 C 
ATOM      7  C   UNL     1       1.650   5.742  20.623  0.00  0.00    +0.000 C 
ATOM      8  C   UNL     1       1.874   4.237  20.400  0.00  0.00    +0.000 C 
ATOM      9  C   UNL     1       1.467   3.762  18.996  0.00  0.00    +0.000 C 
ATOM     10  C   UNL     1       2.461   4.013  17.852  0.00  0.00    +0.000 C 
ATOM     11  H   UNL     1       4.580   3.971  16.266  0.00  0.00    +0.000 HD
ENDROOT
BRANCH   8  12
ATOM     12  O   UNL     1       3.220   3.915  20.745  0.00  0.00    +0.000 OA
ATOM     13  C   UNL     1       3.526   2.531  20.641  0.00  0.00    +0.000 C 
ENDBRANCH   8  12
BRANCH   1  14
ATOM     14  C   UNL     1       6.382   5.040  16.385  0.00  0.00    +0.000 C 
BRANCH  14  17
ATOM     15  C   UNL     1       6.318   3.927  13.025  0.00  0.00    +0.000 A 
ATOM     16  N   UNL     1       5.783   3.951  14.223  0.00  0.00    +0.000 NA
ATOM     17  C   UNL     1       6.607   4.793  14.933  0.00  0.00    +0.000 A 
ATOM     18  N   UNL     1       7.642   5.281  14.229  0.00  0.00    +0.000 NA
ATOM     19  N   UNL     1       7.429   4.722  13.023  0.00  0.00    +0.000 N 
ATOM     20  H   UNL     1       8.069   4.919  12.262  0.00  0.00    +0.000 HD
BRANCH  15  22
ATOM     21  C   UNL     1       4.346   3.416  11.607  0.00  0.00    +0.000 C 
ATOM     22  C   UNL     1       5.831   3.185  11.832  0.00  0.00    +0.000 C 
ENDBRANCH  15  22
ENDBRANCH  14  17
ENDBRANCH   1  14
TORSDOF 4
ENDMDL
MODEL 9
REMARK VINA RESULT:      -7.1      2.532      4.235
REMARK  Name = 
REMARK  6 active torsions:
REMARK  status: ('A' for Active; 'I' for Inactive)
REMARK    1  A    between atoms: C_1  and  C_2
REMARK    2  A    between atoms: C_2  and  C_3
REMARK    3  A    between atoms: C_5  and  C_6
REMARK    4  A    between atoms: C_6  and  N_7
REMARK    5  A    between atoms: C_14  and  O_15
REMARK    6  A    between atoms: O_15  and  C_16
REMARK                            x       y       z     vdW  Elec       q    Type
REMARK                         _______ _______ _______ _____ _____    ______ ____
ROOT
ATOM      1  N   UNL     1       4.298   5.972  17.514  0.00  0.00    +0.000 N 
ATOM      2  C   UNL     1       4.082   5.544  18.794  0.00  0.00    +0.000 C 
ATOM      3  O   UNL     1       4.988   5.565  19.628  0.00  0.00    +0.000 OA
ATOM      4  N   UNL     1       2.813   5.077  19.093  0.00  0.00    +0.000 N 
ATOM      5  C   UNL     1       2.600   4.650  20.469  0.00  0.00    +0.000 C 
ATOM      6  C   UNL     1       3.037   3.201  20.663  0.00  0.00    +0.000 C 
ATOM      7  C   UNL     1       1.972   2.196  20.234  0.00  0.00    +0.000 C 
ATOM      8  C   UNL     1       1.515   2.273  18.768  0.00  0.00    +0.000 C 
ATOM      9  C   UNL     1       0.844   3.608  18.408  0.00  0.00    +0.000 C 
ATOM     10  C   UNL     1       1.765   4.802  18.116  0.00  0.00    +0.000 C 
ATOM     11  H   UNL     1       3.543   6.442  17.039  0.00  0.00    +0.000 HD
ENDROOT
BRANCH   8  12
ATOM     12  O   UNL     1       2.615   1.939  17.924  0.00  0.00    +0.000 OA
ATOM     13  C   UNL     1       3.620   1.167  18.566  0.00  0.00    +0.000 C 
ENDBRANCH   8  12
BRANCH   1  14
ATOM     14  C   UNL     1       5.631   6.489  17.230  0.00  0.00    +0.000 C 
BRANCH  14  17
ATOM     15  C   UNL     1       6.415   4.616  14.330  0.00  0.00    +0.000 A 
ATOM     16  N   UNL     1       5.534   5.029  15.210  0.00  0.00    +0.000 NA
ATOM     17  C   UNL     1       6.259   5.857  16.036  0.00  0.00    +0.000 A 
ATOM     18  N   UNL     1       7.559   5.963  15.713  0.00  0.00    +0.000 NA
ATOM     19  N   UNL     1       7.627   5.174  14.625  0.00  0.00    +0.000 N 
ATOM     20  H   UNL     1       8.513   5.059  14.146  0.00  0.00    +0.000 HD
BRANCH  15  22
ATOM     21  C   UNL     1       7.092   4.050  12.011  0.00  0.00    +0.000 C 
ATOM     22  C   UNL     1       6.183   3.705  13.179  0.00  0.00    +0.000 C 
ENDBRANCH  15  22
ENDBRANCH  14  17
ENDBRANCH   1  14
TORSDOF 4
ENDMDL
