MODEL 1
REMARK VINA RESULT:      -8.2      0.000      0.000
REMARK  Name = 
REMARK  15 active torsions:
REMARK  status: ('A' for Active; 'I' for Inactive)
REMARK    1  A    between atoms: C_1  and  N_2
REMARK    2  A    between atoms: N_2  and  C_3
REMARK    3  A    between atoms: N_2  and  C_4
REMARK    4  A    between atoms: C_7  and  C_8
REMARK    5  A    between atoms: N_10  and  C_11
REMARK    6  A    between atoms: C_11  and  C_12
REMARK    7  A    between atoms: C_11  and  C_21
REMARK    8  A    between atoms: C_12  and  C_13
REMARK    9  A    between atoms: C_13  and  C_14
REMARK   10  A    between atoms: C_14  and  C_15
REMARK   11  A    between atoms: C_15  and  C_16
REMARK   12  A    between atoms: C_16  and  C_17
REMARK   13  A    between atoms: N_19  and  O_20
REMARK   14  A    between atoms: N_23  and  C_24
REMARK   15  A    between atoms: C_24  and  C_25
REMARK                            x       y       z     vdW  Elec       q    Type
REMARK                         _______ _______ _______ _____ _____    ______ ____
ROOT
ATOM      1  C   UNL     1       5.573   5.996  17.419  0.00  0.00    +0.000 C 
ENDROOT
BRANCH   1   4
ATOM      2  C   UNL     1       3.280   6.858  17.926  0.00  0.00    +0.000 C 
ATOM      3  O   UNL     1       2.744   5.811  17.612  0.00  0.00    +0.000 OA
ATOM      4  N   UNL     1       4.651   7.033  17.900  0.00  0.00    +0.000 N 
ATOM      5  H   UNL     1       5.047   7.922  18.144  0.00  0.00    +0.000 HD
BRANCH   2   9
ATOM      6  C   UNL     1       0.904  10.123  19.552  0.00  0.00    +0.000 A 
ATOM      7  C   UNL     1       1.224   8.979  20.297  0.00  0.00    +0.000 A 
ATOM      8  C   UNL     1       1.984   7.928  19.755  0.00  0.00    +0.000 A 
ATOM      9  C   UNL     1       2.460   7.998  18.443  0.00  0.00    +0.000 A 
ATOM     10  C   UNL     1       2.142   9.114  17.675  0.00  0.00    +0.000 A 
ATOM     11  C   UNL     1       1.369  10.151  18.226  0.00  0.00    +0.000 A 
BRANCH   6  13
ATOM     12  C   UNL     1      -0.491  11.023  21.392  0.00  0.00    +0.000 C 
ATOM     13  N   UNL     1       0.177  11.172  20.104  0.00  0.00    +0.000 N 
ATOM     14  C   UNL     1      -0.020  12.410  19.363  0.00  0.00    +0.000 C 
ENDBRANCH   6  13
ENDBRANCH   2   9
ENDBRANCH   1   4
BRANCH   1  15
ATOM     15  C   UNL     1       5.365   4.672  18.196  0.00  0.00    +0.000 C 
ATOM     16  O   UNL     1       5.896   4.474  19.293  0.00  0.00    +0.000 OA
ATOM     17  N   UNL     1       4.494   3.771  17.625  0.00  0.00    +0.000 N 
ATOM     18  H   UNL     1       4.334   3.802  16.628  0.00  0.00    +0.000 HD
BRANCH  17  19
ATOM     19  C   UNL     1       4.204   2.502  18.276  0.00  0.00    +0.000 C 
BRANCH  19  20
ATOM     20  C   UNL     1       3.136   2.620  19.339  0.00  0.00    +0.000 A 
ATOM     21  C   UNL     1       3.479   2.529  20.688  0.00  0.00    +0.000 A 
ATOM     22  C   UNL     1       2.472   2.593  21.649  0.00  0.00    +0.000 A 
ATOM     23  C   UNL     1       1.153   2.741  21.242  0.00  0.00    +0.000 A 
ATOM     24  C   UNL     1       0.896   2.832  19.885  0.00  0.00    +0.000 A 
ATOM     25  N   UNL     1       1.851   2.772  18.926  0.00  0.00    +0.000 NA
ENDBRANCH  19  20
ENDBRANCH  17  19
ENDBRANCH   1  15
BRANCH   1  26
ATOM     26  C   UNL     1       7.040   6.455  17.551  0.00  0.00    +0.000 C 
BRANCH  26  27
ATOM     27  C   UNL     1       7.179   7.986  17.518  0.00  0.00    +0.000 C 
BRANCH  27  28
ATOM     28  C   UNL     1       8.414   8.519  18.244  0.00  0.00    +0.000 C 
BRANCH  28  29
ATOM     29  C   UNL     1       8.474  10.040  18.152  0.00  0.00    +0.000 C 
BRANCH  29  30
ATOM     30  C   UNL     1       9.724  10.603  18.792  0.00  0.00    +0.000 C 
BRANCH  30  31
ATOM     31  C   UNL     1      10.344  11.680  17.915  0.00  0.00    +0.000 C 
ATOM     32  O   UNL     1       9.730  12.624  17.421  0.00  0.00    +0.000 OA
ATOM     33  N   UNL     1      11.684  11.486  17.696  0.00  0.00    +0.000 N 
ATOM     34  H   UNL     1      12.267  10.874  18.249  0.00  0.00    +0.000 HD
BRANCH  33  35
ATOM     35  O   UNL     1      12.332  12.471  16.917  0.00  0.00    +0.000 OA
ATOM     36  H   UNL     1      12.319  13.252  17.514  0.00  0.00    +0.000 HD
ENDBRANCH  33  35
ENDBRANCH  30  31
ENDBRANCH  29  30
ENDBRANCH  28  29
ENDBRANCH  27  28
ENDBRANCH  26  27
ENDBRANCH   1  26
TORSDOF 13
ENDMDL
MODEL 2
REMARK VINA RESULT:      -8.0      3.429      7.115
REMARK  Name = 
REMARK  15 active torsions:
REMARK  status: ('A' for Active; 'I' for Inactive)
REMARK    1  A    between atoms: C_1  and  N_2
REMARK    2  A    between atoms: N_2  and  C_3
REMARK    3  A    between atoms: N_2  and  C_4
REMARK    4  A    between atoms: C_7  and  C_8
REMARK    5  A    between atoms: N_10  and  C_11
REMARK    6  A    between atoms: C_11  and  C_12
REMARK    7  A    between atoms: C_11  and  C_21
REMARK    8  A    between atoms: C_12  and  C_13
REMARK    9  A    between atoms: C_13  and  C_14
REMARK   10  A    between atoms: C_14  and  C_15
REMARK   11  A    between atoms: C_15  and  C_16
REMARK   12  A    between atoms: C_16  and  C_17
REMARK   13  A    between atoms: N_19  and  O_20
REMARK   14  A    between atoms: N_23  and  C_24
REMARK   15  A    between atoms: C_24  and  C_25
REMARK                            x       y       z     vdW  Elec       q    Type
REMARK                         _______ _______ _______ _____ _____    ______ ____
ROOT
ATOM      1  C   UNL     1       4.663   4.886  19.158  0.00  0.00    +0.000 C 
ENDROOT
BRANCH   1   4
ATOM      2  C   UNL     1       3.077   6.715  18.529  0.00  0.00    +0.000 C 
ATOM      3  O   UNL     1       3.001   6.343  17.372  0.00  0.00    +0.000 OA
ATOM      4  N   UNL     1       3.830   6.052  19.479  0.00  0.00    +0.000 N 
ATOM      5  H   UNL     1       3.882   6.409  20.416  0.00  0.00    +0.000 HD
BRANCH   2   9
ATOM      6  C   UNL     1       0.734  10.170  19.762  0.00  0.00    +0.000 A 
ATOM      7  C   UNL     1       1.285  10.051  18.478  0.00  0.00    +0.000 A 
ATOM      8  C   UNL     1       2.047   8.934  18.097  0.00  0.00    +0.000 A 
ATOM      9  C   UNL     1       2.273   7.887  18.996  0.00  0.00    +0.000 A 
ATOM     10  C   UNL     1       1.753   7.987  20.283  0.00  0.00    +0.000 A 
ATOM     11  C   UNL     1       1.004   9.118  20.654  0.00  0.00    +0.000 A 
BRANCH   6  13
ATOM     12  C   UNL     1      -0.072  11.744  21.499  0.00  0.00    +0.000 C 
ATOM     13  N   UNL     1      -0.045  11.264  20.122  0.00  0.00    +0.000 N 
ATOM     14  C   UNL     1      -0.932  11.894  19.154  0.00  0.00    +0.000 C 
ENDBRANCH   6  13
ENDBRANCH   2   9
ENDBRANCH   1   4
BRANCH   1  15
ATOM     15  C   UNL     1       5.944   5.318  18.401  0.00  0.00    +0.000 C 
ATOM     16  O   UNL     1       6.955   5.697  19.002  0.00  0.00    +0.000 OA
ATOM     17  N   UNL     1       5.910   5.176  17.032  0.00  0.00    +0.000 N 
ATOM     18  H   UNL     1       5.018   5.179  16.557  0.00  0.00    +0.000 HD
BRANCH  17  19
ATOM     19  C   UNL     1       7.064   5.529  16.218  0.00  0.00    +0.000 C 
BRANCH  19  20
ATOM     20  C   UNL     1       6.957   5.021  14.798  0.00  0.00    +0.000 A 
ATOM     21  C   UNL     1       6.010   4.050  14.472  0.00  0.00    +0.000 A 
ATOM     22  C   UNL     1       5.962   3.564  13.168  0.00  0.00    +0.000 A 
ATOM     23  C   UNL     1       6.857   4.052  12.226  0.00  0.00    +0.000 A 
ATOM     24  C   UNL     1       7.760   5.022  12.627  0.00  0.00    +0.000 A 
ATOM     25  N   UNL     1       7.835   5.515  13.886  0.00  0.00    +0.000 NA
ENDBRANCH  19  20
ENDBRANCH  17  19
ENDBRANCH   1  15
BRANCH   1  26
ATOM     26  C   UNL     1       3.879   3.860  18.313  0.00  0.00    +0.000 C 
BRANCH  26  27
ATOM     27  C   UNL     1       4.166   2.411  18.738  0.00  0.00    +0.000 C 
BRANCH  27  28
ATOM     28  C   UNL     1       2.914   1.579  19.013  0.00  0.00    +0.000 C 
BRANCH  28  29
ATOM     29  C   UNL     1       1.664   2.322  18.553  0.00  0.00    +0.000 C 
BRANCH  29  30
ATOM     30  C   UNL     1       0.654   2.489  19.667  0.00  0.00    +0.000 C 
BRANCH  30  31
ATOM     31  C   UNL     1       1.312   3.064  20.913  0.00  0.00    +0.000 C 
ATOM     32  O   UNL     1       1.530   2.435  21.947  0.00  0.00    +0.000 OA
ATOM     33  N   UNL     1       1.625   4.393  20.787  0.00  0.00    +0.000 N 
ATOM     34  H   UNL     1       1.675   4.884  19.905  0.00  0.00    +0.000 HD
BRANCH  33  35
ATOM     35  O   UNL     1       2.271   4.984  21.896  0.00  0.00    +0.000 OA
ATOM     36  H   UNL     1       1.564   5.557  22.269  0.00  0.00    +0.000 HD
ENDBRANCH  33  35
ENDBRANCH  30  31
ENDBRANCH  29  30
ENDBRANCH  28  29
ENDBRANCH  27  28
ENDBRANCH  26  27
ENDBRANCH   1  26
TORSDOF 13
ENDMDL
MODEL 3
REMARK VINA RESULT:      -7.9      3.685      7.119
REMARK  Name = 
REMARK  15 active torsions:
REMARK  status: ('A' for Active; 'I' for Inactive)
REMARK    1  A    between atoms: C_1  and  N_2
REMARK    2  A    between atoms: N_2  and  C_3
REMARK    3  A    between atoms: N_2  and  C_4
REMARK    4  A    between atoms: C_7  and  C_8
REMARK    5  A    between atoms: N_10  and  C_11
REMARK    6  A    between atoms: C_11  and  C_12
REMARK    7  A    between atoms: C_11  and  C_21
REMARK    8  A    between atoms: C_12  and  C_13
REMARK    9  A    between atoms: C_13  and  C_14
REMARK   10  A    between atoms: C_14  and  C_15
REMARK   11  A    between atoms: C_15  and  C_16
REMARK   12  A    between atoms: C_16  and  C_17
REMARK   13  A    between atoms: N_19  and  O_20
REMARK   14  A    between atoms: N_23  and  C_24
REMARK   15  A    between atoms: C_24  and  C_25
REMARK                            x       y       z     vdW  Elec       q    Type
REMARK                         _______ _______ _______ _____ _____    ______ ____
ROOT
ATOM      1  C   UNL     1       6.441   6.758  16.872  0.00  0.00    +0.000 C 
ENDROOT
BRANCH   1   4
ATOM      2  C   UNL     1       7.999   8.234  18.158  0.00  0.00    +0.000 C 
ATOM      3  O   UNL     1       8.427   7.311  18.827  0.00  0.00    +0.000 OA
ATOM      4  N   UNL     1       7.059   8.059  17.160  0.00  0.00    +0.000 N 
ATOM      5  H   UNL     1       6.716   8.853  16.650  0.00  0.00    +0.000 HD
BRANCH   2   9
ATOM      6  C   UNL     1       9.677  12.201  18.782  0.00  0.00    +0.000 A 
ATOM      7  C   UNL     1       9.988  11.112  19.609  0.00  0.00    +0.000 A 
ATOM      8  C   UNL     1       9.431   9.839  19.400  0.00  0.00    +0.000 A 
ATOM      9  C   UNL     1       8.546   9.614  18.341  0.00  0.00    +0.000 A 
ATOM     10  C   UNL     1       8.206  10.681  17.517  0.00  0.00    +0.000 A 
ATOM     11  C   UNL     1       8.761  11.953  17.745  0.00  0.00    +0.000 A 
BRANCH   6  13
ATOM     12  C   UNL     1      10.593  13.920  20.314  0.00  0.00    +0.000 C 
ATOM     13  N   UNL     1      10.256  13.451  18.975  0.00  0.00    +0.000 N 
ATOM     14  C   UNL     1      10.446  14.362  17.856  0.00  0.00    +0.000 C 
ENDBRANCH   6  13
ENDBRANCH   2   9
ENDBRANCH   1   4
BRANCH   1  15
ATOM     15  C   UNL     1       5.101   6.605  17.633  0.00  0.00    +0.000 C 
ATOM     16  O   UNL     1       4.069   7.161  17.245  0.00  0.00    +0.000 OA
ATOM     17  N   UNL     1       5.118   5.752  18.713  0.00  0.00    +0.000 N 
ATOM     18  H   UNL     1       5.992   5.573  19.189  0.00  0.00    +0.000 HD
BRANCH  17  19
ATOM     19  C   UNL     1       3.912   5.512  19.491  0.00  0.00    +0.000 C 
BRANCH  19  20
ATOM     20  C   UNL     1       3.185   4.254  19.073  0.00  0.00    +0.000 A 
ATOM     21  C   UNL     1       1.793   4.248  18.979  0.00  0.00    +0.000 A 
ATOM     22  C   UNL     1       1.142   3.066  18.638  0.00  0.00    +0.000 A 
ATOM     23  C   UNL     1       1.892   1.921  18.404  0.00  0.00    +0.000 A 
ATOM     24  C   UNL     1       3.270   2.011  18.509  0.00  0.00    +0.000 A 
ATOM     25  N   UNL     1       3.933   3.144  18.840  0.00  0.00    +0.000 NA
ENDBRANCH  19  20
ENDBRANCH  17  19
ENDBRANCH   1  15
BRANCH   1  26
ATOM     26  C   UNL     1       7.390   5.600  17.246  0.00  0.00    +0.000 C 
BRANCH  26  27
ATOM     27  C   UNL     1       7.316   4.436  16.244  0.00  0.00    +0.000 C 
BRANCH  27  28
ATOM     28  C   UNL     1       6.750   4.821  14.877  0.00  0.00    +0.000 C 
BRANCH  28  29
ATOM     29  C   UNL     1       5.576   3.919  14.510  0.00  0.00    +0.000 C 
BRANCH  29  30
ATOM     30  C   UNL     1       5.233   3.996  13.039  0.00  0.00    +0.000 C 
BRANCH  30  31
ATOM     31  C   UNL     1       6.362   3.434  12.189  0.00  0.00    +0.000 C 
ATOM     32  O   UNL     1       7.301   4.091  11.742  0.00  0.00    +0.000 OA
ATOM     33  N   UNL     1       6.224   2.094  11.934  0.00  0.00    +0.000 N 
ATOM     34  H   UNL     1       5.613   1.477  12.451  0.00  0.00    +0.000 HD
BRANCH  33  35
ATOM     35  O   UNL     1       7.258   1.498  11.178  0.00  0.00    +0.000 OA
ATOM     36  H   UNL     1       6.841   0.658  10.880  0.00  0.00    +0.000 HD
ENDBRANCH  33  35
ENDBRANCH  30  31
ENDBRANCH  29  30
ENDBRANCH  28  29
ENDBRANCH  27  28
ENDBRANCH  26  27
ENDBRANCH   1  26
TORSDOF 13
ENDMDL
MODEL 4
REMARK VINA RESULT:      -7.9      0.847      1.255
REMARK  Name = 
REMARK  15 active torsions:
REMARK  status: ('A' for Active; 'I' for Inactive)
REMARK    1  A    between atoms: C_1  and  N_2
REMARK    2  A    between atoms: N_2  and  C_3
REMARK    3  A    between atoms: N_2  and  C_4
REMARK    4  A    between atoms: C_7  and  C_8
REMARK    5  A    between atoms: N_10  and  C_11
REMARK    6  A    between atoms: C_11  and  C_12
REMARK    7  A    between atoms: C_11  and  C_21
REMARK    8  A    between atoms: C_12  and  C_13
REMARK    9  A    between atoms: C_13  and  C_14
REMARK   10  A    between atoms: C_14  and  C_15
REMARK   11  A    between atoms: C_15  and  C_16
REMARK   12  A    between atoms: C_16  and  C_17
REMARK   13  A    between atoms: N_19  and  O_20
REMARK   14  A    between atoms: N_23  and  C_24
REMARK   15  A    between atoms: C_24  and  C_25
REMARK                            x       y       z     vdW  Elec       q    Type
REMARK                         _______ _______ _______ _____ _____    ______ ____
ROOT
ATOM      1  C   UNL     1       5.422   5.743  17.297  0.00  0.00    +0.000 C 
ENDROOT
BRANCH   1   4
ATOM      2  C   UNL     1       3.177   6.634  17.949  0.00  0.00    +0.000 C 
ATOM      3  O   UNL     1       2.631   5.556  17.795  0.00  0.00    +0.000 OA
ATOM      4  N   UNL     1       4.535   6.815  17.766  0.00  0.00    +0.000 N 
ATOM      5  H   UNL     1       4.938   7.728  17.879  0.00  0.00    +0.000 HD
BRANCH   2   9
ATOM      6  C   UNL     1       0.912  10.021  19.479  0.00  0.00    +0.000 A 
ATOM      7  C   UNL     1       1.262   8.924  20.279  0.00  0.00    +0.000 A 
ATOM      8  C   UNL     1       1.986   7.833  19.768  0.00  0.00    +0.000 A 
ATOM      9  C   UNL     1       2.394   7.813  18.431  0.00  0.00    +0.000 A 
ATOM     10  C   UNL     1       2.044   8.880  17.610  0.00  0.00    +0.000 A 
ATOM     11  C   UNL     1       1.307   9.959  18.131  0.00  0.00    +0.000 A 
BRANCH   6  13
ATOM     12  C   UNL     1      -0.131  12.245  19.153  0.00  0.00    +0.000 C 
ATOM     13  N   UNL     1       0.222  11.111  19.998  0.00  0.00    +0.000 N 
ATOM     14  C   UNL     1      -0.074  11.192  21.422  0.00  0.00    +0.000 C 
ENDBRANCH   6  13
ENDBRANCH   2   9
ENDBRANCH   1   4
BRANCH   1  15
ATOM     15  C   UNL     1       5.315   4.500  18.215  0.00  0.00    +0.000 C 
ATOM     16  O   UNL     1       5.873   4.458  19.316  0.00  0.00    +0.000 OA
ATOM     17  N   UNL     1       4.499   3.487  17.763  0.00  0.00    +0.000 N 
ATOM     18  H   UNL     1       4.324   3.399  16.772  0.00  0.00    +0.000 HD
BRANCH  17  19
ATOM     19  C   UNL     1       4.304   2.280  18.552  0.00  0.00    +0.000 C 
BRANCH  19  20
ATOM     20  C   UNL     1       3.179   2.410  19.554  0.00  0.00    +0.000 A 
ATOM     21  C   UNL     1       1.862   2.540  19.114  0.00  0.00    +0.000 A 
ATOM     22  C   UNL     1       0.847   2.705  20.053  0.00  0.00    +0.000 A 
ATOM     23  C   UNL     1       1.170   2.741  21.403  0.00  0.00    +0.000 A 
ATOM     24  C   UNL     1       2.500   2.596  21.759  0.00  0.00    +0.000 A 
ATOM     25  N   UNL     1       3.510   2.435  20.871  0.00  0.00    +0.000 NA
ENDBRANCH  19  20
ENDBRANCH  17  19
ENDBRANCH   1  15
BRANCH   1  26
ATOM     26  C   UNL     1       6.887   6.223  17.236  0.00  0.00    +0.000 C 
BRANCH  26  27
ATOM     27  C   UNL     1       7.026   7.719  17.562  0.00  0.00    +0.000 C 
BRANCH  27  28
ATOM     28  C   UNL     1       8.354   8.096  18.220  0.00  0.00    +0.000 C 
BRANCH  28  29
ATOM     29  C   UNL     1       8.583   9.602  18.137  0.00  0.00    +0.000 C 
BRANCH  29  30
ATOM     30  C   UNL     1       9.092  10.176  19.441  0.00  0.00    +0.000 C 
BRANCH  30  31
ATOM     31  C   UNL     1       9.623  11.587  19.242  0.00  0.00    +0.000 C 
ATOM     32  O   UNL     1       8.993  12.616  19.478  0.00  0.00    +0.000 OA
ATOM     33  N   UNL     1      10.897  11.612  18.733  0.00  0.00    +0.000 N 
ATOM     34  H   UNL     1      11.526  10.821  18.736  0.00  0.00    +0.000 HD
BRANCH  33  35
ATOM     35  O   UNL     1      11.467  12.892  18.555  0.00  0.00    +0.000 OA
ATOM     36  H   UNL     1      10.912  13.452  19.143  0.00  0.00    +0.000 HD
ENDBRANCH  33  35
ENDBRANCH  30  31
ENDBRANCH  29  30
ENDBRANCH  28  29
ENDBRANCH  27  28
ENDBRANCH  26  27
ENDBRANCH   1  26
TORSDOF 13
ENDMDL
MODEL 5
REMARK VINA RESULT:      -7.8      3.657      5.505
REMARK  Name = 
REMARK  15 active torsions:
REMARK  status: ('A' for Active; 'I' for Inactive)
REMARK    1  A    between atoms: C_1  and  N_2
REMARK    2  A    between atoms: N_2  and  C_3
REMARK    3  A    between atoms: N_2  and  C_4
REMARK    4  A    between atoms: C_7  and  C_8
REMARK    5  A    between atoms: N_10  and  C_11
REMARK    6  A    between atoms: C_11  and  C_12
REMARK    7  A    between atoms: C_11  and  C_21
REMARK    8  A    between atoms: C_12  and  C_13
REMARK    9  A    between atoms: C_13  and  C_14
REMARK   10  A    between atoms: C_14  and  C_15
REMARK   11  A    between atoms: C_15  and  C_16
REMARK   12  A    between atoms: C_16  and  C_17
REMARK   13  A    between atoms: N_19  and  O_20
REMARK   14  A    between atoms: N_23  and  C_24
REMARK   15  A    between atoms: C_24  and  C_25
REMARK                            x       y       z     vdW  Elec       q    Type
REMARK                         _______ _______ _______ _____ _____    ______ ____
ROOT
ATOM      1  C   UNL     1       4.815   5.677  16.719  0.00  0.00    +0.000 C 
ENDROOT
BRANCH   1   4
ATOM      2  C   UNL     1       2.860   6.711  17.888  0.00  0.00    +0.000 C 
ATOM      3  O   UNL     1       2.267   5.652  17.975  0.00  0.00    +0.000 OA
ATOM      4  N   UNL     1       4.118   6.818  17.326  0.00  0.00    +0.000 N 
ATOM      5  H   UNL     1       4.559   7.717  17.252  0.00  0.00    +0.000 HD
BRANCH   2   9
ATOM      6  C   UNL     1       1.146  10.388  19.465  0.00  0.00    +0.000 A 
ATOM      7  C   UNL     1       1.686  10.301  18.173  0.00  0.00    +0.000 A 
ATOM      8  C   UNL     1       2.244   9.108  17.681  0.00  0.00    +0.000 A 
ATOM      9  C   UNL     1       2.269   7.955  18.471  0.00  0.00    +0.000 A 
ATOM     10  C   UNL     1       1.757   8.019  19.763  0.00  0.00    +0.000 A 
ATOM     11  C   UNL     1       1.213   9.223  20.247  0.00  0.00    +0.000 A 
BRANCH   6  13
ATOM     12  C   UNL     1      -0.852  11.617  20.266  0.00  0.00    +0.000 C 
ATOM     13  N   UNL     1       0.567  11.562  19.934  0.00  0.00    +0.000 N 
ATOM     14  C   UNL     1       1.341  12.793  20.007  0.00  0.00    +0.000 C 
ENDBRANCH   6  13
ENDBRANCH   2   9
ENDBRANCH   1   4
BRANCH   1  15
ATOM     15  C   UNL     1       4.775   4.445  17.658  0.00  0.00    +0.000 C 
ATOM     16  O   UNL     1       5.396   4.424  18.725  0.00  0.00    +0.000 OA
ATOM     17  N   UNL     1       3.946   3.418  17.266  0.00  0.00    +0.000 N 
ATOM     18  H   UNL     1       3.716   3.314  16.287  0.00  0.00    +0.000 HD
BRANCH  17  19
ATOM     19  C   UNL     1       3.811   2.219  18.080  0.00  0.00    +0.000 C 
BRANCH  19  20
ATOM     20  C   UNL     1       2.918   2.425  19.282  0.00  0.00    +0.000 A 
ATOM     21  C   UNL     1       3.462   2.427  20.567  0.00  0.00    +0.000 A 
ATOM     22  C   UNL     1       2.614   2.571  21.661  0.00  0.00    +0.000 A 
ATOM     23  C   UNL     1       1.248   2.705  21.450  0.00  0.00    +0.000 A 
ATOM     24  C   UNL     1       0.787   2.702  20.144  0.00  0.00    +0.000 A 
ATOM     25  N   UNL     1       1.585   2.562  19.059  0.00  0.00    +0.000 NA
ENDBRANCH  19  20
ENDBRANCH  17  19
ENDBRANCH   1  15
BRANCH   1  26
ATOM     26  C   UNL     1       6.279   6.034  16.387  0.00  0.00    +0.000 C 
BRANCH  26  27
ATOM     27  C   UNL     1       6.879   5.108  15.317  0.00  0.00    +0.000 C 
BRANCH  27  28
ATOM     28  C   UNL     1       6.004   4.931  14.077  0.00  0.00    +0.000 C 
BRANCH  28  29
ATOM     29  C   UNL     1       6.145   3.520  13.518  0.00  0.00    +0.000 C 
BRANCH  29  30
ATOM     30  C   UNL     1       6.151   3.501  12.005  0.00  0.00    +0.000 C 
BRANCH  30  31
ATOM     31  C   UNL     1       6.716   2.189  11.482  0.00  0.00    +0.000 C 
ATOM     32  O   UNL     1       7.820   2.057  10.959  0.00  0.00    +0.000 OA
ATOM     33  N   UNL     1       5.847   1.138  11.626  0.00  0.00    +0.000 N 
ATOM     34  H   UNL     1       5.043   1.144  12.238  0.00  0.00    +0.000 HD
BRANCH  33  35
ATOM     35  O   UNL     1       6.321  -0.121  11.192  0.00  0.00    +0.000 OA
ATOM     36  H   UNL     1       6.648   0.080  10.287  0.00  0.00    +0.000 HD
ENDBRANCH  33  35
ENDBRANCH  30  31
ENDBRANCH  29  30
ENDBRANCH  28  29
ENDBRANCH  27  28
ENDBRANCH  26  27
ENDBRANCH   1  26
TORSDOF 13
ENDMDL
MODEL 6
REMARK VINA RESULT:      -7.8      3.389      7.323
REMARK  Name = 
REMARK  15 active torsions:
REMARK  status: ('A' for Active; 'I' for Inactive)
REMARK    1  A    between atoms: C_1  and  N_2
REMARK    2  A    between atoms: N_2  and  C_3
REMARK    3  A    between atoms: N_2  and  C_4
REMARK    4  A    between atoms: C_7  and  C_8
REMARK    5  A    between atoms: N_10  and  C_11
REMARK    6  A    between atoms: C_11  and  C_12
REMARK    7  A    between atoms: C_11  and  C_21
REMARK    8  A    between atoms: C_12  and  C_13
REMARK    9  A    between atoms: C_13  and  C_14
REMARK   10  A    between atoms: C_14  and  C_15
REMARK   11  A    between atoms: C_15  and  C_16
REMARK   12  A    between atoms: C_16  and  C_17
REMARK   13  A    between atoms: N_19  and  O_20
REMARK   14  A    between atoms: N_23  and  C_24
REMARK   15  A    between atoms: C_24  and  C_25
REMARK                            x       y       z     vdW  Elec       q    Type
REMARK                         _______ _______ _______ _____ _____    ______ ____
ROOT
ATOM      1  C   UNL     1       6.115   6.528  16.995  0.00  0.00    +0.000 C 
ENDROOT
BRANCH   1   4
ATOM      2  C   UNL     1       7.825   7.976  18.106  0.00  0.00    +0.000 C 
ATOM      3  O   UNL     1       8.354   7.035  18.669  0.00  0.00    +0.000 OA
ATOM      4  N   UNL     1       6.755   7.826  17.246  0.00  0.00    +0.000 N 
ATOM      5  H   UNL     1       6.335   8.633  16.822  0.00  0.00    +0.000 HD
BRANCH   2   9
ATOM      6  C   UNL     1       9.528  11.944  18.657  0.00  0.00    +0.000 A 
ATOM      7  C   UNL     1       9.882  10.852  19.463  0.00  0.00    +0.000 A 
ATOM      8  C   UNL     1       9.316   9.579  19.279  0.00  0.00    +0.000 A 
ATOM      9  C   UNL     1       8.379   9.356  18.266  0.00  0.00    +0.000 A 
ATOM     10  C   UNL     1       7.996  10.426  17.463  0.00  0.00    +0.000 A 
ATOM     11  C   UNL     1       8.561  11.698  17.668  0.00  0.00    +0.000 A 
BRANCH   6  13
ATOM     12  C   UNL     1       9.963  14.233  17.813  0.00  0.00    +0.000 C 
ATOM     13  N   UNL     1      10.114  13.194  18.825  0.00  0.00    +0.000 N 
ATOM     14  C   UNL     1      10.978  13.461  19.966  0.00  0.00    +0.000 C 
ENDBRANCH   6  13
ENDBRANCH   2   9
ENDBRANCH   1   4
BRANCH   1  15
ATOM     15  C   UNL     1       5.146   6.161  18.147  0.00  0.00    +0.000 C 
ATOM     16  O   UNL     1       5.514   5.491  19.116  0.00  0.00    +0.000 OA
ATOM     17  N   UNL     1       3.879   6.695  18.058  0.00  0.00    +0.000 N 
ATOM     18  H   UNL     1       3.513   6.951  17.152  0.00  0.00    +0.000 HD
BRANCH  17  19
ATOM     19  C   UNL     1       2.889   6.438  19.093  0.00  0.00    +0.000 C 
BRANCH  19  20
ATOM     20  C   UNL     1       2.236   5.081  18.956  0.00  0.00    +0.000 A 
ATOM     21  C   UNL     1       1.594   4.499  20.049  0.00  0.00    +0.000 A 
ATOM     22  C   UNL     1       1.041   3.229  19.912  0.00  0.00    +0.000 A 
ATOM     23  C   UNL     1       1.144   2.570  18.694  0.00  0.00    +0.000 A 
ATOM     24  C   UNL     1       1.789   3.219  17.655  0.00  0.00    +0.000 A 
ATOM     25  N   UNL     1       2.339   4.453  17.756  0.00  0.00    +0.000 NA
ENDBRANCH  19  20
ENDBRANCH  17  19
ENDBRANCH   1  15
BRANCH   1  26
ATOM     26  C   UNL     1       7.170   5.414  16.826  0.00  0.00    +0.000 C 
BRANCH  26  27
ATOM     27  C   UNL     1       7.267   4.915  15.375  0.00  0.00    +0.000 C 
BRANCH  27  28
ATOM     28  C   UNL     1       6.322   3.760  15.045  0.00  0.00    +0.000 C 
BRANCH  28  29
ATOM     29  C   UNL     1       5.498   4.081  13.803  0.00  0.00    +0.000 C 
BRANCH  29  30
ATOM     30  C   UNL     1       6.291   3.899  12.527  0.00  0.00    +0.000 C 
BRANCH  30  31
ATOM     31  C   UNL     1       5.822   2.667  11.769  0.00  0.00    +0.000 C 
ATOM     32  O   UNL     1       4.677   2.486  11.359  0.00  0.00    +0.000 OA
ATOM     33  N   UNL     1       6.813   1.734  11.600  0.00  0.00    +0.000 N 
ATOM     34  H   UNL     1       7.800   1.926  11.712  0.00  0.00    +0.000 HD
BRANCH  33  35
ATOM     35  O   UNL     1       6.457   0.577  10.872  0.00  0.00    +0.000 OA
ATOM     36  H   UNL     1       6.113   0.956  10.032  0.00  0.00    +0.000 HD
ENDBRANCH  33  35
ENDBRANCH  30  31
ENDBRANCH  29  30
ENDBRANCH  28  29
ENDBRANCH  27  28
ENDBRANCH  26  27
ENDBRANCH   1  26
TORSDOF 13
ENDMDL
MODEL 7
REMARK VINA RESULT:      -7.7      3.544      7.041
REMARK  Name = 
REMARK  15 active torsions:
REMARK  status: ('A' for Active; 'I' for Inactive)
REMARK    1  A    between atoms: C_1  and  N_2
REMARK    2  A    between atoms: N_2  and  C_3
REMARK    3  A    between atoms: N_2  and  C_4
REMARK    4  A    between atoms: C_7  and  C_8
REMARK    5  A    between atoms: N_10  and  C_11
REMARK    6  A    between atoms: C_11  and  C_12
REMARK    7  A    between atoms: C_11  and  C_21
REMARK    8  A    between atoms: C_12  and  C_13
REMARK    9  A    between atoms: C_13  and  C_14
REMARK   10  A    between atoms: C_14  and  C_15
REMARK   11  A    between atoms: C_15  and  C_16
REMARK   12  A    between atoms: C_16  and  C_17
REMARK   13  A    between atoms: N_19  and  O_20
REMARK   14  A    between atoms: N_23  and  C_24
REMARK   15  A    between atoms: C_24  and  C_25
REMARK                            x       y       z     vdW  Elec       q    Type
REMARK                         _______ _______ _______ _____ _____    ______ ____
ROOT
ATOM      1  C   UNL     1       4.702   4.649  19.002  0.00  0.00    +0.000 C 
ENDROOT
BRANCH   1   4
ATOM      2  C   UNL     1       2.879   6.286  18.498  0.00  0.00    +0.000 C 
ATOM      3  O   UNL     1       2.424   5.604  17.598  0.00  0.00    +0.000 OA
ATOM      4  N   UNL     1       3.961   5.891  19.261  0.00  0.00    +0.000 N 
ATOM      5  H   UNL     1       4.318   6.498  19.977  0.00  0.00    +0.000 HD
BRANCH   2   9
ATOM      6  C   UNL     1       0.966  10.000  19.721  0.00  0.00    +0.000 A 
ATOM      7  C   UNL     1       1.213   8.948  20.615  0.00  0.00    +0.000 A 
ATOM      8  C   UNL     1       1.823   7.751  20.203  0.00  0.00    +0.000 A 
ATOM      9  C   UNL     1       2.218   7.574  18.873  0.00  0.00    +0.000 A 
ATOM     10  C   UNL     1       1.968   8.595  17.961  0.00  0.00    +0.000 A 
ATOM     11  C   UNL     1       1.344   9.782  18.385  0.00  0.00    +0.000 A 
BRANCH   6  13
ATOM     12  C   UNL     1       0.404  12.374  19.286  0.00  0.00    +0.000 C 
ATOM     13  N   UNL     1       0.390  11.193  20.142  0.00  0.00    +0.000 N 
ATOM     14  C   UNL     1      -0.152  11.322  21.487  0.00  0.00    +0.000 C 
ENDBRANCH   6  13
ENDBRANCH   2   9
ENDBRANCH   1   4
BRANCH   1  15
ATOM     15  C   UNL     1       6.043   4.948  18.287  0.00  0.00    +0.000 C 
ATOM     16  O   UNL     1       7.121   4.908  18.887  0.00  0.00    +0.000 OA
ATOM     17  N   UNL     1       5.962   5.179  16.931  0.00  0.00    +0.000 N 
ATOM     18  H   UNL     1       5.094   5.515  16.538  0.00  0.00    +0.000 HD
BRANCH  17  19
ATOM     19  C   UNL     1       7.160   5.448  16.150  0.00  0.00    +0.000 C 
BRANCH  19  20
ATOM     20  C   UNL     1       7.041   4.983  14.716  0.00  0.00    +0.000 A 
ATOM     21  C   UNL     1       6.121   3.991  14.376  0.00  0.00    +0.000 A 
ATOM     22  C   UNL     1       6.061   3.545  13.058  0.00  0.00    +0.000 A 
ATOM     23  C   UNL     1       6.921   4.094  12.116  0.00  0.00    +0.000 A 
ATOM     24  C   UNL     1       7.799   5.081  12.531  0.00  0.00    +0.000 A 
ATOM     25  N   UNL     1       7.883   5.535  13.804  0.00  0.00    +0.000 NA
ENDBRANCH  19  20
ENDBRANCH  17  19
ENDBRANCH   1  15
BRANCH   1  26
ATOM     26  C   UNL     1       3.863   3.671  18.154  0.00  0.00    +0.000 C 
BRANCH  26  27
ATOM     27  C   UNL     1       4.049   2.209  18.592  0.00  0.00    +0.000 C 
BRANCH  27  28
ATOM     28  C   UNL     1       2.765   1.379  18.568  0.00  0.00    +0.000 C 
BRANCH  28  29
ATOM     29  C   UNL     1       1.544   2.286  18.466  0.00  0.00    +0.000 C 
BRANCH  29  30
ATOM     30  C   UNL     1       0.790   2.380  19.774  0.00  0.00    +0.000 C 
BRANCH  30  31
ATOM     31  C   UNL     1       1.106   3.685  20.489  0.00  0.00    +0.000 C 
ATOM     32  O   UNL     1       0.446   4.718  20.393  0.00  0.00    +0.000 OA
ATOM     33  N   UNL     1       2.242   3.614  21.253  0.00  0.00    +0.000 N 
ATOM     34  H   UNL     1       2.681   2.750  21.541  0.00  0.00    +0.000 HD
BRANCH  33  35
ATOM     35  O   UNL     1       2.577   4.782  21.975  0.00  0.00    +0.000 OA
ATOM     36  H   UNL     1       3.290   5.172  21.421  0.00  0.00    +0.000 HD
ENDBRANCH  33  35
ENDBRANCH  30  31
ENDBRANCH  29  30
ENDBRANCH  28  29
ENDBRANCH  27  28
ENDBRANCH  26  27
ENDBRANCH   1  26
TORSDOF 13
ENDMDL
MODEL 8
REMARK VINA RESULT:      -7.7      3.562      5.290
REMARK  Name = 
REMARK  15 active torsions:
REMARK  status: ('A' for Active; 'I' for Inactive)
REMARK    1  A    between atoms: C_1  and  N_2
REMARK    2  A    between atoms: N_2  and  C_3
REMARK    3  A    between atoms: N_2  and  C_4
REMARK    4  A    between atoms: C_7  and  C_8
REMARK    5  A    between atoms: N_10  and  C_11
REMARK    6  A    between atoms: C_11  and  C_12
REMARK    7  A    between atoms: C_11  and  C_21
REMARK    8  A    between atoms: C_12  and  C_13
REMARK    9  A    between atoms: C_13  and  C_14
REMARK   10  A    between atoms: C_14  and  C_15
REMARK   11  A    between atoms: C_15  and  C_16
REMARK   12  A    between atoms: C_16  and  C_17
REMARK   13  A    between atoms: N_19  and  O_20
REMARK   14  A    between atoms: N_23  and  C_24
REMARK   15  A    between atoms: C_24  and  C_25
REMARK                            x       y       z     vdW  Elec       q    Type
REMARK                         _______ _______ _______ _____ _____    ______ ____
ROOT
ATOM      1  C   UNL     1       4.678   6.051  16.899  0.00  0.00    +0.000 C 
ENDROOT
BRANCH   1   4
ATOM      2  C   UNL     1       2.659   7.055  17.983  0.00  0.00    +0.000 C 
ATOM      3  O   UNL     1       2.038   6.008  17.947  0.00  0.00    +0.000 OA
ATOM      4  N   UNL     1       3.961   7.166  17.531  0.00  0.00    +0.000 N 
ATOM      5  H   UNL     1       4.426   8.055  17.557  0.00  0.00    +0.000 HD
BRANCH   2   9
ATOM      6  C   UNL     1       0.894  10.530  19.919  0.00  0.00    +0.000 A 
ATOM      7  C   UNL     1       1.035   9.295  20.569  0.00  0.00    +0.000 A 
ATOM      8  C   UNL     1       1.598   8.179  19.927  0.00  0.00    +0.000 A 
ATOM      9  C   UNL     1       2.052   8.270  18.608  0.00  0.00    +0.000 A 
ATOM     10  C   UNL     1       1.907   9.479  17.934  0.00  0.00    +0.000 A 
ATOM     11  C   UNL     1       1.329  10.584  18.584  0.00  0.00    +0.000 A 
BRANCH   6  13
ATOM     12  C   UNL     1       0.561  12.983  20.042  0.00  0.00    +0.000 C 
ATOM     13  N   UNL     1       0.363  11.638  20.570  0.00  0.00    +0.000 N 
ATOM     14  C   UNL     1      -0.316  11.493  21.850  0.00  0.00    +0.000 C 
ENDBRANCH   6  13
ENDBRANCH   2   9
ENDBRANCH   1   4
BRANCH   1  15
ATOM     15  C   UNL     1       4.663   4.799  17.811  0.00  0.00    +0.000 C 
ATOM     16  O   UNL     1       5.211   4.797  18.917  0.00  0.00    +0.000 OA
ATOM     17  N   UNL     1       3.936   3.726  17.346  0.00  0.00    +0.000 N 
ATOM     18  H   UNL     1       3.778   3.629  16.352  0.00  0.00    +0.000 HD
BRANCH  17  19
ATOM     19  C   UNL     1       3.832   2.503  18.128  0.00  0.00    +0.000 C 
BRANCH  19  20
ATOM     20  C   UNL     1       2.900   2.642  19.311  0.00  0.00    +0.000 A 
ATOM     21  C   UNL     1       3.386   2.473  20.608  0.00  0.00    +0.000 A 
ATOM     22  C   UNL     1       2.500   2.559  21.679  0.00  0.00    +0.000 A 
ATOM     23  C   UNL     1       1.156   2.805  21.432  0.00  0.00    +0.000 A 
ATOM     24  C   UNL     1       0.755   2.970  20.117  0.00  0.00    +0.000 A 
ATOM     25  N   UNL     1       1.590   2.891  19.053  0.00  0.00    +0.000 NA
ENDBRANCH  19  20
ENDBRANCH  17  19
ENDBRANCH   1  15
BRANCH   1  26
ATOM     26  C   UNL     1       6.135   6.444  16.574  0.00  0.00    +0.000 C 
BRANCH  26  27
ATOM     27  C   UNL     1       6.566   5.982  15.172  0.00  0.00    +0.000 C 
BRANCH  27  28
ATOM     28  C   UNL     1       6.825   4.480  15.059  0.00  0.00    +0.000 C 
BRANCH  28  29
ATOM     29  C   UNL     1       5.833   3.837  14.094  0.00  0.00    +0.000 C 
BRANCH  29  30
ATOM     30  C   UNL     1       6.466   3.505  12.760  0.00  0.00    +0.000 C 
BRANCH  30  31
ATOM     31  C   UNL     1       5.470   2.806  11.848  0.00  0.00    +0.000 C 
ATOM     32  O   UNL     1       5.624   1.685  11.367  0.00  0.00    +0.000 OA
ATOM     33  N   UNL     1       4.362   3.569  11.580  0.00  0.00    +0.000 N 
ATOM     34  H   UNL     1       4.087   4.379  12.117  0.00  0.00    +0.000 HD
BRANCH  33  35
ATOM     35  O   UNL     1       3.377   2.966  10.766  0.00  0.00    +0.000 OA
ATOM     36  H   UNL     1       3.871   2.220  10.358  0.00  0.00    +0.000 HD
ENDBRANCH  33  35
ENDBRANCH  30  31
ENDBRANCH  29  30
ENDBRANCH  28  29
ENDBRANCH  27  28
ENDBRANCH  26  27
ENDBRANCH   1  26
TORSDOF 13
ENDMDL
MODEL 9
REMARK VINA RESULT:      -7.7      3.713      7.159
REMARK  Name = 
REMARK  15 active torsions:
REMARK  status: ('A' for Active; 'I' for Inactive)
REMARK    1  A    between atoms: C_1  and  N_2
REMARK    2  A    between atoms: N_2  and  C_3
REMARK    3  A    between atoms: N_2  and  C_4
REMARK    4  A    between atoms: C_7  and  C_8
REMARK    5  A    between atoms: N_10  and  C_11
REMARK    6  A    between atoms: C_11  and  C_12
REMARK    7  A    between atoms: C_11  and  C_21
REMARK    8  A    between atoms: C_12  and  C_13
REMARK    9  A    between atoms: C_13  and  C_14
REMARK   10  A    between atoms: C_14  and  C_15
REMARK   11  A    between atoms: C_15  and  C_16
REMARK   12  A    between atoms: C_16  and  C_17
REMARK   13  A    between atoms: N_19  and  O_20
REMARK   14  A    between atoms: N_23  and  C_24
REMARK   15  A    between atoms: C_24  and  C_25
REMARK                            x       y       z     vdW  Elec       q    Type
REMARK                         _______ _______ _______ _____ _____    ______ ____
ROOT
ATOM      1  C   UNL     1       3.491   5.102  17.590  0.00  0.00    +0.000 C 
ENDROOT
BRANCH   1   4
ATOM      2  C   UNL     1       2.666   6.930  19.085  0.00  0.00    +0.000 C 
ATOM      3  O   UNL     1       3.420   6.621  19.990  0.00  0.00    +0.000 OA
ATOM      4  N   UNL     1       2.652   6.274  17.869  0.00  0.00    +0.000 N 
ATOM      5  H   UNL     1       1.995   6.547  17.160  0.00  0.00    +0.000 HD
BRANCH   2   9
ATOM      6  C   UNL     1       0.018  10.372  19.374  0.00  0.00    +0.000 A 
ATOM      7  C   UNL     1       0.567   9.943  18.157  0.00  0.00    +0.000 A 
ATOM      8  C   UNL     1       1.428   8.835  18.081  0.00  0.00    +0.000 A 
ATOM      9  C   UNL     1       1.759   8.111  19.230  0.00  0.00    +0.000 A 
ATOM     10  C   UNL     1       1.243   8.526  20.454  0.00  0.00    +0.000 A 
ATOM     11  C   UNL     1       0.393   9.645  20.516  0.00  0.00    +0.000 A 
BRANCH   6  13
ATOM     12  C   UNL     1      -1.450  12.006  18.225  0.00  0.00    +0.000 C 
ATOM     13  N   UNL     1      -0.858  11.450  19.437  0.00  0.00    +0.000 N 
ATOM     14  C   UNL     1      -1.126  12.116  20.704  0.00  0.00    +0.000 C 
ENDBRANCH   6  13
ENDBRANCH   2   9
ENDBRANCH   1   4
BRANCH   1  15
ATOM     15  C   UNL     1       4.807   5.521  16.888  0.00  0.00    +0.000 C 
ATOM     16  O   UNL     1       4.980   6.670  16.470  0.00  0.00    +0.000 OA
ATOM     17  N   UNL     1       5.791   4.560  16.834  0.00  0.00    +0.000 N 
ATOM     18  H   UNL     1       5.533   3.584  16.881  0.00  0.00    +0.000 HD
BRANCH  17  19
ATOM     19  C   UNL     1       7.078   4.847  16.218  0.00  0.00    +0.000 C 
BRANCH  19  20
ATOM     20  C   UNL     1       7.056   4.693  14.714  0.00  0.00    +0.000 A 
ATOM     21  C   UNL     1       6.200   3.766  14.119  0.00  0.00    +0.000 A 
ATOM     22  C   UNL     1       6.230   3.607  12.735  0.00  0.00    +0.000 A 
ATOM     23  C   UNL     1       7.113   4.370  11.983  0.00  0.00    +0.000 A 
ATOM     24  C   UNL     1       7.923   5.275  12.648  0.00  0.00    +0.000 A 
ATOM     25  N   UNL     1       7.920   5.452  13.991  0.00  0.00    +0.000 NA
ENDBRANCH  19  20
ENDBRANCH  17  19
ENDBRANCH   1  15
BRANCH   1  26
ATOM     26  C   UNL     1       2.737   4.076  16.718  0.00  0.00    +0.000 C 
BRANCH  26  27
ATOM     27  C   UNL     1       2.358   2.808  17.501  0.00  0.00    +0.000 C 
BRANCH  27  28
ATOM     28  C   UNL     1       3.554   1.980  17.970  0.00  0.00    +0.000 C 
BRANCH  28  29
ATOM     29  C   UNL     1       3.548   1.843  19.489  0.00  0.00    +0.000 C 
BRANCH  29  30
ATOM     30  C   UNL     1       2.146   1.803  20.055  0.00  0.00    +0.000 C 
BRANCH  30  31
ATOM     31  C   UNL     1       1.993   2.798  21.195  0.00  0.00    +0.000 C 
ATOM     32  O   UNL     1       1.464   2.553  22.277  0.00  0.00    +0.000 OA
ATOM     33  N   UNL     1       2.490   4.040  20.891  0.00  0.00    +0.000 N 
ATOM     34  H   UNL     1       3.122   4.228  20.125  0.00  0.00    +0.000 HD
BRANCH  33  35
ATOM     35  O   UNL     1       2.413   5.006  21.919  0.00  0.00    +0.000 OA
ATOM     36  H   UNL     1       2.278   4.450  22.719  0.00  0.00    +0.000 HD
ENDBRANCH  33  35
ENDBRANCH  30  31
ENDBRANCH  29  30
ENDBRANCH  28  29
ENDBRANCH  27  28
ENDBRANCH  26  27
ENDBRANCH   1  26
TORSDOF 13
ENDMDL
