MODEL 1
REMARK VINA RESULT:      -6.5      0.000      0.000
REMARK  Name = 
REMARK  7 active torsions:
REMARK  status: ('A' for Active; 'I' for Inactive)
REMARK    1  A    between atoms: C_1  and  O_2
REMARK    2  A    between atoms: O_2  and  C_3
REMARK    3  A    between atoms: C_3  and  C_4
REMARK    4  A    between atoms: C_4  and  N_5
REMARK    5  A    between atoms: C_9  and  S_10
REMARK    6  A    between atoms: S_10  and  C_11
REMARK    7  A    between atoms: C_11  and  C_12
REMARK                            x       y       z     vdW  Elec       q    Type
REMARK                         _______ _______ _______ _____ _____    ______ ____
ROOT
ATOM      1  N   UNL     1       6.077   3.507  13.019  0.00  0.00    +0.000 N 
ATOM      2  C   UNL     1       6.516   4.141  14.133  0.00  0.00    +0.000 A 
ATOM      3  N   UNL     1       7.323   5.186  14.159  0.00  0.00    +0.000 NA
ATOM      4  N   UNL     1       7.585   5.628  15.439  0.00  0.00    +0.000 NA
ATOM      5  C   UNL     1       6.973   4.901  16.345  0.00  0.00    +0.000 A 
ATOM      6  S   UNL     1       6.044   3.613  15.704  0.00  0.00    +0.000 S 
ATOM      7  H   UNL     1       5.649   2.591  13.145  0.00  0.00    +0.000 HD
ENDROOT
BRANCH   1   8
ATOM      8  C   UNL     1       6.896   3.567  11.809  0.00  0.00    +0.000 C 
BRANCH   8   9
ATOM      9  C   UNL     1       7.120   2.156  11.254  0.00  0.00    +0.000 C 
BRANCH   9  11
ATOM     10  C   UNL     1       6.095   0.029  11.245  0.00  0.00    +0.000 C 
ATOM     11  O   UNL     1       5.883   1.432  11.321  0.00  0.00    +0.000 OA
ENDBRANCH   9  11
ENDBRANCH   8   9
ENDBRANCH   1   8
BRANCH   5  12
ATOM     12  S   UNL     1       7.131   5.211  18.060  0.00  0.00    +0.000 S 
BRANCH  12  13
ATOM     13  C   UNL     1       5.597   6.149  18.354  0.00  0.00    +0.000 C 
BRANCH  13  14
ATOM     14  C   UNL     1       4.381   5.258  18.492  0.00  0.00    +0.000 A 
ATOM     15  C   UNL     1       3.189   5.562  17.835  0.00  0.00    +0.000 A 
ATOM     16  C   UNL     1       2.096   4.701  17.968  0.00  0.00    +0.000 A 
ATOM     17  C   UNL     1       2.226   3.558  18.744  0.00  0.00    +0.000 A 
ATOM     18 BR   UNL     1       0.784   2.362  18.949  0.00  0.00    +0.000 Br
ATOM     19  C   UNL     1       3.443   3.318  19.359  0.00  0.00    +0.000 A 
ATOM     20  N   UNL     1       4.517   4.140  19.252  0.00  0.00    +0.000 NA
ENDBRANCH  13  14
ENDBRANCH  12  13
ENDBRANCH   5  12
TORSDOF 6
ENDMDL
MODEL 2
REMARK VINA RESULT:      -6.4      1.126      1.233
REMARK  Name = 
REMARK  7 active torsions:
REMARK  status: ('A' for Active; 'I' for Inactive)
REMARK    1  A    between atoms: C_1  and  O_2
REMARK    2  A    between atoms: O_2  and  C_3
REMARK    3  A    between atoms: C_3  and  C_4
REMARK    4  A    between atoms: C_4  and  N_5
REMARK    5  A    between atoms: C_9  and  S_10
REMARK    6  A    between atoms: S_10  and  C_11
REMARK    7  A    between atoms: C_11  and  C_12
REMARK                            x       y       z     vdW  Elec       q    Type
REMARK                         _______ _______ _______ _____ _____    ______ ____
ROOT
ATOM      1  N   UNL     1       5.619   3.403  13.139  0.00  0.00    +0.000 N 
ATOM      2  C   UNL     1       6.219   4.190  14.066  0.00  0.00    +0.000 A 
ATOM      3  N   UNL     1       7.271   4.960  13.860  0.00  0.00    +0.000 NA
ATOM      4  N   UNL     1       7.651   5.660  14.986  0.00  0.00    +0.000 NA
ATOM      5  C   UNL     1       6.877   5.394  16.013  0.00  0.00    +0.000 A 
ATOM      6  S   UNL     1       5.639   4.258  15.687  0.00  0.00    +0.000 S 
ATOM      7  H   UNL     1       4.967   2.699  13.482  0.00  0.00    +0.000 HD
ENDROOT
BRANCH   1   8
ATOM      8  C   UNL     1       6.414   2.913  12.015  0.00  0.00    +0.000 C 
BRANCH   8   9
ATOM      9  C   UNL     1       5.675   1.774  11.303  0.00  0.00    +0.000 C 
BRANCH   9  11
ATOM     10  C   UNL     1       6.022  -0.560  11.235  0.00  0.00    +0.000 C 
ATOM     11  O   UNL     1       6.607   0.718  11.032  0.00  0.00    +0.000 OA
ENDBRANCH   9  11
ENDBRANCH   8   9
ENDBRANCH   1   8
BRANCH   5  12
ATOM     12  S   UNL     1       7.127   6.119  17.586  0.00  0.00    +0.000 S 
BRANCH  12  13
ATOM     13  C   UNL     1       6.872   4.661  18.649  0.00  0.00    +0.000 C 
BRANCH  13  14
ATOM     14  C   UNL     1       5.437   4.511  19.107  0.00  0.00    +0.000 A 
ATOM     15  C   UNL     1       4.568   5.602  19.115  0.00  0.00    +0.000 A 
ATOM     16  C   UNL     1       3.243   5.418  19.521  0.00  0.00    +0.000 A 
ATOM     17  C   UNL     1       2.821   4.151  19.898  0.00  0.00    +0.000 A 
ATOM     18 BR   UNL     1       1.044   3.850  20.446  0.00  0.00    +0.000 Br
ATOM     19  C   UNL     1       3.738   3.114  19.856  0.00  0.00    +0.000 A 
ATOM     20  N   UNL     1       5.031   3.267  19.472  0.00  0.00    +0.000 NA
ENDBRANCH  13  14
ENDBRANCH  12  13
ENDBRANCH   5  12
TORSDOF 6
ENDMDL
MODEL 3
REMARK VINA RESULT:      -6.1      0.860      1.146
REMARK  Name = 
REMARK  7 active torsions:
REMARK  status: ('A' for Active; 'I' for Inactive)
REMARK    1  A    between atoms: C_1  and  O_2
REMARK    2  A    between atoms: O_2  and  C_3
REMARK    3  A    between atoms: C_3  and  C_4
REMARK    4  A    between atoms: C_4  and  N_5
REMARK    5  A    between atoms: C_9  and  S_10
REMARK    6  A    between atoms: S_10  and  C_11
REMARK    7  A    between atoms: C_11  and  C_12
REMARK                            x       y       z     vdW  Elec       q    Type
REMARK                         _______ _______ _______ _____ _____    ______ ____
ROOT
ATOM      1  N   UNL     1       6.129   3.240  12.728  0.00  0.00    +0.000 N 
ATOM      2  C   UNL     1       6.547   3.996  13.772  0.00  0.00    +0.000 A 
ATOM      3  N   UNL     1       7.350   5.041  13.696  0.00  0.00    +0.000 NA
ATOM      4  N   UNL     1       7.589   5.624  14.922  0.00  0.00    +0.000 NA
ATOM      5  C   UNL     1       6.963   5.000  15.893  0.00  0.00    +0.000 A 
ATOM      6  S   UNL     1       6.049   3.644  15.384  0.00  0.00    +0.000 S 
ATOM      7  H   UNL     1       5.701   2.342  12.949  0.00  0.00    +0.000 HD
ENDROOT
BRANCH   1   8
ATOM      8  C   UNL     1       6.968   3.168  11.534  0.00  0.00    +0.000 C 
BRANCH   8   9
ATOM      9  C   UNL     1       7.143   1.708  11.099  0.00  0.00    +0.000 C 
BRANCH   9  11
ATOM     10  C   UNL     1       6.057  -0.372  11.362  0.00  0.00    +0.000 C 
ATOM     11  O   UNL     1       5.885   1.033  11.236  0.00  0.00    +0.000 OA
ENDBRANCH   9  11
ENDBRANCH   8   9
ENDBRANCH   1   8
BRANCH   5  12
ATOM     12  S   UNL     1       7.091   5.499  17.565  0.00  0.00    +0.000 S 
BRANCH  12  13
ATOM     13  C   UNL     1       5.537   6.437  17.734  0.00  0.00    +0.000 C 
BRANCH  13  14
ATOM     14  C   UNL     1       4.396   5.592  18.261  0.00  0.00    +0.000 A 
ATOM     15  C   UNL     1       4.285   5.303  19.622  0.00  0.00    +0.000 A 
ATOM     16  C   UNL     1       3.204   4.540  20.072  0.00  0.00    +0.000 A 
ATOM     17  C   UNL     1       2.261   4.096  19.155  0.00  0.00    +0.000 A 
ATOM     18 BR   UNL     1       0.782   3.071  19.713  0.00  0.00    +0.000 Br
ATOM     19  C   UNL     1       2.433   4.430  17.823  0.00  0.00    +0.000 A 
ATOM     20  N   UNL     1       3.476   5.163  17.358  0.00  0.00    +0.000 NA
ENDBRANCH  13  14
ENDBRANCH  12  13
ENDBRANCH   5  12
TORSDOF 6
ENDMDL
MODEL 4
REMARK VINA RESULT:      -6.1      1.640      1.962
REMARK  Name = 
REMARK  7 active torsions:
REMARK  status: ('A' for Active; 'I' for Inactive)
REMARK    1  A    between atoms: C_1  and  O_2
REMARK    2  A    between atoms: O_2  and  C_3
REMARK    3  A    between atoms: C_3  and  C_4
REMARK    4  A    between atoms: C_4  and  N_5
REMARK    5  A    between atoms: C_9  and  S_10
REMARK    6  A    between atoms: S_10  and  C_11
REMARK    7  A    between atoms: C_11  and  C_12
REMARK                            x       y       z     vdW  Elec       q    Type
REMARK                         _______ _______ _______ _____ _____    ______ ____
ROOT
ATOM      1  N   UNL     1       5.343   4.022  13.374  0.00  0.00    +0.000 N 
ATOM      2  C   UNL     1       5.973   4.693  14.368  0.00  0.00    +0.000 A 
ATOM      3  N   UNL     1       7.233   5.085  14.358  0.00  0.00    +0.000 NA
ATOM      4  N   UNL     1       7.594   5.763  15.504  0.00  0.00    +0.000 NA
ATOM      5  C   UNL     1       6.596   5.859  16.351  0.00  0.00    +0.000 A 
ATOM      6  S   UNL     1       5.147   5.116  15.821  0.00  0.00    +0.000 S 
ATOM      7  H   UNL     1       4.449   3.589  13.601  0.00  0.00    +0.000 HD
ENDROOT
BRANCH   1   8
ATOM      8  C   UNL     1       6.140   3.192  12.473  0.00  0.00    +0.000 C 
BRANCH   8   9
ATOM      9  C   UNL     1       5.254   2.616  11.363  0.00  0.00    +0.000 C 
BRANCH   9  11
ATOM     10  C   UNL     1       3.352   3.518  10.294  0.00  0.00    +0.000 C 
ATOM     11  O   UNL     1       3.920   3.115  11.533  0.00  0.00    +0.000 OA
ENDBRANCH   9  11
ENDBRANCH   8   9
ENDBRANCH   1   8
BRANCH   5  12
ATOM     12  S   UNL     1       6.757   6.651  17.903  0.00  0.00    +0.000 S 
BRANCH  12  13
ATOM     13  C   UNL     1       6.674   5.202  19.006  0.00  0.00    +0.000 C 
BRANCH  13  14
ATOM     14  C   UNL     1       5.255   4.745  19.268  0.00  0.00    +0.000 A 
ATOM     15  C   UNL     1       4.928   3.389  19.283  0.00  0.00    +0.000 A 
ATOM     16  C   UNL     1       3.611   3.006  19.553  0.00  0.00    +0.000 A 
ATOM     17  C   UNL     1       2.661   3.985  19.810  0.00  0.00    +0.000 A 
ATOM     18 BR   UNL     1       0.875   3.520  20.186  0.00  0.00    +0.000 Br
ATOM     19  C   UNL     1       3.062   5.310  19.787  0.00  0.00    +0.000 A 
ATOM     20  N   UNL     1       4.331   5.709  19.521  0.00  0.00    +0.000 NA
ENDBRANCH  13  14
ENDBRANCH  12  13
ENDBRANCH   5  12
TORSDOF 6
ENDMDL
MODEL 5
REMARK VINA RESULT:      -6.0      1.406      1.530
REMARK  Name = 
REMARK  7 active torsions:
REMARK  status: ('A' for Active; 'I' for Inactive)
REMARK    1  A    between atoms: C_1  and  O_2
REMARK    2  A    between atoms: O_2  and  C_3
REMARK    3  A    between atoms: C_3  and  C_4
REMARK    4  A    between atoms: C_4  and  N_5
REMARK    5  A    between atoms: C_9  and  S_10
REMARK    6  A    between atoms: S_10  and  C_11
REMARK    7  A    between atoms: C_11  and  C_12
REMARK                            x       y       z     vdW  Elec       q    Type
REMARK                         _______ _______ _______ _____ _____    ______ ____
ROOT
ATOM      1  N   UNL     1       5.268   3.623  13.297  0.00  0.00    +0.000 N 
ATOM      2  C   UNL     1       6.015   4.141  14.302  0.00  0.00    +0.000 A 
ATOM      3  N   UNL     1       7.040   4.960  14.159  0.00  0.00    +0.000 NA
ATOM      4  N   UNL     1       7.599   5.335  15.363  0.00  0.00    +0.000 NA
ATOM      5  C   UNL     1       6.982   4.784  16.383  0.00  0.00    +0.000 A 
ATOM      6  S   UNL     1       5.685   3.753  15.949  0.00  0.00    +0.000 S 
ATOM      7  H   UNL     1       4.660   2.839  13.528  0.00  0.00    +0.000 HD
ENDROOT
BRANCH   1   8
ATOM      8  C   UNL     1       5.877   3.474  11.976  0.00  0.00    +0.000 C 
BRANCH   8   9
ATOM      9  C   UNL     1       4.969   2.636  11.069  0.00  0.00    +0.000 C 
BRANCH   9  11
ATOM     10  C   UNL     1       3.207   3.765   9.976  0.00  0.00    +0.000 C 
ATOM     11  O   UNL     1       3.627   3.130  11.176  0.00  0.00    +0.000 OA
ENDBRANCH   9  11
ENDBRANCH   8   9
ENDBRANCH   1   8
BRANCH   5  12
ATOM     12  S   UNL     1       7.477   5.059  18.039  0.00  0.00    +0.000 S 
BRANCH  12  13
ATOM     13  C   UNL     1       6.146   6.176  18.585  0.00  0.00    +0.000 C 
BRANCH  13  14
ATOM     14  C   UNL     1       4.847   5.450  18.865  0.00  0.00    +0.000 A 
ATOM     15  C   UNL     1       3.619   6.016  18.524  0.00  0.00    +0.000 A 
ATOM     16  C   UNL     1       2.444   5.303  18.777  0.00  0.00    +0.000 A 
ATOM     17  C   UNL     1       2.527   4.042  19.352  0.00  0.00    +0.000 A 
ATOM     18 BR   UNL     1       0.973   3.038  19.706  0.00  0.00    +0.000 Br
ATOM     19  C   UNL     1       3.783   3.542  19.656  0.00  0.00    +0.000 A 
ATOM     20  N   UNL     1       4.938   4.216  19.427  0.00  0.00    +0.000 NA
ENDBRANCH  13  14
ENDBRANCH  12  13
ENDBRANCH   5  12
TORSDOF 6
ENDMDL
MODEL 6
REMARK VINA RESULT:      -6.0      1.319      1.423
REMARK  Name = 
REMARK  7 active torsions:
REMARK  status: ('A' for Active; 'I' for Inactive)
REMARK    1  A    between atoms: C_1  and  O_2
REMARK    2  A    between atoms: O_2  and  C_3
REMARK    3  A    between atoms: C_3  and  C_4
REMARK    4  A    between atoms: C_4  and  N_5
REMARK    5  A    between atoms: C_9  and  S_10
REMARK    6  A    between atoms: S_10  and  C_11
REMARK    7  A    between atoms: C_11  and  C_12
REMARK                            x       y       z     vdW  Elec       q    Type
REMARK                         _______ _______ _______ _____ _____    ______ ____
ROOT
ATOM      1  N   UNL     1       6.412   3.382  13.893  0.00  0.00    +0.000 N 
ATOM      2  C   UNL     1       6.357   4.428  14.753  0.00  0.00    +0.000 A 
ATOM      3  N   UNL     1       5.706   5.559  14.553  0.00  0.00    +0.000 NA
ATOM      4  N   UNL     1       5.817   6.436  15.612  0.00  0.00    +0.000 NA
ATOM      5  C   UNL     1       6.554   5.944  16.580  0.00  0.00    +0.000 A 
ATOM      6  S   UNL     1       7.182   4.382  16.266  0.00  0.00    +0.000 S 
ATOM      7  H   UNL     1       7.124   2.675  14.068  0.00  0.00    +0.000 HD
ENDROOT
BRANCH   1   8
ATOM      8  C   UNL     1       6.235   3.639  12.464  0.00  0.00    +0.000 C 
BRANCH   8   9
ATOM      9  C   UNL     1       4.805   3.287  12.039  0.00  0.00    +0.000 C 
BRANCH   9  11
ATOM     10  C   UNL     1       5.993   1.405  11.251  0.00  0.00    +0.000 C 
ATOM     11  O   UNL     1       4.860   2.241  11.059  0.00  0.00    +0.000 OA
ENDBRANCH   9  11
ENDBRANCH   8   9
ENDBRANCH   1   8
BRANCH   5  12
ATOM     12  S   UNL     1       6.890   6.837  18.048  0.00  0.00    +0.000 S 
BRANCH  12  13
ATOM     13  C   UNL     1       6.715   5.502  19.276  0.00  0.00    +0.000 C 
BRANCH  13  14
ATOM     14  C   UNL     1       5.319   4.915  19.309  0.00  0.00    +0.000 A 
ATOM     15  C   UNL     1       4.192   5.736  19.262  0.00  0.00    +0.000 A 
ATOM     16  C   UNL     1       2.922   5.154  19.270  0.00  0.00    +0.000 A 
ATOM     17  C   UNL     1       2.811   3.771  19.315  0.00  0.00    +0.000 A 
ATOM     18 BR   UNL     1       1.121   2.939  19.321  0.00  0.00    +0.000 Br
ATOM     19  C   UNL     1       3.974   3.021  19.352  0.00  0.00    +0.000 A 
ATOM     20  N   UNL     1       5.220   3.560  19.352  0.00  0.00    +0.000 NA
ENDBRANCH  13  14
ENDBRANCH  12  13
ENDBRANCH   5  12
TORSDOF 6
ENDMDL
MODEL 7
REMARK VINA RESULT:      -5.8      3.917      6.568
REMARK  Name = 
REMARK  7 active torsions:
REMARK  status: ('A' for Active; 'I' for Inactive)
REMARK    1  A    between atoms: C_1  and  O_2
REMARK    2  A    between atoms: O_2  and  C_3
REMARK    3  A    between atoms: C_3  and  C_4
REMARK    4  A    between atoms: C_4  and  N_5
REMARK    5  A    between atoms: C_9  and  S_10
REMARK    6  A    between atoms: S_10  and  C_11
REMARK    7  A    between atoms: C_11  and  C_12
REMARK                            x       y       z     vdW  Elec       q    Type
REMARK                         _______ _______ _______ _____ _____    ______ ____
ROOT
ATOM      1  N   UNL     1       2.048   4.344  18.454  0.00  0.00    +0.000 N 
ATOM      2  C   UNL     1       3.382   4.370  18.691  0.00  0.00    +0.000 A 
ATOM      3  N   UNL     1       4.172   3.316  18.773  0.00  0.00    +0.000 NA
ATOM      4  N   UNL     1       5.490   3.651  19.007  0.00  0.00    +0.000 NA
ATOM      5  C   UNL     1       5.656   4.950  19.101  0.00  0.00    +0.000 A 
ATOM      6  S   UNL     1       4.216   5.860  18.928  0.00  0.00    +0.000 S 
ATOM      7  H   UNL     1       1.528   5.200  18.639  0.00  0.00    +0.000 HD
ENDROOT
BRANCH   1   8
ATOM      8  C   UNL     1       1.292   3.151  18.831  0.00  0.00    +0.000 C 
BRANCH   8   9
ATOM      9  C   UNL     1       0.602   3.370  20.182  0.00  0.00    +0.000 C 
BRANCH   9  11
ATOM     10  C   UNL     1       2.230   3.185  21.882  0.00  0.00    +0.000 C 
ATOM     11  O   UNL     1       1.212   2.510  21.155  0.00  0.00    +0.000 OA
ENDBRANCH   9  11
ENDBRANCH   8   9
ENDBRANCH   1   8
BRANCH   5  12
ATOM     12  S   UNL     1       7.218   5.674  19.416  0.00  0.00    +0.000 S 
BRANCH  12  13
ATOM     13  C   UNL     1       7.435   6.635  17.883  0.00  0.00    +0.000 C 
BRANCH  13  14
ATOM     14  C   UNL     1       6.920   5.910  16.657  0.00  0.00    +0.000 A 
ATOM     15  C   UNL     1       5.797   6.369  15.969  0.00  0.00    +0.000 A 
ATOM     16  C   UNL     1       5.368   5.686  14.828  0.00  0.00    +0.000 A 
ATOM     17  C   UNL     1       6.075   4.571  14.401  0.00  0.00    +0.000 A 
ATOM     18 BR   UNL     1       5.541   3.619  12.865  0.00  0.00    +0.000 Br
ATOM     19  C   UNL     1       7.185   4.179  15.130  0.00  0.00    +0.000 A 
ATOM     20  N   UNL     1       7.620   4.820  16.245  0.00  0.00    +0.000 NA
ENDBRANCH  13  14
ENDBRANCH  12  13
ENDBRANCH   5  12
TORSDOF 6
ENDMDL
MODEL 8
REMARK VINA RESULT:      -5.8      3.591      6.758
REMARK  Name = 
REMARK  7 active torsions:
REMARK  status: ('A' for Active; 'I' for Inactive)
REMARK    1  A    between atoms: C_1  and  O_2
REMARK    2  A    between atoms: O_2  and  C_3
REMARK    3  A    between atoms: C_3  and  C_4
REMARK    4  A    between atoms: C_4  and  N_5
REMARK    5  A    between atoms: C_9  and  S_10
REMARK    6  A    between atoms: S_10  and  C_11
REMARK    7  A    between atoms: C_11  and  C_12
REMARK                            x       y       z     vdW  Elec       q    Type
REMARK                         _______ _______ _______ _____ _____    ______ ____
ROOT
ATOM      1  N   UNL     1       2.427   4.907  20.234  0.00  0.00    +0.000 N 
ATOM      2  C   UNL     1       3.709   4.763  19.820  0.00  0.00    +0.000 A 
ATOM      3  N   UNL     1       4.401   3.639  19.825  0.00  0.00    +0.000 NA
ATOM      4  N   UNL     1       5.679   3.794  19.329  0.00  0.00    +0.000 NA
ATOM      5  C   UNL     1       5.918   5.033  18.968  0.00  0.00    +0.000 A 
ATOM      6  S   UNL     1       4.608   6.107  19.221  0.00  0.00    +0.000 S 
ATOM      7  H   UNL     1       2.093   5.858  20.387  0.00  0.00    +0.000 HD
ENDROOT
BRANCH   1   8
ATOM      8  C   UNL     1       1.904   3.976  21.232  0.00  0.00    +0.000 C 
BRANCH   8   9
ATOM      9  C   UNL     1       0.845   3.066  20.600  0.00  0.00    +0.000 C 
BRANCH   9  11
ATOM     10  C   UNL     1       1.328   2.055  18.522  0.00  0.00    +0.000 C 
ATOM     11  O   UNL     1       0.883   3.235  19.176  0.00  0.00    +0.000 OA
ENDBRANCH   9  11
ENDBRANCH   8   9
ENDBRANCH   1   8
BRANCH   5  12
ATOM     12  S   UNL     1       7.463   5.539  18.319  0.00  0.00    +0.000 S 
BRANCH  12  13
ATOM     13  C   UNL     1       6.902   6.453  16.846  0.00  0.00    +0.000 C 
BRANCH  13  14
ATOM     14  C   UNL     1       6.640   5.550  15.659  0.00  0.00    +0.000 A 
ATOM     15  C   UNL     1       5.451   4.829  15.552  0.00  0.00    +0.000 A 
ATOM     16  C   UNL     1       5.237   4.026  14.429  0.00  0.00    +0.000 A 
ATOM     17  C   UNL     1       6.209   3.971  13.440  0.00  0.00    +0.000 A 
ATOM     18 BR   UNL     1       5.965   2.908  11.905  0.00  0.00    +0.000 Br
ATOM     19  C   UNL     1       7.361   4.721  13.611  0.00  0.00    +0.000 A 
ATOM     20  N   UNL     1       7.597   5.504  14.694  0.00  0.00    +0.000 NA
ENDBRANCH  13  14
ENDBRANCH  12  13
ENDBRANCH   5  12
TORSDOF 6
ENDMDL
MODEL 9
REMARK VINA RESULT:      -5.8      4.833      6.752
REMARK  Name = 
REMARK  7 active torsions:
REMARK  status: ('A' for Active; 'I' for Inactive)
REMARK    1  A    between atoms: C_1  and  O_2
REMARK    2  A    between atoms: O_2  and  C_3
REMARK    3  A    between atoms: C_3  and  C_4
REMARK    4  A    between atoms: C_4  and  N_5
REMARK    5  A    between atoms: C_9  and  S_10
REMARK    6  A    between atoms: S_10  and  C_11
REMARK    7  A    between atoms: C_11  and  C_12
REMARK                            x       y       z     vdW  Elec       q    Type
REMARK                         _______ _______ _______ _____ _____    ______ ____
ROOT
ATOM      1  N   UNL     1       8.888   8.562  18.930  0.00  0.00    +0.000 N 
ATOM      2  C   UNL     1       8.102   7.671  18.277  0.00  0.00    +0.000 A 
ATOM      3  N   UNL     1       7.567   7.843  17.083  0.00  0.00    +0.000 NA
ATOM      4  N   UNL     1       6.827   6.757  16.666  0.00  0.00    +0.000 NA
ATOM      5  C   UNL     1       6.819   5.796  17.560  0.00  0.00    +0.000 A 
ATOM      6  S   UNL     1       7.700   6.151  18.984  0.00  0.00    +0.000 S 
ATOM      7  H   UNL     1       9.045   8.400  19.923  0.00  0.00    +0.000 HD
ENDROOT
BRANCH   1   8
ATOM      8  C   UNL     1       8.741   9.983  18.622  0.00  0.00    +0.000 C 
BRANCH   8   9
ATOM      9  C   UNL     1       9.416  10.829  19.707  0.00  0.00    +0.000 C 
BRANCH   9  11
ATOM     10  C   UNL     1       9.544  12.297  17.862  0.00  0.00    +0.000 C 
ATOM     11  O   UNL     1       9.440  12.197  19.276  0.00  0.00    +0.000 OA
ENDBRANCH   9  11
ENDBRANCH   8   9
ENDBRANCH   1   8
BRANCH   5  12
ATOM     12  S   UNL     1       5.946   4.298  17.319  0.00  0.00    +0.000 S 
BRANCH  12  13
ATOM     13  C   UNL     1       4.358   4.953  16.709  0.00  0.00    +0.000 C 
BRANCH  13  14
ATOM     14  C   UNL     1       3.619   5.766  17.752  0.00  0.00    +0.000 A 
ATOM     15  C   UNL     1       3.278   7.098  17.515  0.00  0.00    +0.000 A 
ATOM     16  C   UNL     1       2.575   7.808  18.492  0.00  0.00    +0.000 A 
ATOM     17  C   UNL     1       2.223   7.167  19.672  0.00  0.00    +0.000 A 
ATOM     18 BR   UNL     1       1.269   8.077  21.017  0.00  0.00    +0.000 Br
ATOM     19  C   UNL     1       2.589   5.840  19.832  0.00  0.00    +0.000 A 
ATOM     20  N   UNL     1       3.277   5.131  18.903  0.00  0.00    +0.000 NA
ENDBRANCH  13  14
ENDBRANCH  12  13
ENDBRANCH   5  12
TORSDOF 6
ENDMDL
