MODEL 1
REMARK VINA RESULT:      -7.2      0.000      0.000
REMARK  Name = 
REMARK  9 active torsions:
REMARK  status: ('A' for Active; 'I' for Inactive)
REMARK    1  A    between atoms: C_1  and  N_2
REMARK    2  A    between atoms: N_2  and  C_3
REMARK    3  A    between atoms: C_4  and  C_6
REMARK    4  A    between atoms: C_6  and  C_7
REMARK    5  A    between atoms: C_7  and  N_8
REMARK    6  A    between atoms: C_9  and  C_11
REMARK    7  A    between atoms: C_13  and  O_14
REMARK    8  A    between atoms: O_14  and  C_15
REMARK    9  A    between atoms: C_15  and  C_16
REMARK                            x       y       z     vdW  Elec       q    Type
REMARK                         _______ _______ _______ _____ _____    ______ ____
ROOT
ATOM      1  N   UNL     1       3.821   5.451  17.376  0.00  0.00    +0.000 N 
ATOM      2  C   UNL     1       4.168   6.772  17.596  0.00  0.00    +0.000 C 
ATOM      3  O   UNL     1       5.274   7.262  17.395  0.00  0.00    +0.000 OA
ATOM      4  H   UNL     1       2.890   5.219  17.726  0.00  0.00    +0.000 HD
ENDROOT
BRANCH   2   5
ATOM      5  C   UNL     1       3.041   7.614  18.118  0.00  0.00    +0.000 A 
ATOM      6  C   UNL     1       2.562   7.444  19.411  0.00  0.00    +0.000 A 
ATOM      7  C   UNL     1       1.542   8.285  19.874  0.00  0.00    +0.000 A 
ATOM      8  C   UNL     1       1.010   9.239  19.000  0.00  0.00    +0.000 A 
ATOM      9 CL   UNL     1      -0.318  10.278  19.353  0.00  0.00    +0.000 Cl
ATOM     10  C   UNL     1       1.555   9.326  17.721  0.00  0.00    +0.000 A 
ATOM     11  N   UNL     1       2.560   8.550  17.256  0.00  0.00    +0.000 NA
BRANCH   7  12
ATOM     12  O   UNL     1       1.149   7.999  21.155  0.00  0.00    +0.000 OA
BRANCH  12  13
ATOM     13  C   UNL     1       1.403   8.976  22.174  0.00  0.00    +0.000 C 
BRANCH  13  14
ATOM     14  C   UNL     1       0.125   9.390  22.905  0.00  0.00    +0.000 C 
ATOM     15  F   UNL     1       0.216   9.252  24.245  0.00  0.00    +0.000 F 
ATOM     16  F   UNL     1      -0.169  10.687  22.651  0.00  0.00    +0.000 F 
ATOM     17  F   UNL     1      -0.932   8.653  22.489  0.00  0.00    +0.000 F 
ENDBRANCH  13  14
ENDBRANCH  12  13
ENDBRANCH   7  12
ENDBRANCH   2   5
BRANCH   1  18
ATOM     18  C   UNL     1       4.733   4.355  16.927  0.00  0.00    +0.000 C 
ATOM     19  C   UNL     1       6.245   4.571  17.143  0.00  0.00    +0.000 C 
ATOM     20  O   UNL     1       6.463   4.791  15.724  0.00  0.00    +0.000 OA
ATOM     21  C   UNL     1       5.104   4.396  15.430  0.00  0.00    +0.000 C 
BRANCH  18  22
ATOM     22  C   UNL     1       4.157   2.984  17.304  0.00  0.00    +0.000 C 
BRANCH  22  26
ATOM     23  C   UNL     1       1.698   2.628  20.190  0.00  0.00    +0.000 C 
ATOM     24  N   UNL     1       2.940   2.747  19.444  0.00  0.00    +0.000 N 
ATOM     25  C   UNL     1       4.178   2.381  20.118  0.00  0.00    +0.000 C 
ATOM     26  C   UNL     1       2.851   2.999  18.075  0.00  0.00    +0.000 C 
ATOM     27  O   UNL     1       1.775   3.207  17.516  0.00  0.00    +0.000 OA
ENDBRANCH  22  26
ENDBRANCH  18  22
ENDBRANCH   1  18
TORSDOF 7
ENDMDL
MODEL 2
REMARK VINA RESULT:      -7.0      1.028      1.412
REMARK  Name = 
REMARK  9 active torsions:
REMARK  status: ('A' for Active; 'I' for Inactive)
REMARK    1  A    between atoms: C_1  and  N_2
REMARK    2  A    between atoms: N_2  and  C_3
REMARK    3  A    between atoms: C_4  and  C_6
REMARK    4  A    between atoms: C_6  and  C_7
REMARK    5  A    between atoms: C_7  and  N_8
REMARK    6  A    between atoms: C_9  and  C_11
REMARK    7  A    between atoms: C_13  and  O_14
REMARK    8  A    between atoms: O_14  and  C_15
REMARK    9  A    between atoms: C_15  and  C_16
REMARK                            x       y       z     vdW  Elec       q    Type
REMARK                         _______ _______ _______ _____ _____    ______ ____
ROOT
ATOM      1  N   UNL     1       3.657   5.425  18.056  0.00  0.00    +0.000 N 
ATOM      2  C   UNL     1       3.844   6.723  17.615  0.00  0.00    +0.000 C 
ATOM      3  O   UNL     1       4.721   7.095  16.843  0.00  0.00    +0.000 OA
ATOM      4  H   UNL     1       2.952   5.350  18.791  0.00  0.00    +0.000 HD
ENDROOT
BRANCH   2   5
ATOM      5  C   UNL     1       2.844   7.697  18.166  0.00  0.00    +0.000 A 
ATOM      6  C   UNL     1       2.312   7.531  19.439  0.00  0.00    +0.000 A 
ATOM      7  C   UNL     1       1.420   8.491  19.932  0.00  0.00    +0.000 A 
ATOM      8  C   UNL     1       1.060   9.562  19.107  0.00  0.00    +0.000 A 
ATOM      9 CL   UNL     1      -0.104  10.770  19.497  0.00  0.00    +0.000 Cl
ATOM     10  C   UNL     1       1.645   9.635  17.844  0.00  0.00    +0.000 A 
ATOM     11  N   UNL     1       2.533   8.742  17.352  0.00  0.00    +0.000 NA
BRANCH   7  12
ATOM     12  O   UNL     1       0.956   8.199  21.188  0.00  0.00    +0.000 OA
BRANCH  12  13
ATOM     13  C   UNL     1       1.248   9.119  22.249  0.00  0.00    +0.000 C 
BRANCH  13  14
ATOM     14  C   UNL     1       0.004   9.467  23.067  0.00  0.00    +0.000 C 
ATOM     15  F   UNL     1      -0.410  10.738  22.880  0.00  0.00    +0.000 F 
ATOM     16  F   UNL     1      -1.026   8.653  22.734  0.00  0.00    +0.000 F 
ATOM     17  F   UNL     1       0.232   9.301  24.391  0.00  0.00    +0.000 F 
ENDBRANCH  13  14
ENDBRANCH  12  13
ENDBRANCH   7  12
ENDBRANCH   2   5
BRANCH   1  18
ATOM     18  C   UNL     1       4.524   4.247  17.743  0.00  0.00    +0.000 C 
ATOM     19  C   UNL     1       6.050   4.465  17.802  0.00  0.00    +0.000 C 
ATOM     20  O   UNL     1       6.158   4.424  16.354  0.00  0.00    +0.000 OA
ATOM     21  C   UNL     1       4.777   4.012  16.239  0.00  0.00    +0.000 C 
BRANCH  18  22
ATOM     22  C   UNL     1       3.969   2.978  18.402  0.00  0.00    +0.000 C 
BRANCH  22  26
ATOM     23  C   UNL     1       1.085   3.086  20.888  0.00  0.00    +0.000 C 
ATOM     24  N   UNL     1       1.872   2.790  19.702  0.00  0.00    +0.000 N 
ATOM     25  C   UNL     1       1.170   2.316  18.518  0.00  0.00    +0.000 C 
ATOM     26  C   UNL     1       3.212   3.178  19.702  0.00  0.00    +0.000 C 
ATOM     27  O   UNL     1       3.752   3.671  20.691  0.00  0.00    +0.000 OA
ENDBRANCH  22  26
ENDBRANCH  18  22
ENDBRANCH   1  18
TORSDOF 7
ENDMDL
MODEL 3
REMARK VINA RESULT:      -6.9      4.766      7.867
REMARK  Name = 
REMARK  9 active torsions:
REMARK  status: ('A' for Active; 'I' for Inactive)
REMARK    1  A    between atoms: C_1  and  N_2
REMARK    2  A    between atoms: N_2  and  C_3
REMARK    3  A    between atoms: C_4  and  C_6
REMARK    4  A    between atoms: C_6  and  C_7
REMARK    5  A    between atoms: C_7  and  N_8
REMARK    6  A    between atoms: C_9  and  C_11
REMARK    7  A    between atoms: C_13  and  O_14
REMARK    8  A    between atoms: O_14  and  C_15
REMARK    9  A    between atoms: C_15  and  C_16
REMARK                            x       y       z     vdW  Elec       q    Type
REMARK                         _______ _______ _______ _____ _____    ______ ____
ROOT
ATOM      1  N   UNL     1       1.260   9.356  19.532  0.00  0.00    +0.000 N 
ATOM      2  C   UNL     1       1.909   8.860  18.414  0.00  0.00    +0.000 C 
ATOM      3  O   UNL     1       1.976   9.416  17.324  0.00  0.00    +0.000 OA
ATOM      4  H   UNL     1       1.214   8.683  20.299  0.00  0.00    +0.000 HD
ENDROOT
BRANCH   2   5
ATOM      5  C   UNL     1       2.566   7.530  18.638  0.00  0.00    +0.000 A 
ATOM      6  C   UNL     1       3.673   7.146  17.891  0.00  0.00    +0.000 A 
ATOM      7  C   UNL     1       4.286   5.918  18.167  0.00  0.00    +0.000 A 
ATOM      8  C   UNL     1       3.733   5.098  19.157  0.00  0.00    +0.000 A 
ATOM      9 CL   UNL     1       4.278   3.513  19.554  0.00  0.00    +0.000 Cl
ATOM     10  C   UNL     1       2.618   5.571  19.846  0.00  0.00    +0.000 A 
ATOM     11  N   UNL     1       2.023   6.766  19.623  0.00  0.00    +0.000 NA
BRANCH   7  12
ATOM     12  O   UNL     1       5.352   5.652  17.348  0.00  0.00    +0.000 OA
BRANCH  12  13
ATOM     13  C   UNL     1       6.516   6.483  17.461  0.00  0.00    +0.000 C 
BRANCH  13  14
ATOM     14  C   UNL     1       7.495   5.961  18.513  0.00  0.00    +0.000 C 
ATOM     15  F   UNL     1       6.902   5.684  19.693  0.00  0.00    +0.000 F 
ATOM     16  F   UNL     1       8.092   4.824  18.083  0.00  0.00    +0.000 F 
ATOM     17  F   UNL     1       8.478   6.862  18.750  0.00  0.00    +0.000 F 
ENDBRANCH  13  14
ENDBRANCH  12  13
ENDBRANCH   7  12
ENDBRANCH   2   5
BRANCH   1  18
ATOM     18  C   UNL     1       0.459  10.616  19.609  0.00  0.00    +0.000 C 
ATOM     19  C   UNL     1       0.975  11.823  18.800  0.00  0.00    +0.000 C 
ATOM     20  O   UNL     1       1.415  12.502  20.006  0.00  0.00    +0.000 OA
ATOM     21  C   UNL     1       0.770  11.506  20.830  0.00  0.00    +0.000 C 
BRANCH  18  22
ATOM     22  C   UNL     1      -1.042  10.307  19.533  0.00  0.00    +0.000 C 
BRANCH  22  26
ATOM     23  C   UNL     1      -3.449  11.267  16.741  0.00  0.00    +0.000 C 
ATOM     24  N   UNL     1      -2.744  11.262  18.013  0.00  0.00    +0.000 N 
ATOM     25  C   UNL     1      -3.333  12.000  19.122  0.00  0.00    +0.000 C 
ATOM     26  C   UNL     1      -1.669  10.385  18.154  0.00  0.00    +0.000 C 
ATOM     27  O   UNL     1      -1.257   9.698  17.220  0.00  0.00    +0.000 OA
ENDBRANCH  22  26
ENDBRANCH  18  22
ENDBRANCH   1  18
TORSDOF 7
ENDMDL
MODEL 4
REMARK VINA RESULT:      -6.9      4.025      7.430
REMARK  Name = 
REMARK  9 active torsions:
REMARK  status: ('A' for Active; 'I' for Inactive)
REMARK    1  A    between atoms: C_1  and  N_2
REMARK    2  A    between atoms: N_2  and  C_3
REMARK    3  A    between atoms: C_4  and  C_6
REMARK    4  A    between atoms: C_6  and  C_7
REMARK    5  A    between atoms: C_7  and  N_8
REMARK    6  A    between atoms: C_9  and  C_11
REMARK    7  A    between atoms: C_13  and  O_14
REMARK    8  A    between atoms: O_14  and  C_15
REMARK    9  A    between atoms: C_15  and  C_16
REMARK                            x       y       z     vdW  Elec       q    Type
REMARK                         _______ _______ _______ _____ _____    ______ ____
ROOT
ATOM      1  N   UNL     1       1.077  10.047  19.075  0.00  0.00    +0.000 N 
ATOM      2  C   UNL     1       1.232   8.928  19.875  0.00  0.00    +0.000 C 
ATOM      3  O   UNL     1       0.705   8.755  20.968  0.00  0.00    +0.000 OA
ATOM      4  H   UNL     1       1.699  10.048  18.265  0.00  0.00    +0.000 HD
ENDROOT
BRANCH   2   5
ATOM      5  C   UNL     1       2.128   7.881  19.282  0.00  0.00    +0.000 A 
ATOM      6  C   UNL     1       2.320   6.661  19.919  0.00  0.00    +0.000 A 
ATOM      7  C   UNL     1       3.126   5.694  19.305  0.00  0.00    +0.000 A 
ATOM      8  C   UNL     1       3.747   6.008  18.092  0.00  0.00    +0.000 A 
ATOM      9 CL   UNL     1       4.857   4.994  17.252  0.00  0.00    +0.000 Cl
ATOM     10  C   UNL     1       3.496   7.261  17.538  0.00  0.00    +0.000 A 
ATOM     11  N   UNL     1       2.699   8.204  18.090  0.00  0.00    +0.000 NA
BRANCH   7  12
ATOM     12  O   UNL     1       3.247   4.547  20.045  0.00  0.00    +0.000 OA
BRANCH  12  13
ATOM     13  C   UNL     1       2.320   4.332  21.118  0.00  0.00    +0.000 C 
BRANCH  13  14
ATOM     14  C   UNL     1       1.414   3.127  20.863  0.00  0.00    +0.000 C 
ATOM     15  F   UNL     1       0.975   2.548  22.001  0.00  0.00    +0.000 F 
ATOM     16  F   UNL     1       0.323   3.496  20.149  0.00  0.00    +0.000 F 
ATOM     17  F   UNL     1       2.059   2.179  20.144  0.00  0.00    +0.000 F 
ENDBRANCH  13  14
ENDBRANCH  12  13
ENDBRANCH   7  12
ENDBRANCH   2   5
BRANCH   1  18
ATOM     18  C   UNL     1       0.307  11.283  19.415  0.00  0.00    +0.000 C 
ATOM     19  C   UNL     1       0.749  12.593  18.730  0.00  0.00    +0.000 C 
ATOM     20  O   UNL     1       1.328  13.096  19.963  0.00  0.00    +0.000 OA
ATOM     21  C   UNL     1       0.762  11.993  20.706  0.00  0.00    +0.000 C 
BRANCH  18  22
ATOM     22  C   UNL     1      -1.197  10.987  19.461  0.00  0.00    +0.000 C 
BRANCH  22  26
ATOM     23  C   UNL     1      -3.821  10.795  16.707  0.00  0.00    +0.000 C 
ATOM     24  N   UNL     1      -3.113  11.200  17.910  0.00  0.00    +0.000 N 
ATOM     25  C   UNL     1      -3.843  11.973  18.905  0.00  0.00    +0.000 C 
ATOM     26  C   UNL     1      -1.851  10.649  18.135  0.00  0.00    +0.000 C 
ATOM     27  O   UNL     1      -1.301   9.916  17.314  0.00  0.00    +0.000 OA
ENDBRANCH  22  26
ENDBRANCH  18  22
ENDBRANCH   1  18
TORSDOF 7
ENDMDL
MODEL 5
REMARK VINA RESULT:      -6.9      1.613      1.864
REMARK  Name = 
REMARK  9 active torsions:
REMARK  status: ('A' for Active; 'I' for Inactive)
REMARK    1  A    between atoms: C_1  and  N_2
REMARK    2  A    between atoms: N_2  and  C_3
REMARK    3  A    between atoms: C_4  and  C_6
REMARK    4  A    between atoms: C_6  and  C_7
REMARK    5  A    between atoms: C_7  and  N_8
REMARK    6  A    between atoms: C_9  and  C_11
REMARK    7  A    between atoms: C_13  and  O_14
REMARK    8  A    between atoms: O_14  and  C_15
REMARK    9  A    between atoms: C_15  and  C_16
REMARK                            x       y       z     vdW  Elec       q    Type
REMARK                         _______ _______ _______ _____ _____    ______ ____
ROOT
ATOM      1  N   UNL     1       3.653   6.231  18.279  0.00  0.00    +0.000 N 
ATOM      2  C   UNL     1       2.759   6.494  19.302  0.00  0.00    +0.000 C 
ATOM      3  O   UNL     1       2.484   5.733  20.222  0.00  0.00    +0.000 OA
ATOM      4  H   UNL     1       3.644   6.942  17.547  0.00  0.00    +0.000 HD
ENDROOT
BRANCH   2   5
ATOM      5  C   UNL     1       2.121   7.849  19.212  0.00  0.00    +0.000 A 
ATOM      6  C   UNL     1       1.875   8.600  20.354  0.00  0.00    +0.000 A 
ATOM      7  C   UNL     1       1.323   9.880  20.220  0.00  0.00    +0.000 A 
ATOM      8  C   UNL     1       0.995  10.340  18.940  0.00  0.00    +0.000 A 
ATOM      9 CL   UNL     1       0.208  11.831  18.591  0.00  0.00    +0.000 Cl
ATOM     10  C   UNL     1       1.276   9.507  17.858  0.00  0.00    +0.000 A 
ATOM     11  N   UNL     1       1.837   8.280  17.954  0.00  0.00    +0.000 NA
BRANCH   7  12
ATOM     12  O   UNL     1       1.114  10.505  21.422  0.00  0.00    +0.000 OA
BRANCH  12  13
ATOM     13  C   UNL     1      -0.239  10.720  21.846  0.00  0.00    +0.000 C 
BRANCH  13  14
ATOM     14  C   UNL     1      -0.649   9.765  22.968  0.00  0.00    +0.000 C 
ATOM     15  F   UNL     1       0.324   9.582  23.885  0.00  0.00    +0.000 F 
ATOM     16  F   UNL     1      -1.737  10.239  23.621  0.00  0.00    +0.000 F 
ATOM     17  F   UNL     1      -0.980   8.549  22.474  0.00  0.00    +0.000 F 
ENDBRANCH  13  14
ENDBRANCH  12  13
ENDBRANCH   7  12
ENDBRANCH   2   5
BRANCH   1  18
ATOM     18  C   UNL     1       4.395   4.951  18.054  0.00  0.00    +0.000 C 
ATOM     19  C   UNL     1       5.100   4.327  19.275  0.00  0.00    +0.000 C 
ATOM     20  O   UNL     1       6.408   4.708  18.772  0.00  0.00    +0.000 OA
ATOM     21  C   UNL     1       5.830   5.122  17.514  0.00  0.00    +0.000 C 
BRANCH  18  22
ATOM     22  C   UNL     1       3.586   4.010  17.152  0.00  0.00    +0.000 C 
BRANCH  22  26
ATOM     23  C   UNL     1       0.702   2.100  18.745  0.00  0.00    +0.000 C 
ATOM     24  N   UNL     1       2.047   2.516  18.385  0.00  0.00    +0.000 N 
ATOM     25  C   UNL     1       3.141   1.592  18.647  0.00  0.00    +0.000 C 
ATOM     26  C   UNL     1       2.183   3.677  17.624  0.00  0.00    +0.000 C 
ATOM     27  O   UNL     1       1.221   4.387  17.333  0.00  0.00    +0.000 OA
ENDBRANCH  22  26
ENDBRANCH  18  22
ENDBRANCH   1  18
TORSDOF 7
ENDMDL
MODEL 6
REMARK VINA RESULT:      -6.9      4.369      6.965
REMARK  Name = 
REMARK  9 active torsions:
REMARK  status: ('A' for Active; 'I' for Inactive)
REMARK    1  A    between atoms: C_1  and  N_2
REMARK    2  A    between atoms: N_2  and  C_3
REMARK    3  A    between atoms: C_4  and  C_6
REMARK    4  A    between atoms: C_6  and  C_7
REMARK    5  A    between atoms: C_7  and  N_8
REMARK    6  A    between atoms: C_9  and  C_11
REMARK    7  A    between atoms: C_13  and  O_14
REMARK    8  A    between atoms: O_14  and  C_15
REMARK    9  A    between atoms: C_15  and  C_16
REMARK                            x       y       z     vdW  Elec       q    Type
REMARK                         _______ _______ _______ _____ _____    ______ ____
ROOT
ATOM      1  N   UNL     1       3.008   4.633  19.492  0.00  0.00    +0.000 N 
ATOM      2  C   UNL     1       3.653   3.544  18.931  0.00  0.00    +0.000 C 
ATOM      3  O   UNL     1       3.447   2.370  19.215  0.00  0.00    +0.000 OA
ATOM      4  H   UNL     1       3.414   5.527  19.209  0.00  0.00    +0.000 HD
ENDROOT
BRANCH   2   5
ATOM      5  C   UNL     1       4.668   3.914  17.890  0.00  0.00    +0.000 A 
ATOM      6  C   UNL     1       5.903   4.438  18.252  0.00  0.00    +0.000 A 
ATOM      7  C   UNL     1       6.840   4.723  17.251  0.00  0.00    +0.000 A 
ATOM      8  C   UNL     1       6.481   4.512  15.915  0.00  0.00    +0.000 A 
ATOM      9 CL   UNL     1       7.454   4.909  14.550  0.00  0.00    +0.000 Cl
ATOM     10  C   UNL     1       5.216   3.988  15.656  0.00  0.00    +0.000 A 
ATOM     11  N   UNL     1       4.302   3.674  16.602  0.00  0.00    +0.000 NA
BRANCH   7  12
ATOM     12  O   UNL     1       8.007   5.251  17.739  0.00  0.00    +0.000 OA
BRANCH  12  13
ATOM     13  C   UNL     1       7.924   6.407  18.584  0.00  0.00    +0.000 C 
BRANCH  13  14
ATOM     14  C   UNL     1       7.688   7.689  17.784  0.00  0.00    +0.000 C 
ATOM     15  F   UNL     1       6.380   7.983  17.634  0.00  0.00    +0.000 F 
ATOM     16  F   UNL     1       8.274   8.745  18.397  0.00  0.00    +0.000 F 
ATOM     17  F   UNL     1       8.231   7.595  16.548  0.00  0.00    +0.000 F 
ENDBRANCH  13  14
ENDBRANCH  12  13
ENDBRANCH   7  12
ENDBRANCH   2   5
BRANCH   1  18
ATOM     18  C   UNL     1       2.001   4.598  20.596  0.00  0.00    +0.000 C 
ATOM     19  C   UNL     1       2.215   3.548  21.706  0.00  0.00    +0.000 C 
ATOM     20  O   UNL     1       1.115   2.737  21.215  0.00  0.00    +0.000 OA
ATOM     21  C   UNL     1       0.732   3.777  20.287  0.00  0.00    +0.000 C 
BRANCH  18  22
ATOM     22  C   UNL     1       1.631   6.020  21.036  0.00  0.00    +0.000 C 
BRANCH  22  26
ATOM     23  C   UNL     1       1.429   9.425  19.341  0.00  0.00    +0.000 C 
ATOM     24  N   UNL     1       1.393   8.388  20.359  0.00  0.00    +0.000 N 
ATOM     25  C   UNL     1       0.729   8.691  21.619  0.00  0.00    +0.000 C 
ATOM     26  C   UNL     1       1.807   7.107  19.992  0.00  0.00    +0.000 C 
ATOM     27  O   UNL     1       2.273   6.863  18.880  0.00  0.00    +0.000 OA
ENDBRANCH  22  26
ENDBRANCH  18  22
ENDBRANCH   1  18
TORSDOF 7
ENDMDL
MODEL 7
REMARK VINA RESULT:      -6.9      5.098      8.252
REMARK  Name = 
REMARK  9 active torsions:
REMARK  status: ('A' for Active; 'I' for Inactive)
REMARK    1  A    between atoms: C_1  and  N_2
REMARK    2  A    between atoms: N_2  and  C_3
REMARK    3  A    between atoms: C_4  and  C_6
REMARK    4  A    between atoms: C_6  and  C_7
REMARK    5  A    between atoms: C_7  and  N_8
REMARK    6  A    between atoms: C_9  and  C_11
REMARK    7  A    between atoms: C_13  and  O_14
REMARK    8  A    between atoms: O_14  and  C_15
REMARK    9  A    between atoms: C_15  and  C_16
REMARK                            x       y       z     vdW  Elec       q    Type
REMARK                         _______ _______ _______ _____ _____    ______ ____
ROOT
ATOM      1  N   UNL     1       1.535   9.241  19.445  0.00  0.00    +0.000 N 
ATOM      2  C   UNL     1       2.103   8.762  18.278  0.00  0.00    +0.000 C 
ATOM      3  O   UNL     1       2.057   9.313  17.184  0.00  0.00    +0.000 OA
ATOM      4  H   UNL     1       1.580   8.572  20.216  0.00  0.00    +0.000 HD
ENDROOT
BRANCH   2   5
ATOM      5  C   UNL     1       2.826   7.458  18.449  0.00  0.00    +0.000 A 
ATOM      6  C   UNL     1       3.904   7.128  17.637  0.00  0.00    +0.000 A 
ATOM      7  C   UNL     1       4.581   5.923  17.863  0.00  0.00    +0.000 A 
ATOM      8  C   UNL     1       4.119   5.072  18.874  0.00  0.00    +0.000 A 
ATOM      9 CL   UNL     1       4.749   3.508  19.221  0.00  0.00    +0.000 Cl
ATOM     10  C   UNL     1       3.026   5.493  19.629  0.00  0.00    +0.000 A 
ATOM     11  N   UNL     1       2.372   6.663  19.455  0.00  0.00    +0.000 NA
BRANCH   7  12
ATOM     12  O   UNL     1       5.609   5.709  16.983  0.00  0.00    +0.000 OA
BRANCH  12  13
ATOM     13  C   UNL     1       5.311   5.716  15.580  0.00  0.00    +0.000 C 
BRANCH  13  14
ATOM     14  C   UNL     1       5.929   4.520  14.854  0.00  0.00    +0.000 C 
ATOM     15  F   UNL     1       5.197   4.111  13.796  0.00  0.00    +0.000 F 
ATOM     16  F   UNL     1       7.165   4.830  14.396  0.00  0.00    +0.000 F 
ATOM     17  F   UNL     1       6.066   3.464  15.690  0.00  0.00    +0.000 F 
ENDBRANCH  13  14
ENDBRANCH  12  13
ENDBRANCH   7  12
ENDBRANCH   2   5
BRANCH   1  18
ATOM     18  C   UNL     1       0.698  10.472  19.587  0.00  0.00    +0.000 C 
ATOM     19  C   UNL     1       1.143  11.716  18.790  0.00  0.00    +0.000 C 
ATOM     20  O   UNL     1       1.608  12.378  19.996  0.00  0.00    +0.000 OA
ATOM     21  C   UNL     1       1.027  11.341  20.818  0.00  0.00    +0.000 C 
BRANCH  18  22
ATOM     22  C   UNL     1      -0.794  10.116  19.560  0.00  0.00    +0.000 C 
BRANCH  22  26
ATOM     23  C   UNL     1      -3.284  11.442  17.000  0.00  0.00    +0.000 C 
ATOM     24  N   UNL     1      -2.497  11.305  18.215  0.00  0.00    +0.000 N 
ATOM     25  C   UNL     1      -2.932  12.037  19.396  0.00  0.00    +0.000 C 
ATOM     26  C   UNL     1      -1.505  10.324  18.236  0.00  0.00    +0.000 C 
ATOM     27  O   UNL     1      -1.228   9.651  17.244  0.00  0.00    +0.000 OA
ENDBRANCH  22  26
ENDBRANCH  18  22
ENDBRANCH   1  18
TORSDOF 7
ENDMDL
MODEL 8
REMARK VINA RESULT:      -6.9      3.504      7.064
REMARK  Name = 
REMARK  9 active torsions:
REMARK  status: ('A' for Active; 'I' for Inactive)
REMARK    1  A    between atoms: C_1  and  N_2
REMARK    2  A    between atoms: N_2  and  C_3
REMARK    3  A    between atoms: C_4  and  C_6
REMARK    4  A    between atoms: C_6  and  C_7
REMARK    5  A    between atoms: C_7  and  N_8
REMARK    6  A    between atoms: C_9  and  C_11
REMARK    7  A    between atoms: C_13  and  O_14
REMARK    8  A    between atoms: O_14  and  C_15
REMARK    9  A    between atoms: C_15  and  C_16
REMARK                            x       y       z     vdW  Elec       q    Type
REMARK                         _______ _______ _______ _____ _____    ______ ____
ROOT
ATOM      1  N   UNL     1       1.476   8.860  19.388  0.00  0.00    +0.000 N 
ATOM      2  C   UNL     1       2.094   8.710  18.159  0.00  0.00    +0.000 C 
ATOM      3  O   UNL     1       2.148   9.561  17.279  0.00  0.00    +0.000 OA
ATOM      4  H   UNL     1       1.435   7.992  19.924  0.00  0.00    +0.000 HD
ENDROOT
BRANCH   2   5
ATOM      5  C   UNL     1       2.737   7.368  17.966  0.00  0.00    +0.000 A 
ATOM      6  C   UNL     1       2.074   6.201  18.326  0.00  0.00    +0.000 A 
ATOM      7  C   UNL     1       2.691   4.967  18.083  0.00  0.00    +0.000 A 
ATOM      8  C   UNL     1       3.975   4.955  17.527  0.00  0.00    +0.000 A 
ATOM      9 CL   UNL     1       4.931   3.547  17.265  0.00  0.00    +0.000 Cl
ATOM     10  C   UNL     1       4.557   6.180  17.208  0.00  0.00    +0.000 A 
ATOM     11  N   UNL     1       3.974   7.385  17.401  0.00  0.00    +0.000 NA
BRANCH   7  12
ATOM     12  O   UNL     1       1.941   3.899  18.501  0.00  0.00    +0.000 OA
BRANCH  12  13
ATOM     13  C   UNL     1       2.333   3.227  19.705  0.00  0.00    +0.000 C 
BRANCH  13  14
ATOM     14  C   UNL     1       1.595   3.767  20.931  0.00  0.00    +0.000 C 
ATOM     15  F   UNL     1       1.280   2.804  21.823  0.00  0.00    +0.000 F 
ATOM     16  F   UNL     1       2.356   4.683  21.577  0.00  0.00    +0.000 F 
ATOM     17  F   UNL     1       0.446   4.385  20.573  0.00  0.00    +0.000 F 
ENDBRANCH  13  14
ENDBRANCH  12  13
ENDBRANCH   7  12
ENDBRANCH   2   5
BRANCH   1  18
ATOM     18  C   UNL     1       0.694  10.048  19.850  0.00  0.00    +0.000 C 
ATOM     19  C   UNL     1      -0.746  10.189  19.316  0.00  0.00    +0.000 C 
ATOM     20  O   UNL     1      -0.363  11.283  18.441  0.00  0.00    +0.000 OA
ATOM     21  C   UNL     1       0.947  11.341  19.048  0.00  0.00    +0.000 C 
BRANCH  18  22
ATOM     22  C   UNL     1       0.915  10.290  21.349  0.00  0.00    +0.000 C 
BRANCH  22  26
ATOM     23  C   UNL     1      -2.042  11.617  23.350  0.00  0.00    +0.000 C 
ATOM     24  N   UNL     1      -0.922  11.550  22.425  0.00  0.00    +0.000 N 
ATOM     25  C   UNL     1      -0.350  12.803  21.954  0.00  0.00    +0.000 C 
ATOM     26  C   UNL     1      -0.332  10.304  22.212  0.00  0.00    +0.000 C 
ATOM     27  O   UNL     1      -0.784   9.272  22.708  0.00  0.00    +0.000 OA
ENDBRANCH  22  26
ENDBRANCH  18  22
ENDBRANCH   1  18
TORSDOF 7
ENDMDL
MODEL 9
REMARK VINA RESULT:      -6.8      2.827      3.410
REMARK  Name = 
REMARK  9 active torsions:
REMARK  status: ('A' for Active; 'I' for Inactive)
REMARK    1  A    between atoms: C_1  and  N_2
REMARK    2  A    between atoms: N_2  and  C_3
REMARK    3  A    between atoms: C_4  and  C_6
REMARK    4  A    between atoms: C_6  and  C_7
REMARK    5  A    between atoms: C_7  and  N_8
REMARK    6  A    between atoms: C_9  and  C_11
REMARK    7  A    between atoms: C_13  and  O_14
REMARK    8  A    between atoms: O_14  and  C_15
REMARK    9  A    between atoms: C_15  and  C_16
REMARK                            x       y       z     vdW  Elec       q    Type
REMARK                         _______ _______ _______ _____ _____    ______ ____
ROOT
ATOM      1  N   UNL     1       3.386   6.270  18.653  0.00  0.00    +0.000 N 
ATOM      2  C   UNL     1       2.873   7.470  18.192  0.00  0.00    +0.000 C 
ATOM      3  O   UNL     1       3.081   7.956  17.087  0.00  0.00    +0.000 OA
ATOM      4  H   UNL     1       3.195   6.107  19.643  0.00  0.00    +0.000 HD
ENDROOT
BRANCH   2   5
ATOM      5  C   UNL     1       1.991   8.170  19.184  0.00  0.00    +0.000 A 
ATOM      6  C   UNL     1       1.279   9.309  18.828  0.00  0.00    +0.000 A 
ATOM      7  C   UNL     1       0.430   9.902  19.770  0.00  0.00    +0.000 A 
ATOM      8  C   UNL     1       0.363   9.351  21.055  0.00  0.00    +0.000 A 
ATOM      9 CL   UNL     1      -0.532  10.008  22.371  0.00  0.00    +0.000 Cl
ATOM     10  C   UNL     1       1.121   8.212  21.315  0.00  0.00    +0.000 A 
ATOM     11  N   UNL     1       1.926   7.599  20.417  0.00  0.00    +0.000 NA
BRANCH   7  12
ATOM     12  O   UNL     1      -0.196  11.026  19.298  0.00  0.00    +0.000 OA
BRANCH  12  13
ATOM     13  C   UNL     1      -1.614  10.973  19.089  0.00  0.00    +0.000 C 
BRANCH  13  14
ATOM     14  C   UNL     1      -2.009  11.479  17.701  0.00  0.00    +0.000 C 
ATOM     15  F   UNL     1      -1.308  12.566  17.317  0.00  0.00    +0.000 F 
ATOM     16  F   UNL     1      -1.805  10.517  16.769  0.00  0.00    +0.000 F 
ATOM     17  F   UNL     1      -3.322  11.803  17.658  0.00  0.00    +0.000 F 
ENDBRANCH  13  14
ENDBRANCH  12  13
ENDBRANCH   7  12
ENDBRANCH   2   5
BRANCH   1  18
ATOM     18  C   UNL     1       4.344   5.377  17.932  0.00  0.00    +0.000 C 
ATOM     19  C   UNL     1       5.567   4.875  18.727  0.00  0.00    +0.000 C 
ATOM     20  O   UNL     1       6.461   5.757  17.999  0.00  0.00    +0.000 OA
ATOM     21  C   UNL     1       5.401   6.114  17.084  0.00  0.00    +0.000 C 
BRANCH  18  22
ATOM     22  C   UNL     1       3.589   4.349  17.080  0.00  0.00    +0.000 C 
BRANCH  22  26
ATOM     23  C   UNL     1       1.027   2.134  18.823  0.00  0.00    +0.000 C 
ATOM     24  N   UNL     1       2.296   2.690  18.384  0.00  0.00    +0.000 N 
ATOM     25  C   UNL     1       3.492   1.879  18.555  0.00  0.00    +0.000 C 
ATOM     26  C   UNL     1       2.262   3.868  17.637  0.00  0.00    +0.000 C 
ATOM     27  O   UNL     1       1.216   4.480  17.425  0.00  0.00    +0.000 OA
ENDBRANCH  22  26
ENDBRANCH  18  22
ENDBRANCH   1  18
TORSDOF 7
ENDMDL
