MODEL 1
REMARK VINA RESULT:      -7.0      0.000      0.000
REMARK  Name = 
REMARK  11 active torsions:
REMARK  status: ('A' for Active; 'I' for Inactive)
REMARK    1  A    between atoms: N_1  and  S_2
REMARK    2  A    between atoms: S_2  and  C_5
REMARK    3  A    between atoms: C_8  and  N_9
REMARK    4  A    between atoms: C_10  and  S_11
REMARK    5  A    between atoms: N_12  and  CA_13
REMARK    6  A    between atoms: CA_13  and  CB_14
REMARK    7  A    between atoms: CA_13  and  C_20
REMARK    8  A    between atoms: CB_14  and  CG_15
REMARK    9  A    between atoms: N_22  and  CA_23
REMARK   10  A    between atoms: CA_23  and  C_24
REMARK   11  A    between atoms: C_24  and  OXT_26
REMARK                            x       y       z     vdW  Elec       q    Type
REMARK                         _______ _______ _______ _____ _____    ______ ____
ROOT
ATOM      1  N   UNK A   0       1.669   7.492  21.355  0.00  0.00    +0.000 N 
ATOM      2  C   UNK A   0       1.147   8.727  21.068  0.00  0.00    +0.000 C 
ATOM      3  N   HIS A   1       1.126   9.267  19.911  0.00  0.00    +0.000 NA
ATOM      4  H   UNK A   0       1.489   7.178  22.300  0.00  0.00    +0.000 HD
ENDROOT
BRANCH   1   8
ATOM      5  C   UNK A   0       2.765   4.423  18.671  0.00  0.00    +0.000 A 
ATOM      6  C   UNK A   0       1.904   4.120  19.718  0.00  0.00    +0.000 A 
ATOM      7  C   UNK A   0       1.494   5.140  20.582  0.00  0.00    +0.000 A 
ATOM      8  C   UNK A   0       1.961   6.455  20.446  0.00  0.00    +0.000 A 
ATOM      9  C   UNK A   0       2.786   6.742  19.348  0.00  0.00    +0.000 A 
ATOM     10  C   UNK A   0       3.200   5.734  18.473  0.00  0.00    +0.000 A 
BRANCH   5  11
ATOM     11  S   UNK A   0       3.374   3.149  17.611  0.00  0.00    +0.000 S 
ATOM     12  O   UNK A   0       4.304   3.715  16.656  0.00  0.00    +0.000 OA
ATOM     13  O   UNK A   0       2.283   2.292  17.215  0.00  0.00    +0.000 OA
BRANCH  11  14
ATOM     14  N   UNK A   0       4.300   2.243  18.678  0.00  0.00    +0.000 NA
ATOM     15  H   UNK A   0       5.291   2.420  18.503  0.00  0.00    +0.000 HD
ATOM     16  H   UNK A   0       4.038   1.260  18.628  0.00  0.00    +0.000 HD
ENDBRANCH  11  14
ENDBRANCH   5  11
ENDBRANCH   1   8
BRANCH   2  17
ATOM     17  S   UNK A   0       0.446   9.473  22.497  0.00  0.00    +0.000 S 
ATOM     18  H   UNK A   0      -0.070   8.352  23.012  0.00  0.00    +0.000 HD
ENDBRANCH   2  17
BRANCH   3  19
ATOM     19  CA  HIS A   1       0.576  10.577  19.555  0.00  0.00    +0.000 C 
BRANCH  19  20
ATOM     20  C   HIS A   1      -0.809  10.449  18.905  0.00  0.00    +0.000 C 
ATOM     21  O   HIS A   1      -1.845  10.771  19.487  0.00  0.00    +0.000 OA
ATOM     22  N   GLY A   2      -0.821   9.955  17.625  0.00  0.00    +0.000 N 
ATOM     23  H   GLY A   2       0.076   9.875  17.145  0.00  0.00    +0.000 HD
BRANCH  22  24
ATOM     24  CA  GLY A   2      -2.044   9.827  16.868  0.00  0.00    +0.000 C 
BRANCH  24  25
ATOM     25  C   GLY A   2      -2.575  11.182  16.426  0.00  0.00    +0.000 C 
ATOM     26  O   GLY A   2      -3.640  11.360  15.849  0.00  0.00    +0.000 OA
BRANCH  25  27
ATOM     27  OXT GLY A   2      -1.731  12.202  16.715  0.00  0.00    +0.000 OA
ATOM     28  HXT GLY A   2      -1.766  12.942  16.078  0.00  0.00    +0.000 HD
ENDBRANCH  25  27
ENDBRANCH  24  25
ENDBRANCH  22  24
ENDBRANCH  19  20
BRANCH  19  29
ATOM     29  CB  HIS A   1       1.544  11.283  18.589  0.00  0.00    +0.000 C 
BRANCH  29  30
ATOM     30  CG  HIS A   1       1.633  12.770  18.754  0.00  0.00    +0.000 A 
ATOM     31  CD2 HIS A   1       2.722  13.540  19.107  0.00  0.00    +0.000 A 
ATOM     32  NE2 HIS A   1       2.264  14.829  19.130  0.00  0.00    +0.000 N 
ATOM     33  CE1 HIS A   1       0.943  14.801  18.789  0.00  0.00    +0.000 A 
ATOM     34  ND1 HIS A   1       0.544  13.579  18.523  0.00  0.00    +0.000 NA
ATOM     35  HE2 HIS A   1       2.796  15.655  19.359  0.00  0.00    +0.000 HD
ENDBRANCH  29  30
ENDBRANCH  19  29
ENDBRANCH   3  19
TORSDOF 11
ENDMDL
MODEL 2
REMARK VINA RESULT:      -7.0      2.855      4.672
REMARK  Name = 
REMARK  11 active torsions:
REMARK  status: ('A' for Active; 'I' for Inactive)
REMARK    1  A    between atoms: N_1  and  S_2
REMARK    2  A    between atoms: S_2  and  C_5
REMARK    3  A    between atoms: C_8  and  N_9
REMARK    4  A    between atoms: C_10  and  S_11
REMARK    5  A    between atoms: N_12  and  CA_13
REMARK    6  A    between atoms: CA_13  and  CB_14
REMARK    7  A    between atoms: CA_13  and  C_20
REMARK    8  A    between atoms: CB_14  and  CG_15
REMARK    9  A    between atoms: N_22  and  CA_23
REMARK   10  A    between atoms: CA_23  and  C_24
REMARK   11  A    between atoms: C_24  and  OXT_26
REMARK                            x       y       z     vdW  Elec       q    Type
REMARK                         _______ _______ _______ _____ _____    ______ ____
ROOT
ATOM      1  N   UNK A   0       2.612   8.889  18.046  0.00  0.00    +0.000 N 
ATOM      2  C   UNK A   0       1.592   9.805  18.094  0.00  0.00    +0.000 C 
ATOM      3  N   HIS A   1       0.354   9.523  18.237  0.00  0.00    +0.000 NA
ATOM      4  H   UNK A   0       3.535   9.301  18.051  0.00  0.00    +0.000 HD
ENDROOT
BRANCH   1   8
ATOM      5  C   UNK A   0       2.283   4.899  19.386  0.00  0.00    +0.000 A 
ATOM      6  C   UNK A   0       2.653   5.133  18.068  0.00  0.00    +0.000 A 
ATOM      7  C   UNK A   0       2.814   6.452  17.628  0.00  0.00    +0.000 A 
ATOM      8  C   UNK A   0       2.574   7.546  18.470  0.00  0.00    +0.000 A 
ATOM      9  C   UNK A   0       2.255   7.277  19.811  0.00  0.00    +0.000 A 
ATOM     10  C   UNK A   0       2.095   5.966  20.266  0.00  0.00    +0.000 A 
BRANCH   5  11
ATOM     11  S   UNK A   0       1.985   3.255  19.956  0.00  0.00    +0.000 S 
ATOM     12  O   UNK A   0       0.837   3.248  20.840  0.00  0.00    +0.000 OA
ATOM     13  O   UNK A   0       3.238   2.635  20.309  0.00  0.00    +0.000 OA
BRANCH  11  14
ATOM     14  N   UNK A   0       1.486   2.499  18.543  0.00  0.00    +0.000 NA
ATOM     15  H   UNK A   0       0.729   1.846  18.757  0.00  0.00    +0.000 HD
ATOM     16  H   UNK A   0       2.281   2.072  18.070  0.00  0.00    +0.000 HD
ENDBRANCH  11  14
ENDBRANCH   5  11
ENDBRANCH   1   8
BRANCH   2  17
ATOM     17  S   UNK A   0       2.204  11.449  17.990  0.00  0.00    +0.000 S 
ATOM     18  H   UNK A   0       2.963  11.257  16.906  0.00  0.00    +0.000 HD
ENDBRANCH   2  17
BRANCH   3  19
ATOM     19  CA  HIS A   1      -0.767  10.464  18.299  0.00  0.00    +0.000 C 
BRANCH  19  20
ATOM     20  C   HIS A   1      -0.918  11.068  19.702  0.00  0.00    +0.000 C 
ATOM     21  O   HIS A   1      -1.462  12.154  19.898  0.00  0.00    +0.000 OA
ATOM     22  N   GLY A   2      -0.410  10.315  20.731  0.00  0.00    +0.000 N 
ATOM     23  H   GLY A   2      -0.134   9.356  20.518  0.00  0.00    +0.000 HD
BRANCH  22  24
ATOM     24  CA  GLY A   2      -0.526  10.731  22.109  0.00  0.00    +0.000 C 
BRANCH  24  25
ATOM     25  C   GLY A   2      -0.246   9.584  23.067  0.00  0.00    +0.000 C 
ATOM     26  O   GLY A   2       0.523   9.641  24.018  0.00  0.00    +0.000 OA
BRANCH  25  27
ATOM     27  OXT GLY A   2      -0.924   8.454  22.754  0.00  0.00    +0.000 OA
ATOM     28  HXT GLY A   2      -0.709   7.689  23.322  0.00  0.00    +0.000 HD
ENDBRANCH  25  27
ENDBRANCH  24  25
ENDBRANCH  22  24
ENDBRANCH  19  20
BRANCH  19  29
ATOM     29  CB  HIS A   1      -2.061   9.730  17.903  0.00  0.00    +0.000 C 
BRANCH  29  30
ATOM     30  CG  HIS A   1      -3.070  10.570  17.180  0.00  0.00    +0.000 A 
ATOM     31  CD2 HIS A   1      -3.080  10.969  15.859  0.00  0.00    +0.000 A 
ATOM     32  NE2 HIS A   1      -4.208  11.729  15.718  0.00  0.00    +0.000 N 
ATOM     33  CE1 HIS A   1      -4.838  11.758  16.927  0.00  0.00    +0.000 A 
ATOM     34  ND1 HIS A   1      -4.195  11.041  17.819  0.00  0.00    +0.000 NA
ATOM     35  HE2 HIS A   1      -4.524  12.191  14.878  0.00  0.00    +0.000 HD
ENDBRANCH  29  30
ENDBRANCH  19  29
ENDBRANCH   3  19
TORSDOF 11
ENDMDL
MODEL 3
REMARK VINA RESULT:      -7.0      3.131      8.736
REMARK  Name = 
REMARK  11 active torsions:
REMARK  status: ('A' for Active; 'I' for Inactive)
REMARK    1  A    between atoms: N_1  and  S_2
REMARK    2  A    between atoms: S_2  and  C_5
REMARK    3  A    between atoms: C_8  and  N_9
REMARK    4  A    between atoms: C_10  and  S_11
REMARK    5  A    between atoms: N_12  and  CA_13
REMARK    6  A    between atoms: CA_13  and  CB_14
REMARK    7  A    between atoms: CA_13  and  C_20
REMARK    8  A    between atoms: CB_14  and  CG_15
REMARK    9  A    between atoms: N_22  and  CA_23
REMARK   10  A    between atoms: CA_23  and  C_24
REMARK   11  A    between atoms: C_24  and  OXT_26
REMARK                            x       y       z     vdW  Elec       q    Type
REMARK                         _______ _______ _______ _____ _____    ______ ____
ROOT
ATOM      1  N   UNK A   0       1.426   7.216  20.359  0.00  0.00    +0.000 N 
ATOM      2  C   UNK A   0       2.271   6.254  19.868  0.00  0.00    +0.000 C 
ATOM      3  N   HIS A   1       2.861   6.300  18.736  0.00  0.00    +0.000 NA
ATOM      4  H   UNK A   0       1.148   7.068  21.320  0.00  0.00    +0.000 HD
ENDROOT
BRANCH   1   8
ATOM      5  C   UNK A   0       1.187  11.270  19.205  0.00  0.00    +0.000 A 
ATOM      6  C   UNK A   0       1.576  10.328  18.261  0.00  0.00    +0.000 A 
ATOM      7  C   UNK A   0       1.609   8.976  18.619  0.00  0.00    +0.000 A 
ATOM      8  C   UNK A   0       1.299   8.548  19.918  0.00  0.00    +0.000 A 
ATOM      9  C   UNK A   0       0.857   9.516  20.833  0.00  0.00    +0.000 A 
ATOM     10  C   UNK A   0       0.814  10.870  20.489  0.00  0.00    +0.000 A 
BRANCH   5  11
ATOM     11  S   UNK A   0       1.216  12.992  18.819  0.00  0.00    +0.000 S 
ATOM     12  O   UNK A   0       1.797  13.728  19.923  0.00  0.00    +0.000 OA
ATOM     13  O   UNK A   0      -0.037  13.369  18.212  0.00  0.00    +0.000 OA
BRANCH  11  14
ATOM     14  N   UNK A   0       2.352  13.037  17.584  0.00  0.00    +0.000 NA
ATOM     15  H   UNK A   0       2.967  13.841  17.718  0.00  0.00    +0.000 HD
ATOM     16  H   UNK A   0       1.889  13.015  16.677  0.00  0.00    +0.000 HD
ENDBRANCH  11  14
ENDBRANCH   5  11
ENDBRANCH   1   8
BRANCH   2  17
ATOM     17  S   UNK A   0       2.498   4.950  21.025  0.00  0.00    +0.000 S 
ATOM     18  H   UNK A   0       2.496   5.720  22.118  0.00  0.00    +0.000 HD
ENDBRANCH   2  17
BRANCH   3  19
ATOM     19  CA  HIS A   1       3.775   5.304  18.172  0.00  0.00    +0.000 C 
BRANCH  19  20
ATOM     20  C   HIS A   1       4.920   5.966  17.393  0.00  0.00    +0.000 C 
ATOM     21  O   HIS A   1       4.724   6.826  16.535  0.00  0.00    +0.000 OA
ATOM     22  N   GLY A   2       6.183   5.540  17.718  0.00  0.00    +0.000 N 
ATOM     23  H   GLY A   2       6.282   4.960  18.551  0.00  0.00    +0.000 HD
BRANCH  22  24
ATOM     24  CA  GLY A   2       7.360   6.110  17.106  0.00  0.00    +0.000 C 
BRANCH  24  25
ATOM     25  C   GLY A   2       7.786   7.396  17.797  0.00  0.00    +0.000 C 
ATOM     26  O   GLY A   2       7.591   8.522  17.357  0.00  0.00    +0.000 OA
BRANCH  25  27
ATOM     27  OXT GLY A   2       8.439   7.180  18.964  0.00  0.00    +0.000 OA
ATOM     28  HXT GLY A   2       9.379   6.936  18.856  0.00  0.00    +0.000 HD
ENDBRANCH  25  27
ENDBRANCH  24  25
ENDBRANCH  22  24
ENDBRANCH  19  20
BRANCH  19  29
ATOM     29  CB  HIS A   1       2.984   4.365  17.243  0.00  0.00    +0.000 C 
BRANCH  29  30
ATOM     30  CG  HIS A   1       2.287   3.230  17.930  0.00  0.00    +0.000 A 
ATOM     31  CD2 HIS A   1       2.818   2.054  18.419  0.00  0.00    +0.000 A 
ATOM     32  NE2 HIS A   1       1.756   1.362  18.934  0.00  0.00    +0.000 N 
ATOM     33  CE1 HIS A   1       0.642   2.128  18.754  0.00  0.00    +0.000 A 
ATOM     34  ND1 HIS A   1       0.935   3.273  18.184  0.00  0.00    +0.000 NA
ATOM     35  HE2 HIS A   1       1.782   0.451  19.367  0.00  0.00    +0.000 HD
ENDBRANCH  29  30
ENDBRANCH  19  29
ENDBRANCH   3  19
TORSDOF 11
ENDMDL
MODEL 4
REMARK VINA RESULT:      -7.0      2.880      4.604
REMARK  Name = 
REMARK  11 active torsions:
REMARK  status: ('A' for Active; 'I' for Inactive)
REMARK    1  A    between atoms: N_1  and  S_2
REMARK    2  A    between atoms: S_2  and  C_5
REMARK    3  A    between atoms: C_8  and  N_9
REMARK    4  A    between atoms: C_10  and  S_11
REMARK    5  A    between atoms: N_12  and  CA_13
REMARK    6  A    between atoms: CA_13  and  CB_14
REMARK    7  A    between atoms: CA_13  and  C_20
REMARK    8  A    between atoms: CB_14  and  CG_15
REMARK    9  A    between atoms: N_22  and  CA_23
REMARK   10  A    between atoms: CA_23  and  C_24
REMARK   11  A    between atoms: C_24  and  OXT_26
REMARK                            x       y       z     vdW  Elec       q    Type
REMARK                         _______ _______ _______ _____ _____    ______ ____
ROOT
ATOM      1  N   UNK A   0       2.753   8.523  18.009  0.00  0.00    +0.000 N 
ATOM      2  C   UNK A   0       1.802   9.510  18.069  0.00  0.00    +0.000 C 
ATOM      3  N   HIS A   1       0.553   9.320  18.261  0.00  0.00    +0.000 NA
ATOM      4  H   UNK A   0       3.703   8.869  17.971  0.00  0.00    +0.000 HD
ENDROOT
BRANCH   1   8
ATOM      5  C   UNK A   0       2.629   4.519  19.342  0.00  0.00    +0.000 A 
ATOM      6  C   UNK A   0       2.167   5.520  20.187  0.00  0.00    +0.000 A 
ATOM      7  C   UNK A   0       2.156   6.844  19.736  0.00  0.00    +0.000 A 
ATOM      8  C   UNK A   0       2.637   7.195  18.467  0.00  0.00    +0.000 A 
ATOM      9  C   UNK A   0       3.046   6.157  17.615  0.00  0.00    +0.000 A 
ATOM     10  C   UNK A   0       3.058   4.829  18.050  0.00  0.00    +0.000 A 
BRANCH   5  11
ATOM     11  S   UNK A   0       2.740   2.849  19.903  0.00  0.00    +0.000 S 
ATOM     12  O   UNK A   0       1.927   2.681  21.090  0.00  0.00    +0.000 OA
ATOM     13  O   UNK A   0       4.111   2.410  19.835  0.00  0.00    +0.000 OA
BRANCH  11  14
ATOM     14  N   UNK A   0       1.939   2.032  18.675  0.00  0.00    +0.000 NA
ATOM     15  H   UNK A   0       0.957   2.312  18.664  0.00  0.00    +0.000 HD
ATOM     16  H   UNK A   0       2.084   1.027  18.765  0.00  0.00    +0.000 HD
ENDBRANCH  11  14
ENDBRANCH   5  11
ENDBRANCH   1   8
BRANCH   2  17
ATOM     17  S   UNK A   0       2.523  11.104  17.904  0.00  0.00    +0.000 S 
ATOM     18  H   UNK A   0       1.559  11.771  18.547  0.00  0.00    +0.000 HD
ENDBRANCH   2  17
BRANCH   3  19
ATOM     19  CA  HIS A   1      -0.496  10.338  18.339  0.00  0.00    +0.000 C 
BRANCH  19  20
ATOM     20  C   HIS A   1      -0.520  11.018  19.716  0.00  0.00    +0.000 C 
ATOM     21  O   HIS A   1      -0.537  12.242  19.848  0.00  0.00    +0.000 OA
ATOM     22  N   GLY A   2      -0.527  10.172  20.796  0.00  0.00    +0.000 N 
ATOM     23  H   GLY A   2      -0.688   9.181  20.614  0.00  0.00    +0.000 HD
BRANCH  22  24
ATOM     24  CA  GLY A   2      -0.601  10.666  22.151  0.00  0.00    +0.000 C 
BRANCH  24  25
ATOM     25  C   GLY A   2      -0.286   9.577  23.164  0.00  0.00    +0.000 C 
ATOM     26  O   GLY A   2       0.504   9.695  24.093  0.00  0.00    +0.000 OA
BRANCH  25  27
ATOM     27  OXT GLY A   2      -0.958   8.424  22.930  0.00  0.00    +0.000 OA
ATOM     28  HXT GLY A   2      -0.383   7.643  22.817  0.00  0.00    +0.000 HD
ENDBRANCH  25  27
ENDBRANCH  24  25
ENDBRANCH  22  24
ENDBRANCH  19  20
BRANCH  19  29
ATOM     29  CB  HIS A   1      -1.858   9.679  18.057  0.00  0.00    +0.000 C 
BRANCH  29  30
ATOM     30  CG  HIS A   1      -2.691  10.364  17.017  0.00  0.00    +0.000 A 
ATOM     31  CD2 HIS A   1      -3.604  11.387  17.170  0.00  0.00    +0.000 A 
ATOM     32  NE2 HIS A   1      -4.092  11.630  15.916  0.00  0.00    +0.000 N 
ATOM     33  CE1 HIS A   1      -3.467  10.772  15.059  0.00  0.00    +0.000 A 
ATOM     34  ND1 HIS A   1      -2.593  10.021  15.687  0.00  0.00    +0.000 NA
ATOM     35  HE2 HIS A   1      -4.789  12.314  15.661  0.00  0.00    +0.000 HD
ENDBRANCH  29  30
ENDBRANCH  19  29
ENDBRANCH   3  19
TORSDOF 11
ENDMDL
MODEL 5
REMARK VINA RESULT:      -7.0      4.171      9.025
REMARK  Name = 
REMARK  11 active torsions:
REMARK  status: ('A' for Active; 'I' for Inactive)
REMARK    1  A    between atoms: N_1  and  S_2
REMARK    2  A    between atoms: S_2  and  C_5
REMARK    3  A    between atoms: C_8  and  N_9
REMARK    4  A    between atoms: C_10  and  S_11
REMARK    5  A    between atoms: N_12  and  CA_13
REMARK    6  A    between atoms: CA_13  and  CB_14
REMARK    7  A    between atoms: CA_13  and  C_20
REMARK    8  A    between atoms: CB_14  and  CG_15
REMARK    9  A    between atoms: N_22  and  CA_23
REMARK   10  A    between atoms: CA_23  and  C_24
REMARK   11  A    between atoms: C_24  and  OXT_26
REMARK                            x       y       z     vdW  Elec       q    Type
REMARK                         _______ _______ _______ _____ _____    ______ ____
ROOT
ATOM      1  N   UNK A   0       2.527   4.629  18.641  0.00  0.00    +0.000 N 
ATOM      2  C   UNK A   0       3.593   4.214  17.885  0.00  0.00    +0.000 C 
ATOM      3  N   HIS A   1       4.345   4.978  17.190  0.00  0.00    +0.000 NA
ATOM      4  H   UNK A   0       2.124   3.902  19.218  0.00  0.00    +0.000 HD
ENDROOT
BRANCH   1   8
ATOM      5  C   UNK A   0       1.532   8.566  19.799  0.00  0.00    +0.000 A 
ATOM      6  C   UNK A   0       1.506   7.560  20.757  0.00  0.00    +0.000 A 
ATOM      7  C   UNK A   0       1.884   6.262  20.395  0.00  0.00    +0.000 A 
ATOM      8  C   UNK A   0       2.249   5.939  19.081  0.00  0.00    +0.000 A 
ATOM      9  C   UNK A   0       2.318   6.985  18.148  0.00  0.00    +0.000 A 
ATOM     10  C   UNK A   0       1.949   8.288  18.496  0.00  0.00    +0.000 A 
BRANCH   5  11
ATOM     11  S   UNK A   0       0.982  10.196  20.192  0.00  0.00    +0.000 S 
ATOM     12  O   UNK A   0       1.438  11.122  19.176  0.00  0.00    +0.000 OA
ATOM     13  O   UNK A   0       1.169  10.439  21.601  0.00  0.00    +0.000 OA
BRANCH  11  14
ATOM     14  N   UNK A   0      -0.676  10.048  19.972  0.00  0.00    +0.000 NA
ATOM     15  H   UNK A   0      -1.125  10.947  20.160  0.00  0.00    +0.000 HD
ATOM     16  H   UNK A   0      -1.040   9.277  20.530  0.00  0.00    +0.000 HD
ENDBRANCH  11  14
ENDBRANCH   5  11
ENDBRANCH   1   8
BRANCH   2  17
ATOM     17  S   UNK A   0       3.845   2.480  18.031  0.00  0.00    +0.000 S 
ATOM     18  H   UNK A   0       2.575   2.169  18.314  0.00  0.00    +0.000 HD
ENDBRANCH   2  17
BRANCH   3  19
ATOM     19  CA  HIS A   1       5.495   4.583  16.374  0.00  0.00    +0.000 C 
BRANCH  19  20
ATOM     20  C   HIS A   1       6.820   4.995  17.031  0.00  0.00    +0.000 C 
ATOM     21  O   HIS A   1       7.890   4.450  16.760  0.00  0.00    +0.000 OA
ATOM     22  N   GLY A   2       6.739   6.018  17.942  0.00  0.00    +0.000 N 
ATOM     23  H   GLY A   2       5.861   6.536  17.988  0.00  0.00    +0.000 HD
BRANCH  22  24
ATOM     24  CA  GLY A   2       7.910   6.546  18.601  0.00  0.00    +0.000 C 
BRANCH  24  25
ATOM     25  C   GLY A   2       8.174   7.991  18.204  0.00  0.00    +0.000 C 
ATOM     26  O   GLY A   2       8.839   8.784  18.859  0.00  0.00    +0.000 OA
BRANCH  25  27
ATOM     27  OXT GLY A   2       7.575   8.339  17.041  0.00  0.00    +0.000 OA
ATOM     28  HXT GLY A   2       6.895   9.035  17.134  0.00  0.00    +0.000 HD
ENDBRANCH  25  27
ENDBRANCH  24  25
ENDBRANCH  22  24
ENDBRANCH  19  20
BRANCH  19  29
ATOM     29  CB  HIS A   1       5.375   5.238  14.985  0.00  0.00    +0.000 C 
BRANCH  29  30
ATOM     30  CG  HIS A   1       5.791   4.370  13.837  0.00  0.00    +0.000 A 
ATOM     31  CD2 HIS A   1       7.060   4.103  13.366  0.00  0.00    +0.000 A 
ATOM     32  NE2 HIS A   1       6.883   3.269  12.296  0.00  0.00    +0.000 N 
ATOM     33  CE1 HIS A   1       5.542   3.055  12.161  0.00  0.00    +0.000 A 
ATOM     34  ND1 HIS A   1       4.862   3.676  13.095  0.00  0.00    +0.000 NA
ATOM     35  HE2 HIS A   1       7.604   2.881  11.707  0.00  0.00    +0.000 HD
ENDBRANCH  29  30
ENDBRANCH  19  29
ENDBRANCH   3  19
TORSDOF 11
ENDMDL
MODEL 6
REMARK VINA RESULT:      -6.9      2.864      4.561
REMARK  Name = 
REMARK  11 active torsions:
REMARK  status: ('A' for Active; 'I' for Inactive)
REMARK    1  A    between atoms: N_1  and  S_2
REMARK    2  A    between atoms: S_2  and  C_5
REMARK    3  A    between atoms: C_8  and  N_9
REMARK    4  A    between atoms: C_10  and  S_11
REMARK    5  A    between atoms: N_12  and  CA_13
REMARK    6  A    between atoms: CA_13  and  CB_14
REMARK    7  A    between atoms: CA_13  and  C_20
REMARK    8  A    between atoms: CB_14  and  CG_15
REMARK    9  A    between atoms: N_22  and  CA_23
REMARK   10  A    between atoms: CA_23  and  C_24
REMARK   11  A    between atoms: C_24  and  OXT_26
REMARK                            x       y       z     vdW  Elec       q    Type
REMARK                         _______ _______ _______ _____ _____    ______ ____
ROOT
ATOM      1  N   UNK A   0       2.599   8.591  18.158  0.00  0.00    +0.000 N 
ATOM      2  C   UNK A   0       1.631   9.562  18.154  0.00  0.00    +0.000 C 
ATOM      3  N   HIS A   1       0.383   9.360  18.333  0.00  0.00    +0.000 NA
ATOM      4  H   UNK A   0       3.544   8.951  18.120  0.00  0.00    +0.000 HD
ENDROOT
BRANCH   1   8
ATOM      5  C   UNK A   0       2.513   4.647  19.664  0.00  0.00    +0.000 A 
ATOM      6  C   UNK A   0       2.106   5.688  20.490  0.00  0.00    +0.000 A 
ATOM      7  C   UNK A   0       2.082   6.992  19.984  0.00  0.00    +0.000 A 
ATOM      8  C   UNK A   0       2.497   7.284  18.677  0.00  0.00    +0.000 A 
ATOM      9  C   UNK A   0       2.851   6.207  17.850  0.00  0.00    +0.000 A 
ATOM     10  C   UNK A   0       2.875   4.898  18.340  0.00  0.00    +0.000 A 
BRANCH   5  11
ATOM     11  S   UNK A   0       2.641   3.002  20.290  0.00  0.00    +0.000 S 
ATOM     12  O   UNK A   0       4.035   2.614  20.358  0.00  0.00    +0.000 OA
ATOM     13  O   UNK A   0       1.636   2.174  19.670  0.00  0.00    +0.000 OA
BRANCH  11  14
ATOM     14  N   UNK A   0       2.140   3.210  21.878  0.00  0.00    +0.000 NA
ATOM     15  H   UNK A   0       2.954   3.390  22.470  0.00  0.00    +0.000 HD
ATOM     16  H   UNK A   0       1.574   2.418  22.179  0.00  0.00    +0.000 HD
ENDBRANCH  11  14
ENDBRANCH   5  11
ENDBRANCH   1   8
BRANCH   2  17
ATOM     17  S   UNK A   0       2.329  11.159  17.924  0.00  0.00    +0.000 S 
ATOM     18  H   UNK A   0       3.585  10.746  17.726  0.00  0.00    +0.000 HD
ENDBRANCH   2  17
BRANCH   3  19
ATOM     19  CA  HIS A   1      -0.685  10.362  18.343  0.00  0.00    +0.000 C 
BRANCH  19  20
ATOM     20  C   HIS A   1      -0.812  11.036  19.717  0.00  0.00    +0.000 C 
ATOM     21  O   HIS A   1      -1.454  12.071  19.888  0.00  0.00    +0.000 OA
ATOM     22  N   GLY A   2      -0.165  10.404  20.750  0.00  0.00    +0.000 N 
ATOM     23  H   GLY A   2       0.197   9.467  20.573  0.00  0.00    +0.000 HD
BRANCH  22  24
ATOM     24  CA  GLY A   2      -0.239  10.893  22.107  0.00  0.00    +0.000 C 
BRANCH  24  25
ATOM     25  C   GLY A   2      -0.068   9.770  23.118  0.00  0.00    +0.000 C 
ATOM     26  O   GLY A   2       0.896   9.641  23.862  0.00  0.00    +0.000 OA
BRANCH  25  27
ATOM     27  OXT GLY A   2      -1.096   8.887  23.109  0.00  0.00    +0.000 OA
ATOM     28  HXT GLY A   2      -1.206   8.393  23.945  0.00  0.00    +0.000 HD
ENDBRANCH  25  27
ENDBRANCH  24  25
ENDBRANCH  22  24
ENDBRANCH  19  20
BRANCH  19  29
ATOM     29  CB  HIS A   1      -2.015   9.685  17.968  0.00  0.00    +0.000 C 
BRANCH  29  30
ATOM     30  CG  HIS A   1      -2.936  10.517  17.130  0.00  0.00    +0.000 A 
ATOM     31  CD2 HIS A   1      -2.848  10.827  15.788  0.00  0.00    +0.000 A 
ATOM     32  NE2 HIS A   1      -3.928  11.625  15.527  0.00  0.00    +0.000 N 
ATOM     33  CE1 HIS A   1      -4.626  11.764  16.690  0.00  0.00    +0.000 A 
ATOM     34  ND1 HIS A   1      -4.073  11.081  17.665  0.00  0.00    +0.000 NA
ATOM     35  HE2 HIS A   1      -4.170  12.042  14.640  0.00  0.00    +0.000 HD
ENDBRANCH  29  30
ENDBRANCH  19  29
ENDBRANCH   3  19
TORSDOF 11
ENDMDL
MODEL 7
REMARK VINA RESULT:      -6.9      2.763      4.592
REMARK  Name = 
REMARK  11 active torsions:
REMARK  status: ('A' for Active; 'I' for Inactive)
REMARK    1  A    between atoms: N_1  and  S_2
REMARK    2  A    between atoms: S_2  and  C_5
REMARK    3  A    between atoms: C_8  and  N_9
REMARK    4  A    between atoms: C_10  and  S_11
REMARK    5  A    between atoms: N_12  and  CA_13
REMARK    6  A    between atoms: CA_13  and  CB_14
REMARK    7  A    between atoms: CA_13  and  C_20
REMARK    8  A    between atoms: CB_14  and  CG_15
REMARK    9  A    between atoms: N_22  and  CA_23
REMARK   10  A    between atoms: CA_23  and  C_24
REMARK   11  A    between atoms: C_24  and  OXT_26
REMARK                            x       y       z     vdW  Elec       q    Type
REMARK                         _______ _______ _______ _____ _____    ______ ____
ROOT
ATOM      1  N   UNK A   0       2.448   8.694  18.241  0.00  0.00    +0.000 N 
ATOM      2  C   UNK A   0       1.525   9.707  18.192  0.00  0.00    +0.000 C 
ATOM      3  N   HIS A   1       0.270   9.572  18.390  0.00  0.00    +0.000 NA
ATOM      4  H   UNK A   0       3.408   9.008  18.178  0.00  0.00    +0.000 HD
ENDROOT
BRANCH   1   8
ATOM      5  C   UNK A   0       2.191   4.837  19.939  0.00  0.00    +0.000 A 
ATOM      6  C   UNK A   0       1.957   5.941  20.749  0.00  0.00    +0.000 A 
ATOM      7  C   UNK A   0       1.989   7.222  20.185  0.00  0.00    +0.000 A 
ATOM      8  C   UNK A   0       2.292   7.424  18.831  0.00  0.00    +0.000 A 
ATOM      9  C   UNK A   0       2.470   6.288  18.027  0.00  0.00    +0.000 A 
ATOM     10  C   UNK A   0       2.436   5.003  18.575  0.00  0.00    +0.000 A 
BRANCH   5  11
ATOM     11  S   UNK A   0       2.245   3.213  20.629  0.00  0.00    +0.000 S 
ATOM     12  O   UNK A   0       1.336   2.348  19.905  0.00  0.00    +0.000 OA
ATOM     13  O   UNK A   0       2.250   3.302  22.068  0.00  0.00    +0.000 OA
BRANCH  11  14
ATOM     14  N   UNK A   0       3.792   2.721  20.199  0.00  0.00    +0.000 NA
ATOM     15  H   UNK A   0       3.995   1.820  20.635  0.00  0.00    +0.000 HD
ATOM     16  H   UNK A   0       4.469   3.451  20.418  0.00  0.00    +0.000 HD
ENDBRANCH  11  14
ENDBRANCH   5  11
ENDBRANCH   1   8
BRANCH   2  17
ATOM     17  S   UNK A   0       2.292  11.256  17.871  0.00  0.00    +0.000 S 
ATOM     18  H   UNK A   0       1.578  11.553  16.780  0.00  0.00    +0.000 HD
ENDBRANCH   2  17
BRANCH   3  19
ATOM     19  CA  HIS A   1      -0.750  10.621  18.354  0.00  0.00    +0.000 C 
BRANCH  19  20
ATOM     20  C   HIS A   1      -0.725  11.477  19.629  0.00  0.00    +0.000 C 
ATOM     21  O   HIS A   1      -1.191  12.615  19.670  0.00  0.00    +0.000 OA
ATOM     22  N   GLY A   2      -0.151  10.888  20.728  0.00  0.00    +0.000 N 
ATOM     23  H   GLY A   2       0.054   9.890  20.671  0.00  0.00    +0.000 HD
BRANCH  22  24
ATOM     24  CA  GLY A   2      -0.102  11.552  22.009  0.00  0.00    +0.000 C 
BRANCH  24  25
ATOM     25  C   GLY A   2      -1.053  10.912  23.009  0.00  0.00    +0.000 C 
ATOM     26  O   GLY A   2      -2.157  11.353  23.303  0.00  0.00    +0.000 OA
BRANCH  25  27
ATOM     27  OXT GLY A   2      -0.549   9.792  23.579  0.00  0.00    +0.000 OA
ATOM     28  HXT GLY A   2      -0.164   9.158  22.943  0.00  0.00    +0.000 HD
ENDBRANCH  25  27
ENDBRANCH  24  25
ENDBRANCH  22  24
ENDBRANCH  19  20
BRANCH  19  29
ATOM     29  CB  HIS A   1      -2.136   9.970  18.189  0.00  0.00    +0.000 C 
BRANCH  29  30
ATOM     30  CG  HIS A   1      -2.909  10.421  16.987  0.00  0.00    +0.000 A 
ATOM     31  CD2 HIS A   1      -3.895  11.382  16.899  0.00  0.00    +0.000 A 
ATOM     32  NE2 HIS A   1      -4.279  11.391  15.587  0.00  0.00    +0.000 N 
ATOM     33  CE1 HIS A   1      -3.524  10.462  14.932  0.00  0.00    +0.000 A 
ATOM     34  ND1 HIS A   1      -2.666   9.886  15.742  0.00  0.00    +0.000 NA
ATOM     35  HE2 HIS A   1      -4.991  11.971  15.170  0.00  0.00    +0.000 HD
ENDBRANCH  29  30
ENDBRANCH  19  29
ENDBRANCH   3  19
TORSDOF 11
ENDMDL
MODEL 8
REMARK VINA RESULT:      -6.8      4.264      9.016
REMARK  Name = 
REMARK  11 active torsions:
REMARK  status: ('A' for Active; 'I' for Inactive)
REMARK    1  A    between atoms: N_1  and  S_2
REMARK    2  A    between atoms: S_2  and  C_5
REMARK    3  A    between atoms: C_8  and  N_9
REMARK    4  A    between atoms: C_10  and  S_11
REMARK    5  A    between atoms: N_12  and  CA_13
REMARK    6  A    between atoms: CA_13  and  CB_14
REMARK    7  A    between atoms: CA_13  and  C_20
REMARK    8  A    between atoms: CB_14  and  CG_15
REMARK    9  A    between atoms: N_22  and  CA_23
REMARK   10  A    between atoms: CA_23  and  C_24
REMARK   11  A    between atoms: C_24  and  OXT_26
REMARK                            x       y       z     vdW  Elec       q    Type
REMARK                         _______ _______ _______ _____ _____    ______ ____
ROOT
ATOM      1  N   UNK A   0       2.618   5.261  18.866  0.00  0.00    +0.000 N 
ATOM      2  C   UNK A   0       3.684   4.767  18.159  0.00  0.00    +0.000 C 
ATOM      3  N   HIS A   1       4.365   5.421  17.299  0.00  0.00    +0.000 NA
ATOM      4  H   UNK A   0       2.279   4.639  19.588  0.00  0.00    +0.000 HD
ENDROOT
BRANCH   1   8
ATOM      5  C   UNK A   0       1.421   9.289  19.285  0.00  0.00    +0.000 A 
ATOM      6  C   UNK A   0       1.464   8.483  20.415  0.00  0.00    +0.000 A 
ATOM      7  C   UNK A   0       1.908   7.161  20.296  0.00  0.00    +0.000 A 
ATOM      8  C   UNK A   0       2.274   6.614  19.058  0.00  0.00    +0.000 A 
ATOM      9  C   UNK A   0       2.272   7.468  17.944  0.00  0.00    +0.000 A 
ATOM     10  C   UNK A   0       1.836   8.791  18.048  0.00  0.00    +0.000 A 
BRANCH   5  11
ATOM     11  S   UNK A   0       0.786  10.933  19.378  0.00  0.00    +0.000 S 
ATOM     12  O   UNK A   0       1.789  11.869  18.913  0.00  0.00    +0.000 OA
ATOM     13  O   UNK A   0       0.083  11.106  20.625  0.00  0.00    +0.000 OA
BRANCH  11  14
ATOM     14  N   UNK A   0      -0.400  10.898  18.190  0.00  0.00    +0.000 NA
ATOM     15  H   UNK A   0      -1.217  11.421  18.510  0.00  0.00    +0.000 HD
ATOM     16  H   UNK A   0      -0.601   9.937  17.918  0.00  0.00    +0.000 HD
ENDBRANCH  11  14
ENDBRANCH   5  11
ENDBRANCH   1   8
BRANCH   2  17
ATOM     17  S   UNK A   0       4.047   3.111  18.623  0.00  0.00    +0.000 S 
ATOM     18  H   UNK A   0       4.698   3.412  19.751  0.00  0.00    +0.000 HD
ENDBRANCH   2  17
BRANCH   3  19
ATOM     19  CA  HIS A   1       5.512   4.940  16.525  0.00  0.00    +0.000 C 
BRANCH  19  20
ATOM     20  C   HIS A   1       6.840   5.275  17.218  0.00  0.00    +0.000 C 
ATOM     21  O   HIS A   1       7.858   4.602  17.057  0.00  0.00    +0.000 OA
ATOM     22  N   GLY A   2       6.824   6.382  18.029  0.00  0.00    +0.000 N 
ATOM     23  H   GLY A   2       6.004   6.988  17.980  0.00  0.00    +0.000 HD
BRANCH  22  24
ATOM     24  CA  GLY A   2       8.011   6.849  18.705  0.00  0.00    +0.000 C 
BRANCH  24  25
ATOM     25  C   GLY A   2       8.335   8.290  18.341  0.00  0.00    +0.000 C 
ATOM     26  O   GLY A   2       9.005   9.049  19.029  0.00  0.00    +0.000 OA
BRANCH  25  27
ATOM     27  OXT GLY A   2       7.782   8.677  17.167  0.00  0.00    +0.000 OA
ATOM     28  HXT GLY A   2       8.416   8.732  16.426  0.00  0.00    +0.000 HD
ENDBRANCH  25  27
ENDBRANCH  24  25
ENDBRANCH  22  24
ENDBRANCH  19  20
BRANCH  19  29
ATOM     29  CB  HIS A   1       5.477   5.578  15.124  0.00  0.00    +0.000 C 
BRANCH  29  30
ATOM     30  CG  HIS A   1       6.005   4.714  14.021  0.00  0.00    +0.000 A 
ATOM     31  CD2 HIS A   1       5.475   3.552  13.497  0.00  0.00    +0.000 A 
ATOM     32  NE2 HIS A   1       6.352   3.157  12.525  0.00  0.00    +0.000 N 
ATOM     33  CE1 HIS A   1       7.359   4.076  12.484  0.00  0.00    +0.000 A 
ATOM     34  ND1 HIS A   1       7.161   5.043  13.348  0.00  0.00    +0.000 NA
ATOM     35  HE2 HIS A   1       6.278   2.337  11.942  0.00  0.00    +0.000 HD
ENDBRANCH  29  30
ENDBRANCH  19  29
ENDBRANCH   3  19
TORSDOF 11
ENDMDL
MODEL 9
REMARK VINA RESULT:      -6.8      1.332      1.823
REMARK  Name = 
REMARK  11 active torsions:
REMARK  status: ('A' for Active; 'I' for Inactive)
REMARK    1  A    between atoms: N_1  and  S_2
REMARK    2  A    between atoms: S_2  and  C_5
REMARK    3  A    between atoms: C_8  and  N_9
REMARK    4  A    between atoms: C_10  and  S_11
REMARK    5  A    between atoms: N_12  and  CA_13
REMARK    6  A    between atoms: CA_13  and  CB_14
REMARK    7  A    between atoms: CA_13  and  C_20
REMARK    8  A    between atoms: CB_14  and  CG_15
REMARK    9  A    between atoms: N_22  and  CA_23
REMARK   10  A    between atoms: CA_23  and  C_24
REMARK   11  A    between atoms: C_24  and  OXT_26
REMARK                            x       y       z     vdW  Elec       q    Type
REMARK                         _______ _______ _______ _____ _____    ______ ____
ROOT
ATOM      1  N   UNK A   0       1.666   7.973  21.227  0.00  0.00    +0.000 N 
ATOM      2  C   UNK A   0       0.877   9.042  20.890  0.00  0.00    +0.000 C 
ATOM      3  N   HIS A   1       0.522   9.353  19.703  0.00  0.00    +0.000 NA
ATOM      4  H   UNK A   0       1.742   7.814  22.223  0.00  0.00    +0.000 HD
ENDROOT
BRANCH   1   8
ATOM      5  C   UNK A   0       2.309   4.529  18.870  0.00  0.00    +0.000 A 
ATOM      6  C   UNK A   0       2.704   5.764  18.371  0.00  0.00    +0.000 A 
ATOM      7  C   UNK A   0       2.542   6.904  19.165  0.00  0.00    +0.000 A 
ATOM      8  C   UNK A   0       1.955   6.842  20.437  0.00  0.00    +0.000 A 
ATOM      9  C   UNK A   0       1.616   5.574  20.936  0.00  0.00    +0.000 A 
ATOM     10  C   UNK A   0       1.776   4.425  20.156  0.00  0.00    +0.000 A 
BRANCH   5  11
ATOM     11  S   UNK A   0       2.416   3.079  17.868  0.00  0.00    +0.000 S 
ATOM     12  O   UNK A   0       2.215   3.434  16.478  0.00  0.00    +0.000 OA
ATOM     13  O   UNK A   0       1.699   2.002  18.504  0.00  0.00    +0.000 OA
BRANCH  11  14
ATOM     14  N   UNK A   0       4.042   2.692  18.016  0.00  0.00    +0.000 NA
ATOM     15  H   UNK A   0       4.377   2.291  17.138  0.00  0.00    +0.000 HD
ATOM     16  H   UNK A   0       4.192   2.097  18.830  0.00  0.00    +0.000 HD
ENDBRANCH  11  14
ENDBRANCH   5  11
ENDBRANCH   1   8
BRANCH   2  17
ATOM     17  S   UNK A   0       0.354   9.925  22.318  0.00  0.00    +0.000 S 
ATOM     18  H   UNK A   0       0.197   8.856  23.105  0.00  0.00    +0.000 HD
ENDBRANCH   2  17
BRANCH   3  19
ATOM     19  CA  HIS A   1      -0.321  10.478  19.296  0.00  0.00    +0.000 C 
BRANCH  19  20
ATOM     20  C   HIS A   1      -1.235  10.102  18.121  0.00  0.00    +0.000 C 
ATOM     21  O   HIS A   1      -0.817   9.530  17.115  0.00  0.00    +0.000 OA
ATOM     22  N   GLY A   2      -2.557  10.441  18.266  0.00  0.00    +0.000 N 
ATOM     23  H   GLY A   2      -2.864  10.751  19.188  0.00  0.00    +0.000 HD
BRANCH  22  24
ATOM     24  CA  GLY A   2      -3.543  10.104  17.266  0.00  0.00    +0.000 C 
BRANCH  24  25
ATOM     25  C   GLY A   2      -3.995  11.331  16.488  0.00  0.00    +0.000 C 
ATOM     26  O   GLY A   2      -4.955  12.031  16.786  0.00  0.00    +0.000 OA
BRANCH  25  27
ATOM     27  OXT GLY A   2      -3.235  11.575  15.394  0.00  0.00    +0.000 OA
ATOM     28  HXT GLY A   2      -3.272  10.872  14.717  0.00  0.00    +0.000 HD
ENDBRANCH  25  27
ENDBRANCH  24  25
ENDBRANCH  22  24
ENDBRANCH  19  20
BRANCH  19  29
ATOM     29  CB  HIS A   1       0.578  11.664  18.900  0.00  0.00    +0.000 C 
BRANCH  29  30
ATOM     30  CG  HIS A   1      -0.026  13.017  19.114  0.00  0.00    +0.000 A 
ATOM     31  CD2 HIS A   1      -1.163  13.360  19.817  0.00  0.00    +0.000 A 
ATOM     32  NE2 HIS A   1      -1.277  14.716  19.687  0.00  0.00    +0.000 N 
ATOM     33  CE1 HIS A   1      -0.223  15.146  18.935  0.00  0.00    +0.000 A 
ATOM     34  ND1 HIS A   1       0.566  14.151  18.604  0.00  0.00    +0.000 NA
ATOM     35  HE2 HIS A   1      -2.004  15.301  20.071  0.00  0.00    +0.000 HD
ENDBRANCH  29  30
ENDBRANCH  19  29
ENDBRANCH   3  19
TORSDOF 11
ENDMDL
