MODEL 1
REMARK VINA RESULT:      -7.7      0.000      0.000
REMARK  Name = 
REMARK  5 active torsions:
REMARK  status: ('A' for Active; 'I' for Inactive)
REMARK    1  A    between atoms: C_1  and  C_2
REMARK    2  A    between atoms: C_2  and  N_10
REMARK    3  A    between atoms: C_3  and  C_4
REMARK    4  A    between atoms: C_15  and  C_16
REMARK    5  A    between atoms: N_21  and  C_22
REMARK                            x       y       z     vdW  Elec       q    Type
REMARK                         _______ _______ _______ _____ _____    ______ ____
ROOT
ATOM      1  N   UNL     1       5.363   5.015  17.740  0.00  0.00    +0.000 N 
ATOM      2  C   UNL     1       4.372   5.965  17.456  0.00  0.00    +0.000 A 
ATOM      3  C   UNL     1       3.140   5.375  17.612  0.00  0.00    +0.000 A 
ATOM      4  C   UNL     1       3.358   4.012  17.849  0.00  0.00    +0.000 A 
ATOM      5  C   UNL     1       2.408   3.040  18.139  0.00  0.00    +0.000 A 
ATOM      6  C   UNL     1       2.521   2.497  19.412  0.00  0.00    +0.000 A 
ATOM      7  C   UNL     1       1.237   2.081  20.067  0.00  0.00    +0.000 C 
ATOM      8  C   UNL     1       3.756   2.526  20.076  0.00  0.00    +0.000 A 
ATOM      9  C   UNL     1       4.873   3.194  19.530  0.00  0.00    +0.000 A 
ATOM     10  C   UNL     1       4.637   3.994  18.402  0.00  0.00    +0.000 A 
ATOM     11  C   UNL     1       1.851   6.110  17.749  0.00  0.00    +0.000 C 
ATOM     12  N   UNL     1       2.090   7.424  18.383  0.00  0.00    +0.000 NA
ATOM     13  C   UNL     1       2.194   7.320  19.843  0.00  0.00    +0.000 C 
ATOM     14  C   UNL     1       3.222   8.170  17.783  0.00  0.00    +0.000 C 
ATOM     15  C   UNL     1       4.386   7.400  17.065  0.00  0.00    +0.000 C 
ENDROOT
BRANCH   1  17
ATOM     16  C   UNL     1       7.674   5.466  18.673  0.00  0.00    +0.000 C 
ATOM     17  C   UNL     1       6.778   5.079  17.514  0.00  0.00    +0.000 C 
ATOM     18  C   UNL     1       7.427   4.877  16.340  0.00  0.00    +0.000 C 
BRANCH  18  19
ATOM     19  C   UNL     1       6.948   4.633  14.977  0.00  0.00    +0.000 A 
ATOM     20  C   UNL     1       7.669   5.099  13.871  0.00  0.00    +0.000 A 
ATOM     21  C   UNL     1       7.280   4.741  12.575  0.00  0.00    +0.000 A 
ATOM     22  C   UNL     1       6.166   3.926  12.379  0.00  0.00    +0.000 A 
ATOM     23  C   UNL     1       5.450   3.454  13.477  0.00  0.00    +0.000 A 
ATOM     24  C   UNL     1       5.854   3.787  14.770  0.00  0.00    +0.000 A 
ENDBRANCH  18  19
ENDBRANCH   1  17
TORSDOF 2
ENDMDL
MODEL 2
REMARK VINA RESULT:      -7.6      1.407      3.718
REMARK  Name = 
REMARK  5 active torsions:
REMARK  status: ('A' for Active; 'I' for Inactive)
REMARK    1  A    between atoms: C_1  and  C_2
REMARK    2  A    between atoms: C_2  and  N_10
REMARK    3  A    between atoms: C_3  and  C_4
REMARK    4  A    between atoms: C_15  and  C_16
REMARK    5  A    between atoms: N_21  and  C_22
REMARK                            x       y       z     vdW  Elec       q    Type
REMARK                         _______ _______ _______ _____ _____    ______ ____
ROOT
ATOM      1  N   UNL     1       5.375   5.259  18.829  0.00  0.00    +0.000 N 
ATOM      2  C   UNL     1       4.457   4.347  19.371  0.00  0.00    +0.000 A 
ATOM      3  C   UNL     1       3.271   5.002  19.600  0.00  0.00    +0.000 A 
ATOM      4  C   UNL     1       3.488   6.361  19.341  0.00  0.00    +0.000 A 
ATOM      5  C   UNL     1       2.553   7.389  19.369  0.00  0.00    +0.000 A 
ATOM      6  C   UNL     1       2.318   7.976  18.133  0.00  0.00    +0.000 A 
ATOM      7  C   UNL     1       0.924   8.479  17.898  0.00  0.00    +0.000 C 
ATOM      8  C   UNL     1       3.298   7.914  17.133  0.00  0.00    +0.000 A 
ATOM      9  C   UNL     1       4.486   7.172  17.308  0.00  0.00    +0.000 A 
ATOM     10  C   UNL     1       4.546   6.340  18.436  0.00  0.00    +0.000 A 
ATOM     11  C   UNL     1       1.958   4.336  19.833  0.00  0.00    +0.000 C 
ATOM     12  N   UNL     1       1.923   3.039  19.126  0.00  0.00    +0.000 NA
ATOM     13  C   UNL     1       1.599   3.196  17.704  0.00  0.00    +0.000 C 
ATOM     14  C   UNL     1       3.136   2.216  19.346  0.00  0.00    +0.000 C 
ATOM     15  C   UNL     1       4.503   2.899  19.706  0.00  0.00    +0.000 C 
ENDROOT
BRANCH   1  17
ATOM     16  C   UNL     1       7.719   5.487  19.761  0.00  0.00    +0.000 C 
ATOM     17  C   UNL     1       6.787   5.118  18.624  0.00  0.00    +0.000 C 
ATOM     18  C   UNL     1       7.412   4.731  17.484  0.00  0.00    +0.000 C 
BRANCH  18  19
ATOM     19  C   UNL     1       6.914   4.432  16.139  0.00  0.00    +0.000 A 
ATOM     20  C   UNL     1       5.728   3.710  15.959  0.00  0.00    +0.000 A 
ATOM     21  C   UNL     1       5.187   3.552  14.678  0.00  0.00    +0.000 A 
ATOM     22  C   UNL     1       5.833   4.105  13.573  0.00  0.00    +0.000 A 
ATOM     23  C   UNL     1       7.009   4.831  13.748  0.00  0.00    +0.000 A 
ATOM     24  C   UNL     1       7.533   5.012  15.028  0.00  0.00    +0.000 A 
ENDBRANCH  18  19
ENDBRANCH   1  17
TORSDOF 2
ENDMDL
MODEL 3
REMARK VINA RESULT:      -7.0      1.817      4.598
REMARK  Name = 
REMARK  5 active torsions:
REMARK  status: ('A' for Active; 'I' for Inactive)
REMARK    1  A    between atoms: C_1  and  C_2
REMARK    2  A    between atoms: C_2  and  N_10
REMARK    3  A    between atoms: C_3  and  C_4
REMARK    4  A    between atoms: C_15  and  C_16
REMARK    5  A    between atoms: N_21  and  C_22
REMARK                            x       y       z     vdW  Elec       q    Type
REMARK                         _______ _______ _______ _____ _____    ______ ____
ROOT
ATOM      1  N   UNL     1       4.373   4.639  17.421  0.00  0.00    +0.000 N 
ATOM      2  C   UNL     1       3.906   3.548  18.167  0.00  0.00    +0.000 A 
ATOM      3  C   UNL     1       3.329   4.020  19.323  0.00  0.00    +0.000 A 
ATOM      4  C   UNL     1       3.565   5.399  19.373  0.00  0.00    +0.000 A 
ATOM      5  C   UNL     1       3.104   6.304  20.321  0.00  0.00    +0.000 A 
ATOM      6  C   UNL     1       2.217   7.248  19.822  0.00  0.00    +0.000 A 
ATOM      7  C   UNL     1       1.151   7.716  20.769  0.00  0.00    +0.000 C 
ATOM      8  C   UNL     1       2.240   7.574  18.459  0.00  0.00    +0.000 A 
ATOM      9  C   UNL     1       3.072   6.888  17.549  0.00  0.00    +0.000 A 
ATOM     10  C   UNL     1       3.716   5.738  18.030  0.00  0.00    +0.000 A 
ATOM     11  C   UNL     1       2.417   3.237  20.203  0.00  0.00    +0.000 C 
ATOM     12  N   UNL     1       1.676   2.242  19.399  0.00  0.00    +0.000 NA
ATOM     13  C   UNL     1       0.520   2.836  18.719  0.00  0.00    +0.000 C 
ATOM     14  C   UNL     1       2.542   1.467  18.480  0.00  0.00    +0.000 C 
ATOM     15  C   UNL     1       3.893   2.075  17.961  0.00  0.00    +0.000 C 
ENDROOT
BRANCH   1  17
ATOM     16  C   UNL     1       4.842   3.802  15.078  0.00  0.00    +0.000 C 
ATOM     17  C   UNL     1       5.225   4.658  16.268  0.00  0.00    +0.000 C 
ATOM     18  C   UNL     1       6.394   5.331  16.127  0.00  0.00    +0.000 C 
BRANCH  18  19
ATOM     19  C   UNL     1       7.185   6.138  17.059  0.00  0.00    +0.000 A 
ATOM     20  C   UNL     1       7.379   7.507  16.834  0.00  0.00    +0.000 A 
ATOM     21  C   UNL     1       8.014   8.296  17.800  0.00  0.00    +0.000 A 
ATOM     22  C   UNL     1       8.468   7.720  18.986  0.00  0.00    +0.000 A 
ATOM     23  C   UNL     1       8.271   6.361  19.217  0.00  0.00    +0.000 A 
ATOM     24  C   UNL     1       7.612   5.579  18.268  0.00  0.00    +0.000 A 
ENDBRANCH  18  19
ENDBRANCH   1  17
TORSDOF 2
ENDMDL
MODEL 4
REMARK VINA RESULT:      -6.9      6.805     10.117
REMARK  Name = 
REMARK  5 active torsions:
REMARK  status: ('A' for Active; 'I' for Inactive)
REMARK    1  A    between atoms: C_1  and  C_2
REMARK    2  A    between atoms: C_2  and  N_10
REMARK    3  A    between atoms: C_3  and  C_4
REMARK    4  A    between atoms: C_15  and  C_16
REMARK    5  A    between atoms: N_21  and  C_22
REMARK                            x       y       z     vdW  Elec       q    Type
REMARK                         _______ _______ _______ _____ _____    ______ ____
ROOT
ATOM      1  N   UNL     1       0.282  11.466  19.223  0.00  0.00    +0.000 N 
ATOM      2  C   UNL     1       1.030  12.619  18.947  0.00  0.00    +0.000 A 
ATOM      3  C   UNL     1       0.559  13.647  19.729  0.00  0.00    +0.000 A 
ATOM      4  C   UNL     1      -0.583  13.178  20.390  0.00  0.00    +0.000 A 
ATOM      5  C   UNL     1      -1.346  13.845  21.340  0.00  0.00    +0.000 A 
ATOM      6  C   UNL     1      -1.313  13.269  22.603  0.00  0.00    +0.000 A 
ATOM      7  C   UNL     1      -1.418  14.216  23.762  0.00  0.00    +0.000 C 
ATOM      8  C   UNL     1      -1.013  11.906  22.740  0.00  0.00    +0.000 A 
ATOM      9  C   UNL     1      -0.633  11.118  21.633  0.00  0.00    +0.000 A 
ATOM     10  C   UNL     1      -0.372  11.801  20.436  0.00  0.00    +0.000 A 
ATOM     11  C   UNL     1       1.287  14.919  19.998  0.00  0.00    +0.000 C 
ATOM     12  N   UNL     1       2.745  14.682  19.946  0.00  0.00    +0.000 NA
ATOM     13  C   UNL     1       3.255  14.117  21.201  0.00  0.00    +0.000 C 
ATOM     14  C   UNL     1       3.174  13.907  18.758  0.00  0.00    +0.000 C 
ATOM     15  C   UNL     1       2.174  12.927  18.047  0.00  0.00    +0.000 C 
ENDROOT
BRANCH   1  17
ATOM     16  C   UNL     1       1.458   9.310  18.605  0.00  0.00    +0.000 C 
ATOM     17  C   UNL     1       0.244  10.214  18.525  0.00  0.00    +0.000 C 
ATOM     18  C   UNL     1      -0.757   9.749  17.736  0.00  0.00    +0.000 C 
BRANCH  18  19
ATOM     19  C   UNL     1      -2.013  10.350  17.280  0.00  0.00    +0.000 A 
ATOM     20  C   UNL     1      -2.448  10.182  15.959  0.00  0.00    +0.000 A 
ATOM     21  C   UNL     1      -3.713  10.638  15.571  0.00  0.00    +0.000 A 
ATOM     22  C   UNL     1      -4.542  11.272  16.497  0.00  0.00    +0.000 A 
ATOM     23  C   UNL     1      -4.117  11.433  17.813  0.00  0.00    +0.000 A 
ATOM     24  C   UNL     1      -2.867  10.953  18.207  0.00  0.00    +0.000 A 
ENDBRANCH  18  19
ENDBRANCH   1  17
TORSDOF 2
ENDMDL
MODEL 5
REMARK VINA RESULT:      -6.8      1.917      4.711
REMARK  Name = 
REMARK  5 active torsions:
REMARK  status: ('A' for Active; 'I' for Inactive)
REMARK    1  A    between atoms: C_1  and  C_2
REMARK    2  A    between atoms: C_2  and  N_10
REMARK    3  A    between atoms: C_3  and  C_4
REMARK    4  A    between atoms: C_15  and  C_16
REMARK    5  A    between atoms: N_21  and  C_22
REMARK                            x       y       z     vdW  Elec       q    Type
REMARK                         _______ _______ _______ _____ _____    ______ ____
ROOT
ATOM      1  N   UNL     1       4.376   4.741  17.582  0.00  0.00    +0.000 N 
ATOM      2  C   UNL     1       3.891   3.630  18.285  0.00  0.00    +0.000 A 
ATOM      3  C   UNL     1       3.266   4.071  19.428  0.00  0.00    +0.000 A 
ATOM      4  C   UNL     1       3.487   5.450  19.517  0.00  0.00    +0.000 A 
ATOM      5  C   UNL     1       2.981   6.330  20.467  0.00  0.00    +0.000 A 
ATOM      6  C   UNL     1       2.105   7.277  19.954  0.00  0.00    +0.000 A 
ATOM      7  C   UNL     1       0.999   7.715  20.869  0.00  0.00    +0.000 C 
ATOM      8  C   UNL     1       2.177   7.634  18.600  0.00  0.00    +0.000 A 
ATOM      9  C   UNL     1       3.050   6.975  17.708  0.00  0.00    +0.000 A 
ATOM     10  C   UNL     1       3.685   5.820  18.189  0.00  0.00    +0.000 A 
ATOM     11  C   UNL     1       2.328   3.261  20.256  0.00  0.00    +0.000 C 
ATOM     12  N   UNL     1       1.628   2.278  19.402  0.00  0.00    +0.000 NA
ATOM     13  C   UNL     1       0.493   2.877  18.691  0.00  0.00    +0.000 C 
ATOM     14  C   UNL     1       2.535   1.531  18.500  0.00  0.00    +0.000 C 
ATOM     15  C   UNL     1       3.899   2.161  18.046  0.00  0.00    +0.000 C 
ENDROOT
BRANCH   1  17
ATOM     16  C   UNL     1       5.014   3.863  15.294  0.00  0.00    +0.000 C 
ATOM     17  C   UNL     1       5.271   4.793  16.463  0.00  0.00    +0.000 C 
ATOM     18  C   UNL     1       6.382   5.560  16.341  0.00  0.00    +0.000 C 
BRANCH  18  19
ATOM     19  C   UNL     1       7.061   6.468  17.269  0.00  0.00    +0.000 A 
ATOM     20  C   UNL     1       7.666   5.980  18.434  0.00  0.00    +0.000 A 
ATOM     21  C   UNL     1       8.431   6.830  19.240  0.00  0.00    +0.000 A 
ATOM     22  C   UNL     1       8.585   8.172  18.892  0.00  0.00    +0.000 A 
ATOM     23  C   UNL     1       7.992   8.660  17.731  0.00  0.00    +0.000 A 
ATOM     24  C   UNL     1       7.252   7.806  16.912  0.00  0.00    +0.000 A 
ENDBRANCH  18  19
ENDBRANCH   1  17
TORSDOF 2
ENDMDL
MODEL 6
REMARK VINA RESULT:      -6.5      8.950     11.519
REMARK  Name = 
REMARK  5 active torsions:
REMARK  status: ('A' for Active; 'I' for Inactive)
REMARK    1  A    between atoms: C_1  and  C_2
REMARK    2  A    between atoms: C_2  and  N_10
REMARK    3  A    between atoms: C_3  and  C_4
REMARK    4  A    between atoms: C_15  and  C_16
REMARK    5  A    between atoms: N_21  and  C_22
REMARK                            x       y       z     vdW  Elec       q    Type
REMARK                         _______ _______ _______ _____ _____    ______ ____
ROOT
ATOM      1  N   UNL     1       8.929  15.744  18.625  0.00  0.00    +0.000 N 
ATOM      2  C   UNL     1       8.897  16.274  19.923  0.00  0.00    +0.000 A 
ATOM      3  C   UNL     1       7.630  16.743  20.175  0.00  0.00    +0.000 A 
ATOM      4  C   UNL     1       6.903  16.643  18.983  0.00  0.00    +0.000 A 
ATOM      5  C   UNL     1       5.558  16.930  18.783  0.00  0.00    +0.000 A 
ATOM      6  C   UNL     1       4.784  15.826  18.453  0.00  0.00    +0.000 A 
ATOM      7  C   UNL     1       3.366  15.846  18.945  0.00  0.00    +0.000 C 
ATOM      8  C   UNL     1       5.383  14.707  17.858  0.00  0.00    +0.000 A 
ATOM      9  C   UNL     1       6.780  14.623  17.680  0.00  0.00    +0.000 A 
ATOM     10  C   UNL     1       7.553  15.611  18.308  0.00  0.00    +0.000 A 
ATOM     11  C   UNL     1       7.088  17.054  21.528  0.00  0.00    +0.000 C 
ATOM     12  N   UNL     1       7.735  16.190  22.537  0.00  0.00    +0.000 NA
ATOM     13  C   UNL     1       7.126  14.857  22.592  0.00  0.00    +0.000 C 
ATOM     14  C   UNL     1       9.211  16.137  22.407  0.00  0.00    +0.000 C 
ATOM     15  C   UNL     1       9.894  16.403  21.019  0.00  0.00    +0.000 C 
ENDROOT
BRANCH   1  17
ATOM     16  C   UNL     1      10.619  16.324  16.830  0.00  0.00    +0.000 C 
ATOM     17  C   UNL     1      10.053  15.339  17.832  0.00  0.00    +0.000 C 
ATOM     18  C   UNL     1      10.658  14.124  17.835  0.00  0.00    +0.000 C 
BRANCH  18  19
ATOM     19  C   UNL     1      10.348  12.869  18.524  0.00  0.00    +0.000 A 
ATOM     20  C   UNL     1      10.535  12.747  19.907  0.00  0.00    +0.000 A 
ATOM     21  C   UNL     1      10.104  11.595  20.576  0.00  0.00    +0.000 A 
ATOM     22  C   UNL     1       9.495  10.560  19.867  0.00  0.00    +0.000 A 
ATOM     23  C   UNL     1       9.300  10.681  18.494  0.00  0.00    +0.000 A 
ATOM     24  C   UNL     1       9.704  11.841  17.830  0.00  0.00    +0.000 A 
ENDBRANCH  18  19
ENDBRANCH   1  17
TORSDOF 2
ENDMDL
MODEL 7
REMARK VINA RESULT:      -6.3      7.533     11.072
REMARK  Name = 
REMARK  5 active torsions:
REMARK  status: ('A' for Active; 'I' for Inactive)
REMARK    1  A    between atoms: C_1  and  C_2
REMARK    2  A    between atoms: C_2  and  N_10
REMARK    3  A    between atoms: C_3  and  C_4
REMARK    4  A    between atoms: C_15  and  C_16
REMARK    5  A    between atoms: N_21  and  C_22
REMARK                            x       y       z     vdW  Elec       q    Type
REMARK                         _______ _______ _______ _____ _____    ______ ____
ROOT
ATOM      1  N   UNL     1      -0.208  11.665  20.322  0.00  0.00    +0.000 N 
ATOM      2  C   UNL     1      -0.678  11.935  21.615  0.00  0.00    +0.000 A 
ATOM      3  C   UNL     1      -0.352  13.231  21.939  0.00  0.00    +0.000 A 
ATOM      4  C   UNL     1       0.452  13.728  20.907  0.00  0.00    +0.000 A 
ATOM      5  C   UNL     1       0.954  15.017  20.770  0.00  0.00    +0.000 A 
ATOM      6  C   UNL     1       0.450  15.710  19.678  0.00  0.00    +0.000 A 
ATOM      7  C   UNL     1       0.303  17.194  19.850  0.00  0.00    +0.000 C 
ATOM      8  C   UNL     1      -0.048  15.005  18.574  0.00  0.00    +0.000 A 
ATOM      9  C   UNL     1      -0.155  13.597  18.582  0.00  0.00    +0.000 A 
ATOM     10  C   UNL     1       0.065  12.959  19.812  0.00  0.00    +0.000 A 
ATOM     11  C   UNL     1      -0.961  14.012  23.053  0.00  0.00    +0.000 C 
ATOM     12  N   UNL     1      -2.345  13.551  23.290  0.00  0.00    +0.000 NA
ATOM     13  C   UNL     1      -3.293  14.150  22.344  0.00  0.00    +0.000 C 
ATOM     14  C   UNL     1      -2.470  12.076  23.364  0.00  0.00    +0.000 C 
ATOM     15  C   UNL     1      -1.430  11.154  22.634  0.00  0.00    +0.000 C 
ENDROOT
BRANCH   1  17
ATOM     16  C   UNL     1       1.057   9.502  19.954  0.00  0.00    +0.000 C 
ATOM     17  C   UNL     1      -0.111  10.412  19.631  0.00  0.00    +0.000 C 
ATOM     18  C   UNL     1      -0.934   9.951  18.656  0.00  0.00    +0.000 C 
BRANCH  18  19
ATOM     19  C   UNL     1      -2.070  10.558  17.956  0.00  0.00    +0.000 A 
ATOM     20  C   UNL     1      -2.291  10.302  16.597  0.00  0.00    +0.000 A 
ATOM     21  C   UNL     1      -3.454  10.770  15.973  0.00  0.00    +0.000 A 
ATOM     22  C   UNL     1      -4.392  11.503  16.701  0.00  0.00    +0.000 A 
ATOM     23  C   UNL     1      -4.179  11.752  18.054  0.00  0.00    +0.000 A 
ATOM     24  C   UNL     1      -3.034  11.262  18.683  0.00  0.00    +0.000 A 
ENDBRANCH  18  19
ENDBRANCH   1  17
TORSDOF 2
ENDMDL
MODEL 8
REMARK VINA RESULT:      -6.3      8.865     11.468
REMARK  Name = 
REMARK  5 active torsions:
REMARK  status: ('A' for Active; 'I' for Inactive)
REMARK    1  A    between atoms: C_1  and  C_2
REMARK    2  A    between atoms: C_2  and  N_10
REMARK    3  A    between atoms: C_3  and  C_4
REMARK    4  A    between atoms: C_15  and  C_16
REMARK    5  A    between atoms: N_21  and  C_22
REMARK                            x       y       z     vdW  Elec       q    Type
REMARK                         _______ _______ _______ _____ _____    ______ ____
ROOT
ATOM      1  N   UNL     1       8.541  15.862  18.724  0.00  0.00    +0.000 N 
ATOM      2  C   UNL     1       8.445  16.438  19.999  0.00  0.00    +0.000 A 
ATOM      3  C   UNL     1       7.152  16.865  20.192  0.00  0.00    +0.000 A 
ATOM      4  C   UNL     1       6.471  16.690  18.982  0.00  0.00    +0.000 A 
ATOM      5  C   UNL     1       5.123  16.914  18.728  0.00  0.00    +0.000 A 
ATOM      6  C   UNL     1       4.404  15.767  18.417  0.00  0.00    +0.000 A 
ATOM      7  C   UNL     1       2.971  15.747  18.862  0.00  0.00    +0.000 C 
ATOM      8  C   UNL     1       5.066  14.652  17.886  0.00  0.00    +0.000 A 
ATOM      9  C   UNL     1       6.471  14.619  17.756  0.00  0.00    +0.000 A 
ATOM     10  C   UNL     1       7.183  15.661  18.369  0.00  0.00    +0.000 A 
ATOM     11  C   UNL     1       6.553  17.204  21.514  0.00  0.00    +0.000 C 
ATOM     12  N   UNL     1       7.200  16.406  22.576  0.00  0.00    +0.000 NA
ATOM     13  C   UNL     1       6.642  15.052  22.664  0.00  0.00    +0.000 C 
ATOM     14  C   UNL     1       8.680  16.408  22.496  0.00  0.00    +0.000 C 
ATOM     15  C   UNL     1       9.399  16.649  21.121  0.00  0.00    +0.000 C 
ENDROOT
BRANCH   1  17
ATOM     16  C   UNL     1      10.341  16.490  17.058  0.00  0.00    +0.000 C 
ATOM     17  C   UNL     1       9.706  15.473  17.985  0.00  0.00    +0.000 C 
ATOM     18  C   UNL     1      10.298  14.253  17.976  0.00  0.00    +0.000 C 
BRANCH  18  19
ATOM     19  C   UNL     1       9.935  12.976  18.596  0.00  0.00    +0.000 A 
ATOM     20  C   UNL     1       9.381  11.942  17.832  0.00  0.00    +0.000 A 
ATOM     21  C   UNL     1       9.169  10.681  18.401  0.00  0.00    +0.000 A 
ATOM     22  C   UNL     1       9.499  10.452  19.737  0.00  0.00    +0.000 A 
ATOM     23  C   UNL     1      10.057  11.476  20.499  0.00  0.00    +0.000 A 
ATOM     24  C   UNL     1      10.295  12.725  19.924  0.00  0.00    +0.000 A 
ENDBRANCH  18  19
ENDBRANCH   1  17
TORSDOF 2
ENDMDL
MODEL 9
REMARK VINA RESULT:      -6.3      6.960     10.742
REMARK  Name = 
REMARK  5 active torsions:
REMARK  status: ('A' for Active; 'I' for Inactive)
REMARK    1  A    between atoms: C_1  and  C_2
REMARK    2  A    between atoms: C_2  and  N_10
REMARK    3  A    between atoms: C_3  and  C_4
REMARK    4  A    between atoms: C_15  and  C_16
REMARK    5  A    between atoms: N_21  and  C_22
REMARK                            x       y       z     vdW  Elec       q    Type
REMARK                         _______ _______ _______ _____ _____    ______ ____
ROOT
ATOM      1  N   UNL     1       0.142  11.466  19.605  0.00  0.00    +0.000 N 
ATOM      2  C   UNL     1      -0.153  11.532  20.974  0.00  0.00    +0.000 A 
ATOM      3  C   UNL     1       0.113  12.806  21.419  0.00  0.00    +0.000 A 
ATOM      4  C   UNL     1       0.714  13.500  20.362  0.00  0.00    +0.000 A 
ATOM      5  C   UNL     1       1.086  14.839  20.330  0.00  0.00    +0.000 A 
ATOM      6  C   UNL     1       0.373  15.605  19.418  0.00  0.00    +0.000 A 
ATOM      7  C   UNL     1       0.135  17.035  19.803  0.00  0.00    +0.000 C 
ATOM      8  C   UNL     1      -0.225  14.991  18.308  0.00  0.00    +0.000 A 
ATOM      9  C   UNL     1      -0.216  13.589  18.145  0.00  0.00    +0.000 A 
ATOM     10  C   UNL     1       0.233  12.832  19.238  0.00  0.00    +0.000 A 
ATOM     11  C   UNL     1      -0.385  13.384  22.699  0.00  0.00    +0.000 C 
ATOM     12  N   UNL     1      -1.678  12.766  23.059  0.00  0.00    +0.000 NA
ATOM     13  C   UNL     1      -2.800  13.378  22.338  0.00  0.00    +0.000 C 
ATOM     14  C   UNL     1      -1.673  11.287  22.953  0.00  0.00    +0.000 C 
ATOM     15  C   UNL     1      -0.681  10.566  21.973  0.00  0.00    +0.000 C 
ENDROOT
BRANCH   1  17
ATOM     16  C   UNL     1       1.546   9.561  18.704  0.00  0.00    +0.000 C 
ATOM     17  C   UNL     1       0.236  10.321  18.747  0.00  0.00    +0.000 C 
ATOM     18  C   UNL     1      -0.718   9.850  17.905  0.00  0.00    +0.000 C 
BRANCH  18  19
ATOM     19  C   UNL     1      -2.043  10.356  17.535  0.00  0.00    +0.000 A 
ATOM     20  C   UNL     1      -2.863  10.978  18.485  0.00  0.00    +0.000 A 
ATOM     21  C   UNL     1      -4.063  11.582  18.091  0.00  0.00    +0.000 A 
ATOM     22  C   UNL     1      -4.452  11.558  16.752  0.00  0.00    +0.000 A 
ATOM     23  C   UNL     1      -3.636  10.948  15.803  0.00  0.00    +0.000 A 
ATOM     24  C   UNL     1      -2.426  10.370  16.190  0.00  0.00    +0.000 A 
ENDBRANCH  18  19
ENDBRANCH   1  17
TORSDOF 2
ENDMDL
