MODEL 1
REMARK VINA RESULT:      -6.8      0.000      0.000
REMARK  Name = 
REMARK  7 active torsions:
REMARK  status: ('A' for Active; 'I' for Inactive)
REMARK    1  A    between atoms: C_1  and  C_2
REMARK    2  A    between atoms: C_3  and  C_4
REMARK    3  A    between atoms: C_8  and  C_9
REMARK    4  A    between atoms: C_9  and  C_10
REMARK    5  A    between atoms: C_9  and  O_11
REMARK    6  A    between atoms: C_9  and  C_12
REMARK    7  A    between atoms: C_16  and  C_17
REMARK                            x       y       z     vdW  Elec       q    Type
REMARK                         _______ _______ _______ _____ _____    ______ ____
ROOT
ATOM      1  C   UNL     1       4.178   7.094  17.446  0.00  0.00    +0.000 C 
ATOM      2  C   UNL     1       3.984   5.592  17.525  0.00  0.00    +0.000 A 
ATOM      3  C   UNL     1       4.717   4.742  16.673  0.00  0.00    +0.000 A 
ATOM      4  C   UNL     1       4.603   3.362  16.816  0.00  0.00    +0.000 A 
ATOM      5  C   UNL     1       3.762   2.818  17.782  0.00  0.00    +0.000 A 
ATOM      6  C   UNL     1       2.946   3.619  18.618  0.00  0.00    +0.000 A 
ATOM      7  C   UNL     1       3.080   5.031  18.492  0.00  0.00    +0.000 A 
ATOM      8  C   UNL     1       2.293   6.015  19.340  0.00  0.00    +0.000 C 
ENDROOT
BRANCH   3   9
ATOM      9  C   UNL     1       5.595   5.234  15.644  0.00  0.00    +0.000 C 
ATOM     10  N   UNL     1       6.315   5.640  14.830  0.00  0.00    +0.000 NA
ENDBRANCH   3   9
BRANCH   6  11
ATOM     11  C   UNL     1       1.994   2.892  19.610  0.00  0.00    +0.000 C 
ATOM     12  C   UNL     1       0.563   3.473  19.563  0.00  0.00    +0.000 C 
BRANCH  11  13
ATOM     13  C   UNL     1       2.528   2.839  21.090  0.00  0.00    +0.000 C 
ATOM     14  F   UNL     1       3.793   2.366  21.184  0.00  0.00    +0.000 F 
ATOM     15  F   UNL     1       2.528   4.067  21.668  0.00  0.00    +0.000 F 
ATOM     16  F   UNL     1       1.762   2.044  21.879  0.00  0.00    +0.000 F 
ENDBRANCH  11  13
BRANCH  11  17
ATOM     17  O   UNL     1       1.785   1.523  19.143  0.00  0.00    +0.000 OA
ATOM     18  H   UNL     1       2.655   1.158  18.905  0.00  0.00    +0.000 HD
ENDBRANCH  11  17
ENDBRANCH   6  11
TORSDOF 4
ENDMDL
MODEL 2
REMARK VINA RESULT:      -6.7      1.692      1.897
REMARK  Name = 
REMARK  7 active torsions:
REMARK  status: ('A' for Active; 'I' for Inactive)
REMARK    1  A    between atoms: C_1  and  C_2
REMARK    2  A    between atoms: C_3  and  C_4
REMARK    3  A    between atoms: C_8  and  C_9
REMARK    4  A    between atoms: C_9  and  C_10
REMARK    5  A    between atoms: C_9  and  O_11
REMARK    6  A    between atoms: C_9  and  C_12
REMARK    7  A    between atoms: C_16  and  C_17
REMARK                            x       y       z     vdW  Elec       q    Type
REMARK                         _______ _______ _______ _____ _____    ______ ____
ROOT
ATOM      1  C   UNL     1       3.773   7.475  17.140  0.00  0.00    +0.000 C 
ATOM      2  C   UNL     1       4.261   6.221  17.837  0.00  0.00    +0.000 A 
ATOM      3  C   UNL     1       5.643   5.985  17.975  0.00  0.00    +0.000 A 
ATOM      4  C   UNL     1       6.083   4.879  18.698  0.00  0.00    +0.000 A 
ATOM      5  C   UNL     1       5.168   4.000  19.271  0.00  0.00    +0.000 A 
ATOM      6  C   UNL     1       3.769   4.143  19.106  0.00  0.00    +0.000 A 
ATOM      7  C   UNL     1       3.317   5.288  18.389  0.00  0.00    +0.000 A 
ATOM      8  C   UNL     1       1.847   5.589  18.156  0.00  0.00    +0.000 C 
ENDROOT
BRANCH   3   9
ATOM      9  C   UNL     1       6.645   6.844  17.400  0.00  0.00    +0.000 C 
ATOM     10  N   UNL     1       7.465   7.520  16.935  0.00  0.00    +0.000 NA
ENDBRANCH   3   9
BRANCH   6  11
ATOM     11  C   UNL     1       2.852   3.055  19.733  0.00  0.00    +0.000 C 
ATOM     12  C   UNL     1       1.970   2.364  18.670  0.00  0.00    +0.000 C 
BRANCH  11  13
ATOM     13  C   UNL     1       1.977   3.571  20.937  0.00  0.00    +0.000 C 
ATOM     14  F   UNL     1       2.419   4.740  21.455  0.00  0.00    +0.000 F 
ATOM     15  F   UNL     1       0.685   3.772  20.568  0.00  0.00    +0.000 F 
ATOM     16  F   UNL     1       1.948   2.683  21.962  0.00  0.00    +0.000 F 
ENDBRANCH  11  13
BRANCH  11  17
ATOM     17  O   UNL     1       3.685   1.952  20.205  0.00  0.00    +0.000 OA
ATOM     18  H   UNL     1       3.364   1.138  19.780  0.00  0.00    +0.000 HD
ENDBRANCH  11  17
ENDBRANCH   6  11
TORSDOF 4
ENDMDL
MODEL 3
REMARK VINA RESULT:      -6.6      4.023      5.429
REMARK  Name = 
REMARK  7 active torsions:
REMARK  status: ('A' for Active; 'I' for Inactive)
REMARK    1  A    between atoms: C_1  and  C_2
REMARK    2  A    between atoms: C_3  and  C_4
REMARK    3  A    between atoms: C_8  and  C_9
REMARK    4  A    between atoms: C_9  and  C_10
REMARK    5  A    between atoms: C_9  and  O_11
REMARK    6  A    between atoms: C_9  and  C_12
REMARK    7  A    between atoms: C_16  and  C_17
REMARK                            x       y       z     vdW  Elec       q    Type
REMARK                         _______ _______ _______ _____ _____    ______ ____
ROOT
ATOM      1  C   UNL     1       1.463   5.530  20.262  0.00  0.00    +0.000 C 
ATOM      2  C   UNL     1       2.693   4.721  19.900  0.00  0.00    +0.000 A 
ATOM      3  C   UNL     1       2.895   3.452  20.478  0.00  0.00    +0.000 A 
ATOM      4  C   UNL     1       3.977   2.676  20.071  0.00  0.00    +0.000 A 
ATOM      5  C   UNL     1       4.865   3.151  19.110  0.00  0.00    +0.000 A 
ATOM      6  C   UNL     1       4.756   4.446  18.547  0.00  0.00    +0.000 A 
ATOM      7  C   UNL     1       3.636   5.231  18.943  0.00  0.00    +0.000 A 
ATOM      8  C   UNL     1       3.373   6.625  18.403  0.00  0.00    +0.000 C 
ENDROOT
BRANCH   3   9
ATOM      9  C   UNL     1       2.025   2.903  21.485  0.00  0.00    +0.000 C 
ATOM     10  N   UNL     1       1.307   2.462  22.283  0.00  0.00    +0.000 NA
ENDBRANCH   3   9
BRANCH   6  11
ATOM     11  C   UNL     1       5.853   4.889  17.537  0.00  0.00    +0.000 C 
ATOM     12  C   UNL     1       6.365   6.315  17.835  0.00  0.00    +0.000 C 
BRANCH  11  13
ATOM     13  C   UNL     1       5.427   4.751  16.027  0.00  0.00    +0.000 C 
ATOM     14  F   UNL     1       6.406   4.245  15.241  0.00  0.00    +0.000 F 
ATOM     15  F   UNL     1       4.351   3.936  15.882  0.00  0.00    +0.000 F 
ATOM     16  F   UNL     1       5.079   5.946  15.485  0.00  0.00    +0.000 F 
ENDBRANCH  11  13
BRANCH  11  17
ATOM     17  O   UNL     1       7.049   4.080  17.757  0.00  0.00    +0.000 OA
ATOM     18  H   UNL     1       7.166   3.983  18.718  0.00  0.00    +0.000 HD
ENDBRANCH  11  17
ENDBRANCH   6  11
TORSDOF 4
ENDMDL
MODEL 4
REMARK VINA RESULT:      -6.6      4.121      5.518
REMARK  Name = 
REMARK  7 active torsions:
REMARK  status: ('A' for Active; 'I' for Inactive)
REMARK    1  A    between atoms: C_1  and  C_2
REMARK    2  A    between atoms: C_3  and  C_4
REMARK    3  A    between atoms: C_8  and  C_9
REMARK    4  A    between atoms: C_9  and  C_10
REMARK    5  A    between atoms: C_9  and  O_11
REMARK    6  A    between atoms: C_9  and  C_12
REMARK    7  A    between atoms: C_16  and  C_17
REMARK                            x       y       z     vdW  Elec       q    Type
REMARK                         _______ _______ _______ _____ _____    ______ ____
ROOT
ATOM      1  C   UNL     1       1.749   5.780  20.040  0.00  0.00    +0.000 C 
ATOM      2  C   UNL     1       2.960   4.967  19.627  0.00  0.00    +0.000 A 
ATOM      3  C   UNL     1       3.177   3.693  20.187  0.00  0.00    +0.000 A 
ATOM      4  C   UNL     1       4.239   2.914  19.734  0.00  0.00    +0.000 A 
ATOM      5  C   UNL     1       5.092   3.391  18.743  0.00  0.00    +0.000 A 
ATOM      6  C   UNL     1       4.969   4.690  18.194  0.00  0.00    +0.000 A 
ATOM      7  C   UNL     1       3.869   5.478  18.637  0.00  0.00    +0.000 A 
ATOM      8  C   UNL     1       3.593   6.878  18.117  0.00  0.00    +0.000 C 
ENDROOT
BRANCH   3   9
ATOM      9  C   UNL     1       2.343   3.141  21.223  0.00  0.00    +0.000 C 
ATOM     10  N   UNL     1       1.687   2.694  22.069  0.00  0.00    +0.000 NA
ENDBRANCH   3   9
BRANCH   6  11
ATOM     11  C   UNL     1       6.028   5.135  17.146  0.00  0.00    +0.000 C 
ATOM     12  C   UNL     1       6.640   6.510  17.495  0.00  0.00    +0.000 C 
BRANCH  11  13
ATOM     13  C   UNL     1       5.508   5.116  15.660  0.00  0.00    +0.000 C 
ATOM     14  F   UNL     1       4.521   4.212  15.452  0.00  0.00    +0.000 F 
ATOM     15  F   UNL     1       5.013   6.324  15.285  0.00  0.00    +0.000 F 
ATOM     16  F   UNL     1       6.495   4.816  14.778  0.00  0.00    +0.000 F 
ENDBRANCH  11  13
BRANCH  11  17
ATOM     17  O   UNL     1       7.186   4.250  17.242  0.00  0.00    +0.000 OA
ATOM     18  H   UNL     1       7.963   4.746  16.931  0.00  0.00    +0.000 HD
ENDBRANCH  11  17
ENDBRANCH   6  11
TORSDOF 4
ENDMDL
MODEL 5
REMARK VINA RESULT:      -6.5      3.964      5.485
REMARK  Name = 
REMARK  7 active torsions:
REMARK  status: ('A' for Active; 'I' for Inactive)
REMARK    1  A    between atoms: C_1  and  C_2
REMARK    2  A    between atoms: C_3  and  C_4
REMARK    3  A    between atoms: C_8  and  C_9
REMARK    4  A    between atoms: C_9  and  C_10
REMARK    5  A    between atoms: C_9  and  O_11
REMARK    6  A    between atoms: C_9  and  C_12
REMARK    7  A    between atoms: C_16  and  C_17
REMARK                            x       y       z     vdW  Elec       q    Type
REMARK                         _______ _______ _______ _____ _____    ______ ____
ROOT
ATOM      1  C   UNL     1       2.310   6.444  19.563  0.00  0.00    +0.000 C 
ATOM      2  C   UNL     1       2.943   5.414  18.648  0.00  0.00    +0.000 A 
ATOM      3  C   UNL     1       2.554   4.063  18.734  0.00  0.00    +0.000 A 
ATOM      4  C   UNL     1       3.071   3.140  17.828  0.00  0.00    +0.000 A 
ATOM      5  C   UNL     1       3.977   3.541  16.850  0.00  0.00    +0.000 A 
ATOM      6  C   UNL     1       4.461   4.869  16.760  0.00  0.00    +0.000 A 
ATOM      7  C   UNL     1       3.914   5.819  17.669  0.00  0.00    +0.000 A 
ATOM      8  C   UNL     1       4.315   7.284  17.673  0.00  0.00    +0.000 C 
ENDROOT
BRANCH   3   9
ATOM      9  C   UNL     1       1.632   3.576  19.726  0.00  0.00    +0.000 C 
ATOM     10  N   UNL     1       0.904   3.183  20.540  0.00  0.00    +0.000 NA
ENDBRANCH   3   9
BRANCH   6  11
ATOM     11  C   UNL     1       5.527   5.177  15.671  0.00  0.00    +0.000 C 
ATOM     12  C   UNL     1       5.357   4.275  14.429  0.00  0.00    +0.000 C 
BRANCH  11  13
ATOM     13  C   UNL     1       7.011   5.134  16.195  0.00  0.00    +0.000 C 
ATOM     14  F   UNL     1       7.179   4.305  17.252  0.00  0.00    +0.000 F 
ATOM     15  F   UNL     1       7.871   4.715  15.232  0.00  0.00    +0.000 F 
ATOM     16  F   UNL     1       7.446   6.356  16.593  0.00  0.00    +0.000 F 
ENDBRANCH  11  13
BRANCH  11  17
ATOM     17  O   UNL     1       5.268   6.506  15.122  0.00  0.00    +0.000 OA
ATOM     18  H   UNL     1       5.174   6.414  14.158  0.00  0.00    +0.000 HD
ENDBRANCH  11  17
ENDBRANCH   6  11
TORSDOF 4
ENDMDL
MODEL 6
REMARK VINA RESULT:      -6.5      3.912      5.370
REMARK  Name = 
REMARK  7 active torsions:
REMARK  status: ('A' for Active; 'I' for Inactive)
REMARK    1  A    between atoms: C_1  and  C_2
REMARK    2  A    between atoms: C_3  and  C_4
REMARK    3  A    between atoms: C_8  and  C_9
REMARK    4  A    between atoms: C_9  and  C_10
REMARK    5  A    between atoms: C_9  and  O_11
REMARK    6  A    between atoms: C_9  and  C_12
REMARK    7  A    between atoms: C_16  and  C_17
REMARK                            x       y       z     vdW  Elec       q    Type
REMARK                         _______ _______ _______ _____ _____    ______ ____
ROOT
ATOM      1  C   UNL     1       1.766   5.780  20.440  0.00  0.00    +0.000 C 
ATOM      2  C   UNL     1       2.815   4.890  19.805  0.00  0.00    +0.000 A 
ATOM      3  C   UNL     1       2.955   3.554  20.229  0.00  0.00    +0.000 A 
ATOM      4  C   UNL     1       3.857   2.717  19.577  0.00  0.00    +0.000 A 
ATOM      5  C   UNL     1       4.628   3.194  18.522  0.00  0.00    +0.000 A 
ATOM      6  C   UNL     1       4.585   4.544  18.098  0.00  0.00    +0.000 A 
ATOM      7  C   UNL     1       3.646   5.396  18.746  0.00  0.00    +0.000 A 
ATOM      8  C   UNL     1       3.467   6.859  18.380  0.00  0.00    +0.000 C 
ENDROOT
BRANCH   3   9
ATOM      9  C   UNL     1       2.200   2.996  21.320  0.00  0.00    +0.000 C 
ATOM     10  N   UNL     1       1.573   2.551  22.189  0.00  0.00    +0.000 NA
ENDBRANCH   3   9
BRANCH   6  11
ATOM     11  C   UNL     1       5.549   4.975  16.956  0.00  0.00    +0.000 C 
ATOM     12  C   UNL     1       5.694   3.876  15.881  0.00  0.00    +0.000 C 
BRANCH  11  13
ATOM     13  C   UNL     1       6.962   5.457  17.457  0.00  0.00    +0.000 C 
ATOM     14  F   UNL     1       6.946   5.929  18.725  0.00  0.00    +0.000 F 
ATOM     15  F   UNL     1       7.875   4.452  17.428  0.00  0.00    +0.000 F 
ATOM     16  F   UNL     1       7.464   6.453  16.684  0.00  0.00    +0.000 F 
ENDBRANCH  11  13
BRANCH  11  17
ATOM     17  O   UNL     1       4.929   6.062  16.202  0.00  0.00    +0.000 OA
ATOM     18  H   UNL     1       5.486   6.852  16.315  0.00  0.00    +0.000 HD
ENDBRANCH  11  17
ENDBRANCH   6  11
TORSDOF 4
ENDMDL
MODEL 7
REMARK VINA RESULT:      -6.5      1.972      2.913
REMARK  Name = 
REMARK  7 active torsions:
REMARK  status: ('A' for Active; 'I' for Inactive)
REMARK    1  A    between atoms: C_1  and  C_2
REMARK    2  A    between atoms: C_3  and  C_4
REMARK    3  A    between atoms: C_8  and  C_9
REMARK    4  A    between atoms: C_9  and  C_10
REMARK    5  A    between atoms: C_9  and  O_11
REMARK    6  A    between atoms: C_9  and  C_12
REMARK    7  A    between atoms: C_16  and  C_17
REMARK                            x       y       z     vdW  Elec       q    Type
REMARK                         _______ _______ _______ _____ _____    ______ ____
ROOT
ATOM      1  C   UNL     1       5.343   3.280  15.929  0.00  0.00    +0.000 C 
ATOM      2  C   UNL     1       5.013   4.043  17.196  0.00  0.00    +0.000 A 
ATOM      3  C   UNL     1       5.680   5.251  17.484  0.00  0.00    +0.000 A 
ATOM      4  C   UNL     1       5.306   5.993  18.601  0.00  0.00    +0.000 A 
ATOM      5  C   UNL     1       4.290   5.545  19.439  0.00  0.00    +0.000 A 
ATOM      6  C   UNL     1       3.633   4.305  19.243  0.00  0.00    +0.000 A 
ATOM      7  C   UNL     1       3.996   3.557  18.088  0.00  0.00    +0.000 A 
ATOM      8  C   UNL     1       3.359   2.225  17.732  0.00  0.00    +0.000 C 
ENDROOT
BRANCH   3   9
ATOM      9  C   UNL     1       6.747   5.768  16.668  0.00  0.00    +0.000 C 
ATOM     10  N   UNL     1       7.599   6.205  16.013  0.00  0.00    +0.000 NA
ENDBRANCH   3   9
BRANCH   6  11
ATOM     11  C   UNL     1       2.565   3.880  20.290  0.00  0.00    +0.000 C 
ATOM     12  C   UNL     1       2.963   2.579  21.022  0.00  0.00    +0.000 C 
BRANCH  11  13
ATOM     13  C   UNL     1       1.105   3.771  19.709  0.00  0.00    +0.000 C 
ATOM     14  F   UNL     1       0.995   4.255  18.450  0.00  0.00    +0.000 F 
ATOM     15  F   UNL     1       0.676   2.483  19.670  0.00  0.00    +0.000 F 
ATOM     16  F   UNL     1       0.205   4.452  20.463  0.00  0.00    +0.000 F 
ENDBRANCH  11  13
BRANCH  11  17
ATOM     17  O   UNL     1       2.558   4.854  21.379  0.00  0.00    +0.000 OA
ATOM     18  H   UNL     1       1.630   5.030  21.610  0.00  0.00    +0.000 HD
ENDBRANCH  11  17
ENDBRANCH   6  11
TORSDOF 4
ENDMDL
MODEL 8
REMARK VINA RESULT:      -6.4      1.651      2.050
REMARK  Name = 
REMARK  7 active torsions:
REMARK  status: ('A' for Active; 'I' for Inactive)
REMARK    1  A    between atoms: C_1  and  C_2
REMARK    2  A    between atoms: C_3  and  C_4
REMARK    3  A    between atoms: C_8  and  C_9
REMARK    4  A    between atoms: C_9  and  C_10
REMARK    5  A    between atoms: C_9  and  O_11
REMARK    6  A    between atoms: C_9  and  C_12
REMARK    7  A    between atoms: C_16  and  C_17
REMARK                            x       y       z     vdW  Elec       q    Type
REMARK                         _______ _______ _______ _____ _____    ______ ____
ROOT
ATOM      1  C   UNL     1       4.136   7.531  17.104  0.00  0.00    +0.000 C 
ATOM      2  C   UNL     1       4.114   6.091  17.576  0.00  0.00    +0.000 A 
ATOM      3  C   UNL     1       4.885   5.119  16.908  0.00  0.00    +0.000 A 
ATOM      4  C   UNL     1       4.932   3.819  17.403  0.00  0.00    +0.000 A 
ATOM      5  C   UNL     1       4.214   3.471  18.544  0.00  0.00    +0.000 A 
ATOM      6  C   UNL     1       3.365   4.383  19.216  0.00  0.00    +0.000 A 
ATOM      7  C   UNL     1       3.335   5.720  18.726  0.00  0.00    +0.000 A 
ATOM      8  C   UNL     1       2.494   6.814  19.361  0.00  0.00    +0.000 C 
ENDROOT
BRANCH   3   9
ATOM      9  C   UNL     1       5.642   5.405  15.717  0.00  0.00    +0.000 C 
ATOM     10  N   UNL     1       6.247   5.617  14.750  0.00  0.00    +0.000 NA
ENDBRANCH   3   9
BRANCH   6  11
ATOM     11  C   UNL     1       2.557   3.855  20.435  0.00  0.00    +0.000 C 
ATOM     12  C   UNL     1       3.228   2.621  21.078  0.00  0.00    +0.000 C 
BRANCH  11  13
ATOM     13  C   UNL     1       1.040   3.569  20.125  0.00  0.00    +0.000 C 
ATOM     14  F   UNL     1       0.807   3.282  18.823  0.00  0.00    +0.000 F 
ATOM     15  F   UNL     1       0.570   2.518  20.844  0.00  0.00    +0.000 F 
ATOM     16  F   UNL     1       0.249   4.628  20.431  0.00  0.00    +0.000 F 
ENDBRANCH  11  13
BRANCH  11  17
ATOM     17  O   UNL     1       2.632   4.841  21.511  0.00  0.00    +0.000 OA
ATOM     18  H   UNL     1       2.405   4.387  22.342  0.00  0.00    +0.000 HD
ENDBRANCH  11  17
ENDBRANCH   6  11
TORSDOF 4
ENDMDL
MODEL 9
REMARK VINA RESULT:      -6.4      1.812      2.147
REMARK  Name = 
REMARK  7 active torsions:
REMARK  status: ('A' for Active; 'I' for Inactive)
REMARK    1  A    between atoms: C_1  and  C_2
REMARK    2  A    between atoms: C_3  and  C_4
REMARK    3  A    between atoms: C_8  and  C_9
REMARK    4  A    between atoms: C_9  and  C_10
REMARK    5  A    between atoms: C_9  and  O_11
REMARK    6  A    between atoms: C_9  and  C_12
REMARK    7  A    between atoms: C_16  and  C_17
REMARK                            x       y       z     vdW  Elec       q    Type
REMARK                         _______ _______ _______ _____ _____    ______ ____
ROOT
ATOM      1  C   UNL     1       4.789   7.294  16.383  0.00  0.00    +0.000 C 
ATOM      2  C   UNL     1       4.607   5.878  16.892  0.00  0.00    +0.000 A 
ATOM      3  C   UNL     1       5.308   4.816  16.285  0.00  0.00    +0.000 A 
ATOM      4  C   UNL     1       5.208   3.534  16.818  0.00  0.00    +0.000 A 
ATOM      5  C   UNL     1       4.413   3.292  17.934  0.00  0.00    +0.000 A 
ATOM      6  C   UNL     1       3.629   4.302  18.543  0.00  0.00    +0.000 A 
ATOM      7  C   UNL     1       3.749   5.620  18.016  0.00  0.00    +0.000 A 
ATOM      8  C   UNL     1       2.993   6.808  18.583  0.00  0.00    +0.000 C 
ENDROOT
BRANCH   3   9
ATOM      9  C   UNL     1       6.138   4.991  15.123  0.00  0.00    +0.000 C 
ATOM     10  N   UNL     1       6.808   5.111  14.183  0.00  0.00    +0.000 NA
ENDBRANCH   3   9
BRANCH   6  11
ATOM     11  C   UNL     1       2.724   3.892  19.740  0.00  0.00    +0.000 C 
ATOM     12  C   UNL     1       3.294   2.676  20.501  0.00  0.00    +0.000 C 
BRANCH  11  13
ATOM     13  C   UNL     1       1.217   3.653  19.351  0.00  0.00    +0.000 C 
ATOM     14  F   UNL     1       0.870   2.345  19.339  0.00  0.00    +0.000 F 
ATOM     15  F   UNL     1       0.372   4.272  20.215  0.00  0.00    +0.000 F 
ATOM     16  F   UNL     1       0.926   4.138  18.117  0.00  0.00    +0.000 F 
ENDBRANCH  11  13
BRANCH  11  17
ATOM     17  O   UNL     1       2.780   4.943  20.753  0.00  0.00    +0.000 OA
ATOM     18  H   UNL     1       1.995   4.847  21.320  0.00  0.00    +0.000 HD
ENDBRANCH  11  17
ENDBRANCH   6  11
TORSDOF 4
ENDMDL
