MODEL 1
REMARK VINA RESULT:      -8.8      0.000      0.000
REMARK  Name = 
REMARK  6 active torsions:
REMARK  status: ('A' for Active; 'I' for Inactive)
REMARK    1  A    between atoms: C_1  and  N_2
REMARK    2  A    between atoms: C_6  and  O_7
REMARK    3  A    between atoms: O_7  and  C_8
REMARK    4  A    between atoms: C_8  and  C_9
REMARK    5  A    between atoms: N_11  and  C_12
REMARK    6  A    between atoms: C_12  and  C_13
REMARK                            x       y       z     vdW  Elec       q    Type
REMARK                         _______ _______ _______ _____ _____    ______ ____
ROOT
ATOM      1  O   UNL     1       7.991   5.261  17.819  0.00  0.00    +0.000 OA
ENDROOT
BRANCH   1   7
ATOM      2  C   UNL     1       1.663   3.607  19.342  0.00  0.00    +0.000 C 
ATOM      3  N   UNL     1       2.943   4.010  18.782  0.00  0.00    +0.000 N 
ATOM      4  C   UNL     1       3.876   4.608  19.586  0.00  0.00    +0.000 A 
ATOM      5  C   UNL     1       5.090   4.946  19.141  0.00  0.00    +0.000 A 
ATOM      6  C   UNL     1       5.525   4.654  17.764  0.00  0.00    +0.000 A 
ATOM      7  C   UNL     1       6.820   4.853  17.225  0.00  0.00    +0.000 A 
ATOM      8  C   UNL     1       7.043   4.592  15.857  0.00  0.00    +0.000 A 
ATOM      9  C   UNL     1       6.031   4.135  15.017  0.00  0.00    +0.000 A 
ATOM     10  C   UNL     1       4.772   3.897  15.541  0.00  0.00    +0.000 A 
ATOM     11  C   UNL     1       4.525   4.136  16.902  0.00  0.00    +0.000 A 
ATOM     12  C   UNL     1       3.170   3.779  17.428  0.00  0.00    +0.000 A 
ATOM     13  O   UNL     1       2.328   3.287  16.679  0.00  0.00    +0.000 OA
ENDBRANCH   1   7
BRANCH   1  14
ATOM     14  C   UNL     1       7.987   6.353  18.714  0.00  0.00    +0.000 C 
BRANCH  14  15
ATOM     15  C   UNL     1       7.903   7.729  18.065  0.00  0.00    +0.000 C 
ATOM     16  O   UNL     1       7.203   7.921  17.072  0.00  0.00    +0.000 OA
ATOM     17  N   UNL     1       8.681   8.704  18.636  0.00  0.00    +0.000 N 
ATOM     18  H   UNL     1       9.038   8.535  19.570  0.00  0.00    +0.000 HD
BRANCH  17  19
ATOM     19  C   UNL     1       8.651  10.051  18.121  0.00  0.00    +0.000 C 
BRANCH  19  20
ATOM     20  C   UNL     1       9.704  10.946  18.721  0.00  0.00    +0.000 A 
ATOM     21  C   UNL     1       9.816  11.142  20.106  0.00  0.00    +0.000 A 
ATOM     22  C   UNL     1      10.834  11.943  20.629  0.00  0.00    +0.000 A 
ATOM     23  C   UNL     1      11.764  12.534  19.777  0.00  0.00    +0.000 A 
ATOM     24  C   UNL     1      11.683  12.322  18.403  0.00  0.00    +0.000 A 
ATOM     25  C   UNL     1      10.663  11.528  17.879  0.00  0.00    +0.000 A 
ENDBRANCH  19  20
ENDBRANCH  17  19
ENDBRANCH  14  15
ENDBRANCH   1  14
TORSDOF 5
ENDMDL
MODEL 2
REMARK VINA RESULT:      -8.3      0.699      1.140
REMARK  Name = 
REMARK  6 active torsions:
REMARK  status: ('A' for Active; 'I' for Inactive)
REMARK    1  A    between atoms: C_1  and  N_2
REMARK    2  A    between atoms: C_6  and  O_7
REMARK    3  A    between atoms: O_7  and  C_8
REMARK    4  A    between atoms: C_8  and  C_9
REMARK    5  A    between atoms: N_11  and  C_12
REMARK    6  A    between atoms: C_12  and  C_13
REMARK                            x       y       z     vdW  Elec       q    Type
REMARK                         _______ _______ _______ _____ _____    ______ ____
ROOT
ATOM      1  O   UNL     1       7.838   5.240  18.133  0.00  0.00    +0.000 OA
ENDROOT
BRANCH   1   7
ATOM      2  C   UNL     1       1.380   4.004  19.496  0.00  0.00    +0.000 C 
ATOM      3  N   UNL     1       2.701   4.294  18.964  0.00  0.00    +0.000 N 
ATOM      4  C   UNL     1       3.620   4.942  19.744  0.00  0.00    +0.000 A 
ATOM      5  C   UNL     1       4.866   5.182  19.329  0.00  0.00    +0.000 A 
ATOM      6  C   UNL     1       5.354   4.723  18.017  0.00  0.00    +0.000 A 
ATOM      7  C   UNL     1       6.679   4.812  17.528  0.00  0.00    +0.000 A 
ATOM      8  C   UNL     1       6.957   4.393  16.209  0.00  0.00    +0.000 A 
ATOM      9  C   UNL     1       5.967   3.883  15.373  0.00  0.00    +0.000 A 
ATOM     10  C   UNL     1       4.676   3.752  15.854  0.00  0.00    +0.000 A 
ATOM     11  C   UNL     1       4.374   4.151  17.165  0.00  0.00    +0.000 A 
ATOM     12  C   UNL     1       2.981   3.905  17.656  0.00  0.00    +0.000 A 
ATOM     13  O   UNL     1       2.156   3.365  16.923  0.00  0.00    +0.000 OA
ENDBRANCH   1   7
BRANCH   1  14
ATOM     14  C   UNL     1       7.846   6.441  18.875  0.00  0.00    +0.000 C 
BRANCH  14  15
ATOM     15  C   UNL     1       8.017   7.714  18.055  0.00  0.00    +0.000 C 
ATOM     16  O   UNL     1       7.687   7.756  16.871  0.00  0.00    +0.000 OA
ATOM     17  N   UNL     1       8.591   8.772  18.714  0.00  0.00    +0.000 N 
ATOM     18  H   UNL     1       8.617   8.739  19.727  0.00  0.00    +0.000 HD
BRANCH  17  19
ATOM     19  C   UNL     1       8.768  10.035  18.040  0.00  0.00    +0.000 C 
BRANCH  19  20
ATOM     20  C   UNL     1       9.397  11.094  18.909  0.00  0.00    +0.000 A 
ATOM     21  C   UNL     1       9.730  12.364  18.415  0.00  0.00    +0.000 A 
ATOM     22  C   UNL     1      10.269  13.335  19.262  0.00  0.00    +0.000 A 
ATOM     23  C   UNL     1      10.458  13.056  20.613  0.00  0.00    +0.000 A 
ATOM     24  C   UNL     1      10.102  11.810  21.123  0.00  0.00    +0.000 A 
ATOM     25  C   UNL     1       9.570  10.837  20.278  0.00  0.00    +0.000 A 
ENDBRANCH  19  20
ENDBRANCH  17  19
ENDBRANCH  14  15
ENDBRANCH   1  14
TORSDOF 5
ENDMDL
MODEL 3
REMARK VINA RESULT:      -8.2      1.519      2.009
REMARK  Name = 
REMARK  6 active torsions:
REMARK  status: ('A' for Active; 'I' for Inactive)
REMARK    1  A    between atoms: C_1  and  N_2
REMARK    2  A    between atoms: C_6  and  O_7
REMARK    3  A    between atoms: O_7  and  C_8
REMARK    4  A    between atoms: C_8  and  C_9
REMARK    5  A    between atoms: N_11  and  C_12
REMARK    6  A    between atoms: C_12  and  C_13
REMARK                            x       y       z     vdW  Elec       q    Type
REMARK                         _______ _______ _______ _____ _____    ______ ____
ROOT
ATOM      1  O   UNL     1       5.552   7.301  17.413  0.00  0.00    +0.000 OA
ENDROOT
BRANCH   1   7
ATOM      2  C   UNL     1       1.374   3.369  20.903  0.00  0.00    +0.000 C 
ATOM      3  N   UNL     1       2.201   4.089  19.948  0.00  0.00    +0.000 N 
ATOM      4  C   UNL     1       2.511   5.403  20.175  0.00  0.00    +0.000 A 
ATOM      5  C   UNL     1       3.315   6.097  19.364  0.00  0.00    +0.000 A 
ATOM      6  C   UNL     1       3.961   5.481  18.192  0.00  0.00    +0.000 A 
ATOM      7  C   UNL     1       4.920   6.082  17.341  0.00  0.00    +0.000 A 
ATOM      8  C   UNL     1       5.379   5.372  16.211  0.00  0.00    +0.000 A 
ATOM      9  C   UNL     1       4.925   4.090  15.909  0.00  0.00    +0.000 A 
ATOM     10  C   UNL     1       4.019   3.477  16.757  0.00  0.00    +0.000 A 
ATOM     11  C   UNL     1       3.554   4.155  17.894  0.00  0.00    +0.000 A 
ATOM     12  C   UNL     1       2.643   3.407  18.817  0.00  0.00    +0.000 A 
ATOM     13  O   UNL     1       2.337   2.243  18.571  0.00  0.00    +0.000 OA
ENDBRANCH   1   7
BRANCH   1  14
ATOM     14  C   UNL     1       6.873   7.441  16.935  0.00  0.00    +0.000 C 
BRANCH  14  15
ATOM     15  C   UNL     1       7.884   7.953  17.954  0.00  0.00    +0.000 C 
ATOM     16  O   UNL     1       8.422   7.189  18.754  0.00  0.00    +0.000 OA
ATOM     17  N   UNL     1       8.113   9.306  17.937  0.00  0.00    +0.000 N 
ATOM     18  H   UNL     1       7.821   9.823  17.115  0.00  0.00    +0.000 HD
BRANCH  17  19
ATOM     19  C   UNL     1       9.077   9.890  18.837  0.00  0.00    +0.000 C 
BRANCH  19  20
ATOM     20  C   UNL     1       9.634  11.202  18.348  0.00  0.00    +0.000 A 
ATOM     21  C   UNL     1      10.992  11.366  18.034  0.00  0.00    +0.000 A 
ATOM     22  C   UNL     1      11.463  12.585  17.540  0.00  0.00    +0.000 A 
ATOM     23  C   UNL     1      10.580  13.641  17.331  0.00  0.00    +0.000 A 
ATOM     24  C   UNL     1       9.225  13.482  17.609  0.00  0.00    +0.000 A 
ATOM     25  C   UNL     1       8.754  12.268  18.108  0.00  0.00    +0.000 A 
ENDBRANCH  19  20
ENDBRANCH  17  19
ENDBRANCH  14  15
ENDBRANCH   1  14
TORSDOF 5
ENDMDL
MODEL 4
REMARK VINA RESULT:      -8.2      3.123      6.721
REMARK  Name = 
REMARK  6 active torsions:
REMARK  status: ('A' for Active; 'I' for Inactive)
REMARK    1  A    between atoms: C_1  and  N_2
REMARK    2  A    between atoms: C_6  and  O_7
REMARK    3  A    between atoms: O_7  and  C_8
REMARK    4  A    between atoms: C_8  and  C_9
REMARK    5  A    between atoms: N_11  and  C_12
REMARK    6  A    between atoms: C_12  and  C_13
REMARK                            x       y       z     vdW  Elec       q    Type
REMARK                         _______ _______ _______ _____ _____    ______ ____
ROOT
ATOM      1  O   UNL     1       4.735   2.628  20.057  0.00  0.00    +0.000 OA
ENDROOT
BRANCH   1   7
ATOM      2  C   UNL     1       7.793   8.049  17.535  0.00  0.00    +0.000 C 
ATOM      3  N   UNL     1       7.103   6.806  17.841  0.00  0.00    +0.000 N 
ATOM      4  C   UNL     1       7.380   6.147  19.009  0.00  0.00    +0.000 A 
ATOM      5  C   UNL     1       6.736   5.035  19.371  0.00  0.00    +0.000 A 
ATOM      6  C   UNL     1       5.648   4.464  18.558  0.00  0.00    +0.000 A 
ATOM      7  C   UNL     1       4.819   3.368  18.901  0.00  0.00    +0.000 A 
ATOM      8  C   UNL     1       3.873   2.900  17.965  0.00  0.00    +0.000 A 
ATOM      9  C   UNL     1       3.720   3.489  16.712  0.00  0.00    +0.000 A 
ATOM     10  C   UNL     1       4.495   4.587  16.381  0.00  0.00    +0.000 A 
ATOM     11  C   UNL     1       5.436   5.081  17.297  0.00  0.00    +0.000 A 
ATOM     12  C   UNL     1       6.182   6.321  16.916  0.00  0.00    +0.000 A 
ATOM     13  O   UNL     1       5.955   6.872  15.841  0.00  0.00    +0.000 OA
ENDBRANCH   1   7
BRANCH   1  14
ATOM     14  C   UNL     1       3.473   2.281  20.584  0.00  0.00    +0.000 C 
BRANCH  14  15
ATOM     15  C   UNL     1       2.683   3.432  21.198  0.00  0.00    +0.000 C 
ATOM     16  O   UNL     1       2.183   3.332  22.317  0.00  0.00    +0.000 OA
ATOM     17  N   UNL     1       2.543   4.545  20.408  0.00  0.00    +0.000 N 
ATOM     18  H   UNL     1       3.167   4.641  19.615  0.00  0.00    +0.000 HD
BRANCH  17  19
ATOM     19  C   UNL     1       1.843   5.704  20.905  0.00  0.00    +0.000 C 
BRANCH  19  20
ATOM     20  C   UNL     1       1.943   6.900  19.994  0.00  0.00    +0.000 A 
ATOM     21  C   UNL     1       2.556   6.830  18.734  0.00  0.00    +0.000 A 
ATOM     22  C   UNL     1       2.589   7.949  17.898  0.00  0.00    +0.000 A 
ATOM     23  C   UNL     1       1.989   9.139  18.302  0.00  0.00    +0.000 A 
ATOM     24  C   UNL     1       1.349   9.213  19.537  0.00  0.00    +0.000 A 
ATOM     25  C   UNL     1       1.322   8.099  20.375  0.00  0.00    +0.000 A 
ENDBRANCH  19  20
ENDBRANCH  17  19
ENDBRANCH  14  15
ENDBRANCH   1  14
TORSDOF 5
ENDMDL
MODEL 5
REMARK VINA RESULT:      -8.1      1.473      1.972
REMARK  Name = 
REMARK  6 active torsions:
REMARK  status: ('A' for Active; 'I' for Inactive)
REMARK    1  A    between atoms: C_1  and  N_2
REMARK    2  A    between atoms: C_6  and  O_7
REMARK    3  A    between atoms: O_7  and  C_8
REMARK    4  A    between atoms: C_8  and  C_9
REMARK    5  A    between atoms: N_11  and  C_12
REMARK    6  A    between atoms: C_12  and  C_13
REMARK                            x       y       z     vdW  Elec       q    Type
REMARK                         _______ _______ _______ _____ _____    ______ ____
ROOT
ATOM      1  O   UNL     1       5.379   7.167  17.456  0.00  0.00    +0.000 OA
ENDROOT
BRANCH   1   7
ATOM      2  C   UNL     1       1.331   3.209  21.068  0.00  0.00    +0.000 C 
ATOM      3  N   UNL     1       2.147   3.916  20.094  0.00  0.00    +0.000 N 
ATOM      4  C   UNL     1       2.360   5.261  20.237  0.00  0.00    +0.000 A 
ATOM      5  C   UNL     1       3.148   5.951  19.407  0.00  0.00    +0.000 A 
ATOM      6  C   UNL     1       3.881   5.300  18.307  0.00  0.00    +0.000 A 
ATOM      7  C   UNL     1       4.832   5.905  17.450  0.00  0.00    +0.000 A 
ATOM      8  C   UNL     1       5.382   5.152  16.391  0.00  0.00    +0.000 A 
ATOM      9  C   UNL     1       5.026   3.824  16.166  0.00  0.00    +0.000 A 
ATOM     10  C   UNL     1       4.129   3.210  17.023  0.00  0.00    +0.000 A 
ATOM     11  C   UNL     1       3.575   3.932  18.091  0.00  0.00    +0.000 A 
ATOM     12  C   UNL     1       2.679   3.189  19.032  0.00  0.00    +0.000 A 
ATOM     13  O   UNL     1       2.460   1.993  18.859  0.00  0.00    +0.000 OA
ENDBRANCH   1   7
BRANCH   1  14
ATOM     14  C   UNL     1       6.677   7.377  16.944  0.00  0.00    +0.000 C 
BRANCH  14  15
ATOM     15  C   UNL     1       7.735   7.744  17.978  0.00  0.00    +0.000 C 
ATOM     16  O   UNL     1       8.190   6.899  18.748  0.00  0.00    +0.000 OA
ATOM     17  N   UNL     1       8.104   9.065  18.008  0.00  0.00    +0.000 N 
ATOM     18  H   UNL     1       7.868   9.639  17.206  0.00  0.00    +0.000 HD
BRANCH  17  19
ATOM     19  C   UNL     1       9.123   9.513  18.926  0.00  0.00    +0.000 C 
BRANCH  19  20
ATOM     20  C   UNL     1       9.579  10.926  18.670  0.00  0.00    +0.000 A 
ATOM     21  C   UNL     1       8.846  11.815  17.870  0.00  0.00    +0.000 A 
ATOM     22  C   UNL     1       9.277  13.132  17.693  0.00  0.00    +0.000 A 
ATOM     23  C   UNL     1      10.429  13.580  18.334  0.00  0.00    +0.000 A 
ATOM     24  C   UNL     1      11.149  12.718  19.157  0.00  0.00    +0.000 A 
ATOM     25  C   UNL     1      10.724  11.401  19.329  0.00  0.00    +0.000 A 
ENDBRANCH  19  20
ENDBRANCH  17  19
ENDBRANCH  14  15
ENDBRANCH   1  14
TORSDOF 5
ENDMDL
MODEL 6
REMARK VINA RESULT:      -8.0      5.675      8.649
REMARK  Name = 
REMARK  6 active torsions:
REMARK  status: ('A' for Active; 'I' for Inactive)
REMARK    1  A    between atoms: C_1  and  N_2
REMARK    2  A    between atoms: C_6  and  O_7
REMARK    3  A    between atoms: O_7  and  C_8
REMARK    4  A    between atoms: C_8  and  C_9
REMARK    5  A    between atoms: N_11  and  C_12
REMARK    6  A    between atoms: C_12  and  C_13
REMARK                            x       y       z     vdW  Elec       q    Type
REMARK                         _______ _______ _______ _____ _____    ______ ____
ROOT
ATOM      1  O   UNL     1       1.894   7.932  19.915  0.00  0.00    +0.000 OA
ENDROOT
BRANCH   1   7
ATOM      2  C   UNL     1       5.413   4.331  15.472  0.00  0.00    +0.000 C 
ATOM      3  N   UNL     1       4.696   4.921  16.591  0.00  0.00    +0.000 N 
ATOM      4  C   UNL     1       4.638   6.283  16.717  0.00  0.00    +0.000 A 
ATOM      5  C   UNL     1       3.945   6.880  17.690  0.00  0.00    +0.000 A 
ATOM      6  C   UNL     1       3.156   6.113  18.670  0.00  0.00    +0.000 A 
ATOM      7  C   UNL     1       2.292   6.641  19.660  0.00  0.00    +0.000 A 
ATOM      8  C   UNL     1       1.671   5.761  20.573  0.00  0.00    +0.000 A 
ATOM      9  C   UNL     1       1.874   4.384  20.526  0.00  0.00    +0.000 A 
ATOM     10  C   UNL     1       2.684   3.853  19.536  0.00  0.00    +0.000 A 
ATOM     11  C   UNL     1       3.304   4.704  18.608  0.00  0.00    +0.000 A 
ATOM     12  C   UNL     1       4.097   4.064  17.511  0.00  0.00    +0.000 A 
ATOM     13  O   UNL     1       4.178   2.840  17.443  0.00  0.00    +0.000 OA
ENDBRANCH   1   7
BRANCH   1  14
ATOM     14  C   UNL     1       1.306   8.258  21.156  0.00  0.00    +0.000 C 
BRANCH  14  15
ATOM     15  C   UNL     1       0.242   9.349  21.108  0.00  0.00    +0.000 C 
ATOM     16  O   UNL     1      -0.513   9.542  22.060  0.00  0.00    +0.000 OA
ATOM     17  N   UNL     1       0.167  10.055  19.934  0.00  0.00    +0.000 N 
ATOM     18  H   UNL     1       0.957  10.001  19.300  0.00  0.00    +0.000 HD
BRANCH  17  19
ATOM     19  C   UNL     1      -0.782  11.132  19.794  0.00  0.00    +0.000 C 
BRANCH  19  20
ATOM     20  C   UNL     1      -1.727  10.950  18.634  0.00  0.00    +0.000 A 
ATOM     21  C   UNL     1      -1.477  10.031  17.604  0.00  0.00    +0.000 A 
ATOM     22  C   UNL     1      -2.399   9.858  16.569  0.00  0.00    +0.000 A 
ATOM     23  C   UNL     1      -3.588  10.582  16.566  0.00  0.00    +0.000 A 
ATOM     24  C   UNL     1      -3.864  11.474  17.599  0.00  0.00    +0.000 A 
ATOM     25  C   UNL     1      -2.941  11.653  18.630  0.00  0.00    +0.000 A 
ENDBRANCH  19  20
ENDBRANCH  17  19
ENDBRANCH  14  15
ENDBRANCH   1  14
TORSDOF 5
ENDMDL
MODEL 7
REMARK VINA RESULT:      -7.9      3.859      6.612
REMARK  Name = 
REMARK  6 active torsions:
REMARK  status: ('A' for Active; 'I' for Inactive)
REMARK    1  A    between atoms: C_1  and  N_2
REMARK    2  A    between atoms: C_6  and  O_7
REMARK    3  A    between atoms: O_7  and  C_8
REMARK    4  A    between atoms: C_8  and  C_9
REMARK    5  A    between atoms: N_11  and  C_12
REMARK    6  A    between atoms: C_12  and  C_13
REMARK                            x       y       z     vdW  Elec       q    Type
REMARK                         _______ _______ _______ _____ _____    ______ ____
ROOT
ATOM      1  O   UNL     1       5.221   3.949  19.710  0.00  0.00    +0.000 OA
ENDROOT
BRANCH   1   7
ATOM      2  C   UNL     1       6.322   3.737  13.089  0.00  0.00    +0.000 C 
ATOM      3  N   UNL     1       6.154   4.023  14.505  0.00  0.00    +0.000 N 
ATOM      4  C   UNL     1       5.206   3.347  15.225  0.00  0.00    +0.000 A 
ATOM      5  C   UNL     1       5.047   3.525  16.540  0.00  0.00    +0.000 A 
ATOM      6  C   UNL     1       5.914   4.430  17.314  0.00  0.00    +0.000 A 
ATOM      7  C   UNL     1       5.916   4.602  18.720  0.00  0.00    +0.000 A 
ATOM      8  C   UNL     1       6.763   5.575  19.293  0.00  0.00    +0.000 A 
ATOM      9  C   UNL     1       7.606   6.368  18.520  0.00  0.00    +0.000 A 
ATOM     10  C   UNL     1       7.643   6.180  17.149  0.00  0.00    +0.000 A 
ATOM     11  C   UNL     1       6.820   5.212  16.553  0.00  0.00    +0.000 A 
ATOM     12  C   UNL     1       6.968   4.996  15.079  0.00  0.00    +0.000 A 
ATOM     13  O   UNL     1       7.790   5.648  14.440  0.00  0.00    +0.000 OA
ENDBRANCH   1   7
BRANCH   1  14
ATOM     14  C   UNL     1       3.970   3.360  19.426  0.00  0.00    +0.000 C 
BRANCH  14  15
ATOM     15  C   UNL     1       2.763   4.273  19.607  0.00  0.00    +0.000 C 
ATOM     16  O   UNL     1       1.695   4.031  19.046  0.00  0.00    +0.000 OA
ATOM     17  N   UNL     1       2.966   5.378  20.394  0.00  0.00    +0.000 N 
ATOM     18  H   UNL     1       3.780   5.383  20.998  0.00  0.00    +0.000 HD
BRANCH  17  19
ATOM     19  C   UNL     1       1.880   6.290  20.658  0.00  0.00    +0.000 C 
BRANCH  19  20
ATOM     20  C   UNL     1       1.887   7.504  19.767  0.00  0.00    +0.000 A 
ATOM     21  C   UNL     1       2.463   7.488  18.488  0.00  0.00    +0.000 A 
ATOM     22  C   UNL     1       2.409   8.621  17.671  0.00  0.00    +0.000 A 
ATOM     23  C   UNL     1       1.759   9.770  18.114  0.00  0.00    +0.000 A 
ATOM     24  C   UNL     1       1.155   9.789  19.369  0.00  0.00    +0.000 A 
ATOM     25  C   UNL     1       1.214   8.661  20.188  0.00  0.00    +0.000 A 
ENDBRANCH  19  20
ENDBRANCH  17  19
ENDBRANCH  14  15
ENDBRANCH   1  14
TORSDOF 5
ENDMDL
MODEL 8
REMARK VINA RESULT:      -7.9      5.640      8.134
REMARK  Name = 
REMARK  6 active torsions:
REMARK  status: ('A' for Active; 'I' for Inactive)
REMARK    1  A    between atoms: C_1  and  N_2
REMARK    2  A    between atoms: C_6  and  O_7
REMARK    3  A    between atoms: O_7  and  C_8
REMARK    4  A    between atoms: C_8  and  C_9
REMARK    5  A    between atoms: N_11  and  C_12
REMARK    6  A    between atoms: C_12  and  C_13
REMARK                            x       y       z     vdW  Elec       q    Type
REMARK                         _______ _______ _______ _____ _____    ______ ____
ROOT
ATOM      1  O   UNL     1       3.323   8.097  18.046  0.00  0.00    +0.000 OA
ENDROOT
BRANCH   1   7
ATOM      2  C   UNL     1       2.207   2.557  21.674  0.00  0.00    +0.000 C 
ATOM      3  N   UNL     1       2.490   3.598  20.699  0.00  0.00    +0.000 N 
ATOM      4  C   UNL     1       1.888   4.822  20.819  0.00  0.00    +0.000 A 
ATOM      5  C   UNL     1       2.155   5.833  19.988  0.00  0.00    +0.000 A 
ATOM      6  C   UNL     1       3.152   5.714  18.911  0.00  0.00    +0.000 A 
ATOM      7  C   UNL     1       3.601   6.750  18.055  0.00  0.00    +0.000 A 
ATOM      8  C   UNL     1       4.508   6.443  17.019  0.00  0.00    +0.000 A 
ATOM      9  C   UNL     1       4.985   5.150  16.813  0.00  0.00    +0.000 A 
ATOM     10  C   UNL     1       4.585   4.138  17.668  0.00  0.00    +0.000 A 
ATOM     11  C   UNL     1       3.693   4.417  18.715  0.00  0.00    +0.000 A 
ATOM     12  C   UNL     1       3.366   3.301  19.657  0.00  0.00    +0.000 A 
ATOM     13  O   UNL     1       3.879   2.195  19.504  0.00  0.00    +0.000 OA
ENDBRANCH   1   7
BRANCH   1  14
ATOM     14  C   UNL     1       2.096   8.562  17.527  0.00  0.00    +0.000 C 
BRANCH  14  15
ATOM     15  C   UNL     1       1.252   9.389  18.489  0.00  0.00    +0.000 C 
ATOM     16  O   UNL     1       1.179   9.097  19.682  0.00  0.00    +0.000 OA
ATOM     17  N   UNL     1       0.564  10.435  17.928  0.00  0.00    +0.000 N 
ATOM     18  H   UNL     1       0.852  10.750  17.009  0.00  0.00    +0.000 HD
BRANCH  17  19
ATOM     19  C   UNL     1      -0.239  11.302  18.755  0.00  0.00    +0.000 C 
BRANCH  19  20
ATOM     20  C   UNL     1      -1.718  11.175  18.497  0.00  0.00    +0.000 A 
ATOM     21  C   UNL     1      -2.662  11.977  19.154  0.00  0.00    +0.000 A 
ATOM     22  C   UNL     1      -4.022  11.863  18.855  0.00  0.00    +0.000 A 
ATOM     23  C   UNL     1      -4.448  10.965  17.879  0.00  0.00    +0.000 A 
ATOM     24  C   UNL     1      -3.518  10.186  17.196  0.00  0.00    +0.000 A 
ATOM     25  C   UNL     1      -2.162  10.294  17.499  0.00  0.00    +0.000 A 
ENDBRANCH  19  20
ENDBRANCH  17  19
ENDBRANCH  14  15
ENDBRANCH   1  14
TORSDOF 5
ENDMDL
MODEL 9
REMARK VINA RESULT:      -7.9      1.298      1.461
REMARK  Name = 
REMARK  6 active torsions:
REMARK  status: ('A' for Active; 'I' for Inactive)
REMARK    1  A    between atoms: C_1  and  N_2
REMARK    2  A    between atoms: C_6  and  O_7
REMARK    3  A    between atoms: O_7  and  C_8
REMARK    4  A    between atoms: C_8  and  C_9
REMARK    5  A    between atoms: N_11  and  C_12
REMARK    6  A    between atoms: C_12  and  C_13
REMARK                            x       y       z     vdW  Elec       q    Type
REMARK                         _______ _______ _______ _____ _____    ______ ____
ROOT
ATOM      1  O   UNL     1       7.654   6.572  16.493  0.00  0.00    +0.000 OA
ENDROOT
BRANCH   1   7
ATOM      2  C   UNL     1       3.137   3.181  20.125  0.00  0.00    +0.000 C 
ATOM      3  N   UNL     1       3.981   3.839  19.141  0.00  0.00    +0.000 N 
ATOM      4  C   UNL     1       4.639   4.992  19.475  0.00  0.00    +0.000 A 
ATOM      5  C   UNL     1       5.473   5.607  18.632  0.00  0.00    +0.000 A 
ATOM      6  C   UNL     1       5.778   5.061  17.299  0.00  0.00    +0.000 A 
ATOM      7  C   UNL     1       6.732   5.558  16.378  0.00  0.00    +0.000 A 
ATOM      8  C   UNL     1       6.840   4.958  15.105  0.00  0.00    +0.000 A 
ATOM      9  C   UNL     1       6.041   3.882  14.726  0.00  0.00    +0.000 A 
ATOM     10  C   UNL     1       5.134   3.361  15.633  0.00  0.00    +0.000 A 
ATOM     11  C   UNL     1       5.014   3.931  16.910  0.00  0.00    +0.000 A 
ATOM     12  C   UNL     1       4.079   3.269  17.873  0.00  0.00    +0.000 A 
ATOM     13  O   UNL     1       3.459   2.263  17.539  0.00  0.00    +0.000 OA
ENDBRANCH   1   7
BRANCH   1  14
ATOM     14  C   UNL     1       7.276   7.812  17.051  0.00  0.00    +0.000 C 
BRANCH  14  15
ATOM     15  C   UNL     1       8.185   8.335  18.157  0.00  0.00    +0.000 C 
ATOM     16  O   UNL     1       8.644   7.578  19.012  0.00  0.00    +0.000 OA
ATOM     17  N   UNL     1       8.414   9.688  18.149  0.00  0.00    +0.000 N 
ATOM     18  H   UNL     1       8.202  10.196  17.298  0.00  0.00    +0.000 HD
BRANCH  17  19
ATOM     19  C   UNL     1       9.287  10.281  19.131  0.00  0.00    +0.000 C 
BRANCH  19  20
ATOM     20  C   UNL     1       9.832  11.623  18.715  0.00  0.00    +0.000 A 
ATOM     21  C   UNL     1       9.451  12.814  19.351  0.00  0.00    +0.000 A 
ATOM     22  C   UNL     1      10.013  14.034  18.967  0.00  0.00    +0.000 A 
ATOM     23  C   UNL     1      10.978  14.073  17.964  0.00  0.00    +0.000 A 
ATOM     24  C   UNL     1      11.389  12.894  17.347  0.00  0.00    +0.000 A 
ATOM     25  C   UNL     1      10.824  11.676  17.724  0.00  0.00    +0.000 A 
ENDBRANCH  19  20
ENDBRANCH  17  19
ENDBRANCH  14  15
ENDBRANCH   1  14
TORSDOF 5
ENDMDL
