MODEL 1
REMARK VINA RESULT:      -7.3      0.000      0.000
REMARK  Name = 
REMARK  10 active torsions:
REMARK  status: ('A' for Active; 'I' for Inactive)
REMARK    1  A    between atoms: C_2  and  C_3
REMARK    2  A    between atoms: C_6  and  N_7
REMARK    3  A    between atoms: C_8  and  C_10
REMARK    4  A    between atoms: C_10  and  C_11
REMARK    5  A    between atoms: C_10  and  N_17
REMARK    6  A    between atoms: C_11  and  C_12
REMARK    7  A    between atoms: C_12  and  C_13
REMARK    8  A    between atoms: C_13  and  C_14
REMARK    9  A    between atoms: C_14  and  O_16
REMARK   10  A    between atoms: C_18  and  C_20
REMARK                            x       y       z     vdW  Elec       q    Type
REMARK                         _______ _______ _______ _____ _____    ______ ____
ROOT
ATOM      1  C   UNL     1       4.045   4.076  17.847  0.00  0.00    +0.000 C 
ENDROOT
BRANCH   1   3
ATOM      2  N   UNL     1       3.300   6.325  18.538  0.00  0.00    +0.000 N 
ATOM      3  C   UNL     1       2.897   5.092  18.036  0.00  0.00    +0.000 C 
ATOM      4  O   UNL     1       1.758   4.805  17.668  0.00  0.00    +0.000 OA
ATOM      5  H   UNL     1       4.298   6.455  18.691  0.00  0.00    +0.000 HD
BRANCH   2   9
ATOM      6  C   UNL     1       0.835   9.692  19.334  0.00  0.00    +0.000 A 
ATOM      7  C   UNL     1       1.127   8.792  20.357  0.00  0.00    +0.000 A 
ATOM      8  C   UNL     1       1.934   7.674  20.108  0.00  0.00    +0.000 A 
ATOM      9  C   UNL     1       2.460   7.428  18.836  0.00  0.00    +0.000 A 
ATOM     10  C   UNL     1       2.149   8.329  17.807  0.00  0.00    +0.000 A 
ATOM     11  C   UNL     1       1.346   9.455  18.054  0.00  0.00    +0.000 A 
BRANCH   6  13
ATOM     12  N   UNL     1      -0.625  11.784  19.813  0.00  0.00    +0.000 NA
ATOM     13  C   UNL     1       0.025  10.846  19.605  0.00  0.00    +0.000 C 
ENDBRANCH   6  13
ENDBRANCH   2   9
ENDBRANCH   1   3
BRANCH   1  14
ATOM     14  N   UNL     1       4.579   4.262  16.501  0.00  0.00    +0.000 N 
ATOM     15  C   UNL     1       5.938   4.384  16.246  0.00  0.00    +0.000 C 
ATOM     16  O   UNL     1       6.759   4.330  17.163  0.00  0.00    +0.000 OA
ATOM     17  H   UNL     1       3.934   4.541  15.765  0.00  0.00    +0.000 HD
BRANCH  15  18
ATOM     18  C   UNL     1       6.295   4.585  14.751  0.00  0.00    +0.000 C 
ATOM     19  F   UNL     1       6.264   3.402  14.066  0.00  0.00    +0.000 F 
ATOM     20  F   UNL     1       5.426   5.415  14.116  0.00  0.00    +0.000 F 
ATOM     21  F   UNL     1       7.541   5.099  14.572  0.00  0.00    +0.000 F 
ENDBRANCH  15  18
ENDBRANCH   1  14
BRANCH   1  22
ATOM     22  C   UNL     1       3.510   2.637  17.997  0.00  0.00    +0.000 C 
BRANCH  22  23
ATOM     23  C   UNL     1       3.257   2.266  19.461  0.00  0.00    +0.000 C 
BRANCH  23  24
ATOM     24  C   UNL     1       1.779   2.010  19.757  0.00  0.00    +0.000 C 
BRANCH  24  25
ATOM     25  C   UNL     1       1.299   2.895  20.888  0.00  0.00    +0.000 C 
ATOM     26  O   UNL     1       1.482   2.677  22.074  0.00  0.00    +0.000 OA
BRANCH  25  27
ATOM     27  O   UNL     1       0.623   3.981  20.449  0.00  0.00    +0.000 OA
ATOM     28  H   UNL     1      -0.123   3.776  19.856  0.00  0.00    +0.000 HD
ENDBRANCH  25  27
ENDBRANCH  24  25
ENDBRANCH  23  24
ENDBRANCH  22  23
ENDBRANCH   1  22
TORSDOF 10
ENDMDL
MODEL 2
REMARK VINA RESULT:      -7.2      1.095      1.236
REMARK  Name = 
REMARK  10 active torsions:
REMARK  status: ('A' for Active; 'I' for Inactive)
REMARK    1  A    between atoms: C_2  and  C_3
REMARK    2  A    between atoms: C_6  and  N_7
REMARK    3  A    between atoms: C_8  and  C_10
REMARK    4  A    between atoms: C_10  and  C_11
REMARK    5  A    between atoms: C_10  and  N_17
REMARK    6  A    between atoms: C_11  and  C_12
REMARK    7  A    between atoms: C_12  and  C_13
REMARK    8  A    between atoms: C_13  and  C_14
REMARK    9  A    between atoms: C_14  and  O_16
REMARK   10  A    between atoms: C_18  and  C_20
REMARK                            x       y       z     vdW  Elec       q    Type
REMARK                         _______ _______ _______ _____ _____    ______ ____
ROOT
ATOM      1  C   UNL     1       3.538   4.182  18.217  0.00  0.00    +0.000 C 
ENDROOT
BRANCH   1   3
ATOM      2  N   UNL     1       2.967   6.511  18.804  0.00  0.00    +0.000 N 
ATOM      3  C   UNL     1       2.487   5.313  18.285  0.00  0.00    +0.000 C 
ATOM      4  O   UNL     1       1.362   5.133  17.819  0.00  0.00    +0.000 OA
ATOM      5  H   UNL     1       3.956   6.543  19.046  0.00  0.00    +0.000 HD
BRANCH   2   9
ATOM      6  C   UNL     1       0.798  10.126  19.320  0.00  0.00    +0.000 A 
ATOM      7  C   UNL     1       0.919   9.235  20.385  0.00  0.00    +0.000 A 
ATOM      8  C   UNL     1       1.627   8.037  20.227  0.00  0.00    +0.000 A 
ATOM      9  C   UNL     1       2.221   7.699  19.007  0.00  0.00    +0.000 A 
ATOM     10  C   UNL     1       2.081   8.593  17.936  0.00  0.00    +0.000 A 
ATOM     11  C   UNL     1       1.379   9.800  18.091  0.00  0.00    +0.000 A 
BRANCH   6  13
ATOM     12  N   UNL     1      -0.478  12.363  19.652  0.00  0.00    +0.000 NA
ATOM     13  C   UNL     1       0.089  11.362  19.498  0.00  0.00    +0.000 C 
ENDBRANCH   6  13
ENDBRANCH   2   9
ENDBRANCH   1   3
BRANCH   1  14
ATOM     14  N   UNL     1       4.623   4.643  17.356  0.00  0.00    +0.000 N 
ATOM     15  C   UNL     1       5.936   4.736  17.793  0.00  0.00    +0.000 C 
ATOM     16  O   UNL     1       6.242   4.419  18.944  0.00  0.00    +0.000 OA
ATOM     17  H   UNL     1       4.377   5.124  16.494  0.00  0.00    +0.000 HD
BRANCH  15  18
ATOM     18  C   UNL     1       6.933   5.256  16.726  0.00  0.00    +0.000 C 
ATOM     19  F   UNL     1       7.833   4.290  16.369  0.00  0.00    +0.000 F 
ATOM     20  F   UNL     1       6.313   5.640  15.579  0.00  0.00    +0.000 F 
ATOM     21  F   UNL     1       7.662   6.318  17.159  0.00  0.00    +0.000 F 
ENDBRANCH  15  18
ENDBRANCH   1  14
BRANCH   1  22
ATOM     22  C   UNL     1       2.907   2.908  17.619  0.00  0.00    +0.000 C 
BRANCH  22  23
ATOM     23  C   UNL     1       2.191   2.066  18.679  0.00  0.00    +0.000 C 
BRANCH  23  24
ATOM     24  C   UNL     1       2.661   2.383  20.100  0.00  0.00    +0.000 C 
BRANCH  24  25
ATOM     25  C   UNL     1       1.487   2.749  20.983  0.00  0.00    +0.000 C 
ATOM     26  O   UNL     1       1.420   2.536  22.183  0.00  0.00    +0.000 OA
BRANCH  25  27
ATOM     27  O   UNL     1       0.488   3.349  20.299  0.00  0.00    +0.000 OA
ATOM     28  H   UNL     1       0.112   2.806  19.581  0.00  0.00    +0.000 HD
ENDBRANCH  25  27
ENDBRANCH  24  25
ENDBRANCH  23  24
ENDBRANCH  22  23
ENDBRANCH   1  22
TORSDOF 10
ENDMDL
MODEL 3
REMARK VINA RESULT:      -7.2      1.450      2.001
REMARK  Name = 
REMARK  10 active torsions:
REMARK  status: ('A' for Active; 'I' for Inactive)
REMARK    1  A    between atoms: C_2  and  C_3
REMARK    2  A    between atoms: C_6  and  N_7
REMARK    3  A    between atoms: C_8  and  C_10
REMARK    4  A    between atoms: C_10  and  C_11
REMARK    5  A    between atoms: C_10  and  N_17
REMARK    6  A    between atoms: C_11  and  C_12
REMARK    7  A    between atoms: C_12  and  C_13
REMARK    8  A    between atoms: C_13  and  C_14
REMARK    9  A    between atoms: C_14  and  O_16
REMARK   10  A    between atoms: C_18  and  C_20
REMARK                            x       y       z     vdW  Elec       q    Type
REMARK                         _______ _______ _______ _____ _____    ______ ____
ROOT
ATOM      1  C   UNL     1       3.784   4.056  18.596  0.00  0.00    +0.000 C 
ENDROOT
BRANCH   1   3
ATOM      2  N   UNL     1       3.106   6.385  19.050  0.00  0.00    +0.000 N 
ATOM      3  C   UNL     1       2.778   5.209  18.385  0.00  0.00    +0.000 C 
ATOM      4  O   UNL     1       1.834   5.063  17.609  0.00  0.00    +0.000 OA
ATOM      5  H   UNL     1       3.982   6.390  19.569  0.00  0.00    +0.000 HD
BRANCH   2   9
ATOM      6  C   UNL     1       0.780   9.937  19.172  0.00  0.00    +0.000 A 
ATOM      7  C   UNL     1       1.419   9.571  17.989  0.00  0.00    +0.000 A 
ATOM      8  C   UNL     1       2.194   8.404  17.936  0.00  0.00    +0.000 A 
ATOM      9  C   UNL     1       2.353   7.586  19.059  0.00  0.00    +0.000 A 
ATOM     10  C   UNL     1       1.720   7.970  20.250  0.00  0.00    +0.000 A 
ATOM     11  C   UNL     1       0.936   9.135  20.306  0.00  0.00    +0.000 A 
BRANCH   6  13
ATOM     12  N   UNL     1      -0.684  12.081  19.229  0.00  0.00    +0.000 NA
ATOM     13  C   UNL     1      -0.030  11.122  19.210  0.00  0.00    +0.000 C 
ENDBRANCH   6  13
ENDBRANCH   2   9
ENDBRANCH   1   3
BRANCH   1  14
ATOM     14  N   UNL     1       5.002   4.398  17.868  0.00  0.00    +0.000 N 
ATOM     15  C   UNL     1       6.129   4.911  18.494  0.00  0.00    +0.000 C 
ATOM     16  O   UNL     1       6.146   5.092  19.713  0.00  0.00    +0.000 OA
ATOM     17  H   UNL     1       4.946   4.482  16.855  0.00  0.00    +0.000 HD
BRANCH  15  18
ATOM     18  C   UNL     1       7.312   5.217  17.540  0.00  0.00    +0.000 C 
ATOM     19  F   UNL     1       6.883   5.399  16.254  0.00  0.00    +0.000 F 
ATOM     20  F   UNL     1       7.975   6.353  17.883  0.00  0.00    +0.000 F 
ATOM     21  F   UNL     1       8.229   4.216  17.500  0.00  0.00    +0.000 F 
ENDBRANCH  15  18
ENDBRANCH   1  14
BRANCH   1  22
ATOM     22  C   UNL     1       3.204   2.737  18.045  0.00  0.00    +0.000 C 
BRANCH  22  23
ATOM     23  C   UNL     1       2.648   1.842  19.155  0.00  0.00    +0.000 C 
BRANCH  23  24
ATOM     24  C   UNL     1       1.585   2.544  20.001  0.00  0.00    +0.000 C 
BRANCH  24  25
ATOM     25  C   UNL     1       1.944   2.484  21.471  0.00  0.00    +0.000 C 
ATOM     26  O   UNL     1       3.079   2.396  21.911  0.00  0.00    +0.000 OA
BRANCH  25  27
ATOM     27  O   UNL     1       0.859   2.534  22.275  0.00  0.00    +0.000 OA
ATOM     28  H   UNL     1       0.508   3.433  22.419  0.00  0.00    +0.000 HD
ENDBRANCH  25  27
ENDBRANCH  24  25
ENDBRANCH  23  24
ENDBRANCH  22  23
ENDBRANCH   1  22
TORSDOF 10
ENDMDL
MODEL 4
REMARK VINA RESULT:      -7.1      0.208      1.163
REMARK  Name = 
REMARK  10 active torsions:
REMARK  status: ('A' for Active; 'I' for Inactive)
REMARK    1  A    between atoms: C_2  and  C_3
REMARK    2  A    between atoms: C_6  and  N_7
REMARK    3  A    between atoms: C_8  and  C_10
REMARK    4  A    between atoms: C_10  and  C_11
REMARK    5  A    between atoms: C_10  and  N_17
REMARK    6  A    between atoms: C_11  and  C_12
REMARK    7  A    between atoms: C_12  and  C_13
REMARK    8  A    between atoms: C_13  and  C_14
REMARK    9  A    between atoms: C_14  and  O_16
REMARK   10  A    between atoms: C_18  and  C_20
REMARK                            x       y       z     vdW  Elec       q    Type
REMARK                         _______ _______ _______ _____ _____    ______ ____
ROOT
ATOM      1  C   UNL     1       4.064   4.128  17.841  0.00  0.00    +0.000 C 
ENDROOT
BRANCH   1   3
ATOM      2  N   UNL     1       3.312   6.382  18.507  0.00  0.00    +0.000 N 
ATOM      3  C   UNL     1       2.915   5.148  18.002  0.00  0.00    +0.000 C 
ATOM      4  O   UNL     1       1.784   4.863  17.611  0.00  0.00    +0.000 OA
ATOM      5  H   UNL     1       4.307   6.509  18.681  0.00  0.00    +0.000 HD
BRANCH   2   9
ATOM      6  C   UNL     1       0.737   9.632  19.431  0.00  0.00    +0.000 A 
ATOM      7  C   UNL     1       1.230   9.488  18.136  0.00  0.00    +0.000 A 
ATOM      8  C   UNL     1       2.084   8.424  17.818  0.00  0.00    +0.000 A 
ATOM      9  C   UNL     1       2.469   7.489  18.783  0.00  0.00    +0.000 A 
ATOM     10  C   UNL     1       1.982   7.649  20.089  0.00  0.00    +0.000 A 
ATOM     11  C   UNL     1       1.119   8.710  20.410  0.00  0.00    +0.000 A 
BRANCH   6  13
ATOM     12  N   UNL     1      -0.885  11.583  19.984  0.00  0.00    +0.000 NA
ATOM     13  C   UNL     1      -0.155  10.713  19.741  0.00  0.00    +0.000 C 
ENDBRANCH   6  13
ENDBRANCH   2   9
ENDBRANCH   1   3
BRANCH   1  14
ATOM     14  N   UNL     1       4.595   4.274  16.488  0.00  0.00    +0.000 N 
ATOM     15  C   UNL     1       5.954   4.368  16.225  0.00  0.00    +0.000 C 
ATOM     16  O   UNL     1       6.779   4.321  17.139  0.00  0.00    +0.000 OA
ATOM     17  H   UNL     1       3.951   4.546  15.749  0.00  0.00    +0.000 HD
BRANCH  15  18
ATOM     18  C   UNL     1       6.308   4.528  14.724  0.00  0.00    +0.000 C 
ATOM     19  F   UNL     1       6.397   3.315  14.099  0.00  0.00    +0.000 F 
ATOM     20  F   UNL     1       5.370   5.238  14.042  0.00  0.00    +0.000 F 
ATOM     21  F   UNL     1       7.500   5.149  14.527  0.00  0.00    +0.000 F 
ENDBRANCH  15  18
ENDBRANCH   1  14
BRANCH   1  22
ATOM     22  C   UNL     1       3.531   2.694  18.036  0.00  0.00    +0.000 C 
BRANCH  22  23
ATOM     23  C   UNL     1       3.318   2.354  19.513  0.00  0.00    +0.000 C 
BRANCH  23  24
ATOM     24  C   UNL     1       1.841   2.188  19.873  0.00  0.00    +0.000 C 
BRANCH  24  25
ATOM     25  C   UNL     1       1.452   3.135  20.989  0.00  0.00    +0.000 C 
ATOM     26  O   UNL     1       1.128   4.301  20.836  0.00  0.00    +0.000 OA
BRANCH  25  27
ATOM     27  O   UNL     1       1.504   2.553  22.208  0.00  0.00    +0.000 OA
ATOM     28  H   UNL     1       2.120   1.800  22.266  0.00  0.00    +0.000 HD
ENDBRANCH  25  27
ENDBRANCH  24  25
ENDBRANCH  23  24
ENDBRANCH  22  23
ENDBRANCH   1  22
TORSDOF 10
ENDMDL
MODEL 5
REMARK VINA RESULT:      -7.1      1.153      1.705
REMARK  Name = 
REMARK  10 active torsions:
REMARK  status: ('A' for Active; 'I' for Inactive)
REMARK    1  A    between atoms: C_2  and  C_3
REMARK    2  A    between atoms: C_6  and  N_7
REMARK    3  A    between atoms: C_8  and  C_10
REMARK    4  A    between atoms: C_10  and  C_11
REMARK    5  A    between atoms: C_10  and  N_17
REMARK    6  A    between atoms: C_11  and  C_12
REMARK    7  A    between atoms: C_12  and  C_13
REMARK    8  A    between atoms: C_13  and  C_14
REMARK    9  A    between atoms: C_14  and  O_16
REMARK   10  A    between atoms: C_18  and  C_20
REMARK                            x       y       z     vdW  Elec       q    Type
REMARK                         _______ _______ _______ _____ _____    ______ ____
ROOT
ATOM      1  C   UNL     1       5.014   3.724  17.801  0.00  0.00    +0.000 C 
ENDROOT
BRANCH   1   3
ATOM      2  N   UNL     1       3.322   5.480  18.177  0.00  0.00    +0.000 N 
ATOM      3  C   UNL     1       4.591   5.025  18.518  0.00  0.00    +0.000 C 
ATOM      4  O   UNL     1       5.324   5.518  19.376  0.00  0.00    +0.000 OA
ATOM      5  H   UNL     1       2.784   4.903  17.533  0.00  0.00    +0.000 HD
BRANCH   2   9
ATOM      6  C   UNL     1       1.375   8.935  19.699  0.00  0.00    +0.000 A 
ATOM      7  C   UNL     1       1.844   8.928  18.387  0.00  0.00    +0.000 A 
ATOM      8  C   UNL     1       2.493   7.798  17.873  0.00  0.00    +0.000 A 
ATOM      9  C   UNL     1       2.692   6.657  18.657  0.00  0.00    +0.000 A 
ATOM     10  C   UNL     1       2.232   6.677  19.981  0.00  0.00    +0.000 A 
ATOM     11  C   UNL     1       1.574   7.806  20.498  0.00  0.00    +0.000 A 
BRANCH   6  13
ATOM     12  N   UNL     1       0.146  11.032  20.613  0.00  0.00    +0.000 NA
ATOM     13  C   UNL     1       0.692  10.091  20.209  0.00  0.00    +0.000 C 
ENDBRANCH   6  13
ENDBRANCH   2   9
ENDBRANCH   1   3
BRANCH   1  14
ATOM     14  N   UNL     1       5.317   4.065  16.414  0.00  0.00    +0.000 N 
ATOM     15  C   UNL     1       6.597   4.384  15.985  0.00  0.00    +0.000 C 
ATOM     16  O   UNL     1       7.546   4.382  16.772  0.00  0.00    +0.000 OA
ATOM     17  H   UNL     1       4.541   4.301  15.799  0.00  0.00    +0.000 HD
BRANCH  15  18
ATOM     18  C   UNL     1       6.703   4.726  14.476  0.00  0.00    +0.000 C 
ATOM     19  F   UNL     1       5.730   5.608  14.094  0.00  0.00    +0.000 F 
ATOM     20  F   UNL     1       7.890   5.307  14.158  0.00  0.00    +0.000 F 
ATOM     21  F   UNL     1       6.566   3.635  13.678  0.00  0.00    +0.000 F 
ENDBRANCH  15  18
ENDBRANCH   1  14
BRANCH   1  22
ATOM     22  C   UNL     1       3.863   2.698  17.842  0.00  0.00    +0.000 C 
BRANCH  22  23
ATOM     23  C   UNL     1       3.629   2.149  19.252  0.00  0.00    +0.000 C 
BRANCH  23  24
ATOM     24  C   UNL     1       2.147   2.104  19.629  0.00  0.00    +0.000 C 
BRANCH  24  25
ATOM     25  C   UNL     1       1.931   2.669  21.017  0.00  0.00    +0.000 C 
ATOM     26  O   UNL     1       2.722   2.578  21.941  0.00  0.00    +0.000 OA
BRANCH  25  27
ATOM     27  O   UNL     1       0.742   3.299  21.143  0.00  0.00    +0.000 OA
ATOM     28  H   UNL     1       0.333   3.211  22.023  0.00  0.00    +0.000 HD
ENDBRANCH  25  27
ENDBRANCH  24  25
ENDBRANCH  23  24
ENDBRANCH  22  23
ENDBRANCH   1  22
TORSDOF 10
ENDMDL
MODEL 6
REMARK VINA RESULT:      -7.1      1.490      2.089
REMARK  Name = 
REMARK  10 active torsions:
REMARK  status: ('A' for Active; 'I' for Inactive)
REMARK    1  A    between atoms: C_2  and  C_3
REMARK    2  A    between atoms: C_6  and  N_7
REMARK    3  A    between atoms: C_8  and  C_10
REMARK    4  A    between atoms: C_10  and  C_11
REMARK    5  A    between atoms: C_10  and  N_17
REMARK    6  A    between atoms: C_11  and  C_12
REMARK    7  A    between atoms: C_12  and  C_13
REMARK    8  A    between atoms: C_13  and  C_14
REMARK    9  A    between atoms: C_14  and  O_16
REMARK   10  A    between atoms: C_18  and  C_20
REMARK                            x       y       z     vdW  Elec       q    Type
REMARK                         _______ _______ _______ _____ _____    ______ ____
ROOT
ATOM      1  C   UNL     1       3.828   4.178  18.692  0.00  0.00    +0.000 C 
ENDROOT
BRANCH   1   3
ATOM      2  N   UNL     1       3.057   6.480  19.135  0.00  0.00    +0.000 N 
ATOM      3  C   UNL     1       2.791   5.298  18.452  0.00  0.00    +0.000 C 
ATOM      4  O   UNL     1       1.881   5.127  17.642  0.00  0.00    +0.000 OA
ATOM      5  H   UNL     1       3.914   6.510  19.685  0.00  0.00    +0.000 HD
BRANCH   2   9
ATOM      6  C   UNL     1       0.616   9.955  19.200  0.00  0.00    +0.000 A 
ATOM      7  C   UNL     1       1.247   9.577  18.017  0.00  0.00    +0.000 A 
ATOM      8  C   UNL     1       2.060   8.436  17.982  0.00  0.00    +0.000 A 
ATOM      9  C   UNL     1       2.264   7.655  19.124  0.00  0.00    +0.000 A 
ATOM     10  C   UNL     1       1.638   8.051  20.315  0.00  0.00    +0.000 A 
ATOM     11  C   UNL     1       0.816   9.190  20.353  0.00  0.00    +0.000 A 
BRANCH   6  13
ATOM     12  N   UNL     1      -0.928  12.043  19.240  0.00  0.00    +0.000 NA
ATOM     13  C   UNL     1      -0.233  11.113  19.220  0.00  0.00    +0.000 C 
ENDBRANCH   6  13
ENDBRANCH   2   9
ENDBRANCH   1   3
BRANCH   1  14
ATOM     14  N   UNL     1       5.020   4.510  17.917  0.00  0.00    +0.000 N 
ATOM     15  C   UNL     1       6.197   4.947  18.507  0.00  0.00    +0.000 C 
ATOM     16  O   UNL     1       6.284   5.065  19.731  0.00  0.00    +0.000 OA
ATOM     17  H   UNL     1       4.915   4.647  16.914  0.00  0.00    +0.000 HD
BRANCH  15  18
ATOM     18  C   UNL     1       7.341   5.256  17.507  0.00  0.00    +0.000 C 
ATOM     19  F   UNL     1       8.057   6.356  17.889  0.00  0.00    +0.000 F 
ATOM     20  F   UNL     1       8.235   4.236  17.410  0.00  0.00    +0.000 F 
ATOM     21  F   UNL     1       6.888   5.510  16.251  0.00  0.00    +0.000 F 
ENDBRANCH  15  18
ENDBRANCH   1  14
BRANCH   1  22
ATOM     22  C   UNL     1       3.264   2.822  18.218  0.00  0.00    +0.000 C 
BRANCH  22  23
ATOM     23  C   UNL     1       2.578   2.055  19.352  0.00  0.00    +0.000 C 
BRANCH  23  24
ATOM     24  C   UNL     1       3.167   2.382  20.726  0.00  0.00    +0.000 C 
BRANCH  24  25
ATOM     25  C   UNL     1       2.123   3.024  21.616  0.00  0.00    +0.000 C 
ATOM     26  O   UNL     1       1.344   2.416  22.331  0.00  0.00    +0.000 OA
BRANCH  25  27
ATOM     27  O   UNL     1       2.132   4.373  21.540  0.00  0.00    +0.000 OA
ATOM     28  H   UNL     1       3.021   4.771  21.578  0.00  0.00    +0.000 HD
ENDBRANCH  25  27
ENDBRANCH  24  25
ENDBRANCH  23  24
ENDBRANCH  22  23
ENDBRANCH   1  22
TORSDOF 10
ENDMDL
MODEL 7
REMARK VINA RESULT:      -7.1      3.243      5.289
REMARK  Name = 
REMARK  10 active torsions:
REMARK  status: ('A' for Active; 'I' for Inactive)
REMARK    1  A    between atoms: C_2  and  C_3
REMARK    2  A    between atoms: C_6  and  N_7
REMARK    3  A    between atoms: C_8  and  C_10
REMARK    4  A    between atoms: C_10  and  C_11
REMARK    5  A    between atoms: C_10  and  N_17
REMARK    6  A    between atoms: C_11  and  C_12
REMARK    7  A    between atoms: C_12  and  C_13
REMARK    8  A    between atoms: C_13  and  C_14
REMARK    9  A    between atoms: C_14  and  O_16
REMARK   10  A    between atoms: C_18  and  C_20
REMARK                            x       y       z     vdW  Elec       q    Type
REMARK                         _______ _______ _______ _____ _____    ______ ____
ROOT
ATOM      1  C   UNL     1       3.086   6.105  18.000  0.00  0.00    +0.000 C 
ENDROOT
BRANCH   1   3
ATOM      2  N   UNL     1       1.867   7.393  19.717  0.00  0.00    +0.000 N 
ATOM      3  C   UNL     1       2.558   7.464  18.511  0.00  0.00    +0.000 C 
ATOM      4  O   UNL     1       2.837   8.497  17.904  0.00  0.00    +0.000 OA
ATOM      5  H   UNL     1       1.812   6.479  20.161  0.00  0.00    +0.000 HD
BRANCH   2   9
ATOM      6  C   UNL     1       0.001  10.551  21.858  0.00  0.00    +0.000 A 
ATOM      7  C   UNL     1       0.056  10.599  20.467  0.00  0.00    +0.000 A 
ATOM      8  C   UNL     1       0.673   9.567  19.748  0.00  0.00    +0.000 A 
ATOM      9  C   UNL     1       1.252   8.473  20.399  0.00  0.00    +0.000 A 
ATOM     10  C   UNL     1       1.206   8.440  21.800  0.00  0.00    +0.000 A 
ATOM     11  C   UNL     1       0.582   9.469  22.525  0.00  0.00    +0.000 A 
BRANCH   6  13
ATOM     12  N   UNL     1      -1.186  12.457  23.162  0.00  0.00    +0.000 NA
ATOM     13  C   UNL     1      -0.654  11.602  22.585  0.00  0.00    +0.000 C 
ENDBRANCH   6  13
ENDBRANCH   2   9
ENDBRANCH   1   3
BRANCH   1  14
ATOM     14  N   UNL     1       2.536   5.066  18.866  0.00  0.00    +0.000 N 
ATOM     15  C   UNL     1       1.611   4.133  18.418  0.00  0.00    +0.000 C 
ATOM     16  O   UNL     1       1.221   4.142  17.249  0.00  0.00    +0.000 OA
ATOM     17  H   UNL     1       2.653   5.170  19.871  0.00  0.00    +0.000 HD
BRANCH  15  18
ATOM     18  C   UNL     1       1.145   3.122  19.498  0.00  0.00    +0.000 C 
ATOM     19  F   UNL     1       0.673   3.761  20.611  0.00  0.00    +0.000 F 
ATOM     20  F   UNL     1       0.135   2.325  19.060  0.00  0.00    +0.000 F 
ATOM     21  F   UNL     1       2.145   2.305  19.921  0.00  0.00    +0.000 F 
ENDBRANCH  15  18
ENDBRANCH   1  14
BRANCH   1  22
ATOM     22  C   UNL     1       4.627   6.075  18.071  0.00  0.00    +0.000 C 
BRANCH  22  23
ATOM     23  C   UNL     1       5.194   4.697  17.719  0.00  0.00    +0.000 C 
BRANCH  23  24
ATOM     24  C   UNL     1       5.651   4.602  16.262  0.00  0.00    +0.000 C 
BRANCH  24  25
ATOM     25  C   UNL     1       7.153   4.763  16.161  0.00  0.00    +0.000 C 
ATOM     26  O   UNL     1       7.958   4.357  16.983  0.00  0.00    +0.000 OA
BRANCH  25  27
ATOM     27  O   UNL     1       7.532   5.422  15.043  0.00  0.00    +0.000 OA
ATOM     28  H   UNL     1       7.870   6.322  15.204  0.00  0.00    +0.000 HD
ENDBRANCH  25  27
ENDBRANCH  24  25
ENDBRANCH  23  24
ENDBRANCH  22  23
ENDBRANCH   1  22
TORSDOF 10
ENDMDL
MODEL 8
REMARK VINA RESULT:      -7.1      1.562      1.874
REMARK  Name = 
REMARK  10 active torsions:
REMARK  status: ('A' for Active; 'I' for Inactive)
REMARK    1  A    between atoms: C_2  and  C_3
REMARK    2  A    between atoms: C_6  and  N_7
REMARK    3  A    between atoms: C_8  and  C_10
REMARK    4  A    between atoms: C_10  and  C_11
REMARK    5  A    between atoms: C_10  and  N_17
REMARK    6  A    between atoms: C_11  and  C_12
REMARK    7  A    between atoms: C_12  and  C_13
REMARK    8  A    between atoms: C_13  and  C_14
REMARK    9  A    between atoms: C_14  and  O_16
REMARK   10  A    between atoms: C_18  and  C_20
REMARK                            x       y       z     vdW  Elec       q    Type
REMARK                         _______ _______ _______ _____ _____    ______ ____
ROOT
ATOM      1  C   UNL     1       3.767   4.152  18.593  0.00  0.00    +0.000 C 
ENDROOT
BRANCH   1   3
ATOM      2  N   UNL     1       3.106   6.483  19.063  0.00  0.00    +0.000 N 
ATOM      3  C   UNL     1       2.754   5.305  18.413  0.00  0.00    +0.000 C 
ATOM      4  O   UNL     1       1.783   5.157  17.671  0.00  0.00    +0.000 OA
ATOM      5  H   UNL     1       3.999   6.490  19.551  0.00  0.00    +0.000 HD
BRANCH   2   9
ATOM      6  C   UNL     1       0.929  10.131  19.068  0.00  0.00    +0.000 A 
ATOM      7  C   UNL     1       0.893   9.303  20.189  0.00  0.00    +0.000 A 
ATOM      8  C   UNL     1       1.602   8.095  20.199  0.00  0.00    +0.000 A 
ATOM      9  C   UNL     1       2.353   7.685  19.094  0.00  0.00    +0.000 A 
ATOM     10  C   UNL     1       2.372   8.515  17.964  0.00  0.00    +0.000 A 
ATOM     11  C   UNL     1       1.669   9.731  17.952  0.00  0.00    +0.000 A 
BRANCH   6  13
ATOM     12  N   UNL     1      -0.358  12.386  19.071  0.00  0.00    +0.000 NA
ATOM     13  C   UNL     1       0.218  11.378  19.076  0.00  0.00    +0.000 C 
ENDBRANCH   6  13
ENDBRANCH   2   9
ENDBRANCH   1   3
BRANCH   1  14
ATOM     14  N   UNL     1       4.987   4.526  17.884  0.00  0.00    +0.000 N 
ATOM     15  C   UNL     1       6.109   5.018  18.535  0.00  0.00    +0.000 C 
ATOM     16  O   UNL     1       6.120   5.152  19.760  0.00  0.00    +0.000 OA
ATOM     17  H   UNL     1       4.935   4.649  16.875  0.00  0.00    +0.000 HD
BRANCH  15  18
ATOM     18  C   UNL     1       7.295   5.364  17.598  0.00  0.00    +0.000 C 
ATOM     19  F   UNL     1       6.859   5.869  16.405  0.00  0.00    +0.000 F 
ATOM     20  F   UNL     1       8.119   6.305  18.131  0.00  0.00    +0.000 F 
ATOM     21  F   UNL     1       8.063   4.284  17.300  0.00  0.00    +0.000 F 
ENDBRANCH  15  18
ENDBRANCH   1  14
BRANCH   1  22
ATOM     22  C   UNL     1       3.199   2.849  17.995  0.00  0.00    +0.000 C 
BRANCH  22  23
ATOM     23  C   UNL     1       2.699   1.888  19.077  0.00  0.00    +0.000 C 
BRANCH  23  24
ATOM     24  C   UNL     1       1.618   2.508  19.963  0.00  0.00    +0.000 C 
BRANCH  24  25
ATOM     25  C   UNL     1       2.016   2.437  21.422  0.00  0.00    +0.000 C 
ATOM     26  O   UNL     1       1.239   2.466  22.362  0.00  0.00    +0.000 OA
BRANCH  25  27
ATOM     27  O   UNL     1       3.353   2.340  21.593  0.00  0.00    +0.000 OA
ATOM     28  H   UNL     1       3.835   2.019  20.808  0.00  0.00    +0.000 HD
ENDBRANCH  25  27
ENDBRANCH  24  25
ENDBRANCH  23  24
ENDBRANCH  22  23
ENDBRANCH   1  22
TORSDOF 10
ENDMDL
MODEL 9
REMARK VINA RESULT:      -7.0      2.946      5.228
REMARK  Name = 
REMARK  10 active torsions:
REMARK  status: ('A' for Active; 'I' for Inactive)
REMARK    1  A    between atoms: C_2  and  C_3
REMARK    2  A    between atoms: C_6  and  N_7
REMARK    3  A    between atoms: C_8  and  C_10
REMARK    4  A    between atoms: C_10  and  C_11
REMARK    5  A    between atoms: C_10  and  N_17
REMARK    6  A    between atoms: C_11  and  C_12
REMARK    7  A    between atoms: C_12  and  C_13
REMARK    8  A    between atoms: C_13  and  C_14
REMARK    9  A    between atoms: C_14  and  O_16
REMARK   10  A    between atoms: C_18  and  C_20
REMARK                            x       y       z     vdW  Elec       q    Type
REMARK                         _______ _______ _______ _____ _____    ______ ____
ROOT
ATOM      1  C   UNL     1       4.648   4.696  16.502  0.00  0.00    +0.000 C 
ENDROOT
BRANCH   1   3
ATOM      2  N   UNL     1       3.048   6.084  17.768  0.00  0.00    +0.000 N 
ATOM      3  C   UNL     1       4.303   6.046  17.170  0.00  0.00    +0.000 C 
ATOM      4  O   UNL     1       5.146   6.941  17.216  0.00  0.00    +0.000 OA
ATOM      5  H   UNL     1       2.502   5.224  17.746  0.00  0.00    +0.000 HD
BRANCH   2   9
ATOM      6  C   UNL     1       1.246   9.335  19.824  0.00  0.00    +0.000 A 
ATOM      7  C   UNL     1       1.503   9.439  18.459  0.00  0.00    +0.000 A 
ATOM      8  C   UNL     1       2.102   8.377  17.769  0.00  0.00    +0.000 A 
ATOM      9  C   UNL     1       2.461   7.195  18.425  0.00  0.00    +0.000 A 
ATOM     10  C   UNL     1       2.214   7.104  19.802  0.00  0.00    +0.000 A 
ATOM     11  C   UNL     1       1.606   8.164  20.497  0.00  0.00    +0.000 A 
BRANCH   6  13
ATOM     12  N   UNL     1       0.100  11.292  21.089  0.00  0.00    +0.000 NA
ATOM     13  C   UNL     1       0.612  10.420  20.518  0.00  0.00    +0.000 C 
ENDBRANCH   6  13
ENDBRANCH   2   9
ENDBRANCH   1   3
BRANCH   1  14
ATOM     14  N   UNL     1       4.525   3.658  17.520  0.00  0.00    +0.000 N 
ATOM     15  C   UNL     1       3.374   2.900  17.679  0.00  0.00    +0.000 C 
ATOM     16  O   UNL     1       2.398   3.073  16.947  0.00  0.00    +0.000 OA
ATOM     17  H   UNL     1       5.206   3.647  18.276  0.00  0.00    +0.000 HD
BRANCH  15  18
ATOM     18  C   UNL     1       3.445   1.857  18.824  0.00  0.00    +0.000 C 
ATOM     19  F   UNL     1       3.872   0.641  18.368  0.00  0.00    +0.000 F 
ATOM     20  F   UNL     1       4.313   2.221  19.805  0.00  0.00    +0.000 F 
ATOM     21  F   UNL     1       2.240   1.642  19.417  0.00  0.00    +0.000 F 
ENDBRANCH  15  18
ENDBRANCH   1  14
BRANCH   1  22
ATOM     22  C   UNL     1       6.094   4.726  15.964  0.00  0.00    +0.000 C 
BRANCH  22  23
ATOM     23  C   UNL     1       6.323   3.682  14.868  0.00  0.00    +0.000 C 
BRANCH  23  24
ATOM     24  C   UNL     1       6.416   4.302  13.473  0.00  0.00    +0.000 C 
BRANCH  24  25
ATOM     25  C   UNL     1       5.806   3.382  12.437  0.00  0.00    +0.000 C 
ATOM     26  O   UNL     1       4.663   3.460  12.017  0.00  0.00    +0.000 OA
BRANCH  25  27
ATOM     27  O   UNL     1       6.669   2.435  12.008  0.00  0.00    +0.000 OA
ATOM     28  H   UNL     1       6.257   1.570  11.826  0.00  0.00    +0.000 HD
ENDBRANCH  25  27
ENDBRANCH  24  25
ENDBRANCH  23  24
ENDBRANCH  22  23
ENDBRANCH   1  22
TORSDOF 10
ENDMDL
