MODEL 1
REMARK VINA RESULT:      -8.6      0.000      0.000
REMARK  Name = 
REMARK  7 active torsions:
REMARK  status: ('A' for Active; 'I' for Inactive)
REMARK    1  A    between atoms: C_1  and  C_2
REMARK    2  A    between atoms: C_2  and  N_3
REMARK    3  A    between atoms: C_5  and  C_6
REMARK    4  A    between atoms: C_9  and  C_10
REMARK    5  A    between atoms: C_14  and  N_15
REMARK    6  A    between atoms: N_15  and  C_16
REMARK    7  A    between atoms: C_20  and  N_21
REMARK                            x       y       z     vdW  Elec       q    Type
REMARK                         _______ _______ _______ _____ _____    ______ ____
ROOT
ATOM      1  C   UNL     1       5.542   4.799  18.697  0.00  0.00    +0.000 A 
ATOM      2  C   UNL     1       4.400   5.527  18.451  0.00  0.00    +0.000 A 
ATOM      3  C   UNL     1       3.283   5.164  19.188  0.00  0.00    +0.000 A 
ATOM      4  C   UNL     1       2.120   5.850  19.638  0.00  0.00    +0.000 A 
ATOM      5  N   UNL     1       1.339   5.023  20.360  0.00  0.00    +0.000 NA
ATOM      6  N   UNL     1       2.027   3.865  20.400  0.00  0.00    +0.000 N 
ATOM      7  C   UNL     1       3.269   3.952  19.850  0.00  0.00    +0.000 A 
ATOM      8  C   UNL     1       4.386   3.136  19.901  0.00  0.00    +0.000 A 
ATOM      9  N   UNL     1       5.548   3.617  19.371  0.00  0.00    +0.000 NA
ATOM     10  H   UNL     1       1.613   3.082  20.887  0.00  0.00    +0.000 HD
ENDROOT
BRANCH   4  11
ATOM     11  C   UNL     1       1.935   7.302  19.566  0.00  0.00    +0.000 A 
ATOM     12  C   UNL     1       1.875   7.914  18.318  0.00  0.00    +0.000 A 
ATOM     13  C   UNL     1       1.547   9.260  18.249  0.00  0.00    +0.000 A 
ATOM     14  C   UNL     1       1.274   9.945  19.428  0.00  0.00    +0.000 A 
ATOM     15  C   UNL     1       1.338   9.275  20.652  0.00  0.00    +0.000 A 
ATOM     16  N   UNL     1       1.642   7.961  20.721  0.00  0.00    +0.000 NA
BRANCH  15  17
ATOM     17  N   UNL     1       1.001  10.004  21.812  0.00  0.00    +0.000 N 
ATOM     18  H   UNL     1       0.913   9.344  22.580  0.00  0.00    +0.000 HD
BRANCH  17  19
ATOM     19  C   UNL     1      -0.199  10.846  21.692  0.00  0.00    +0.000 C 
ATOM     20  C   UNL     1      -0.965  10.802  23.029  0.00  0.00    +0.000 C 
ATOM     21  C   UNL     1      -2.202  11.711  23.012  0.00  0.00    +0.000 C 
ATOM     22  C   UNL     1      -1.846  13.126  22.601  0.00  0.00    +0.000 C 
ATOM     23  C   UNL     1      -1.055  13.203  21.297  0.00  0.00    +0.000 C 
ATOM     24  C   UNL     1       0.185  12.301  21.377  0.00  0.00    +0.000 C 
BRANCH  23  25
ATOM     25  N   UNL     1      -1.922  12.898  20.152  0.00  0.00    +0.000 NA
ATOM     26  H   UNL     1      -2.265  11.946  20.218  0.00  0.00    +0.000 HD
ATOM     27  H   UNL     1      -1.378  12.929  19.290  0.00  0.00    +0.000 HD
ENDBRANCH  23  25
ENDBRANCH  17  19
ENDBRANCH  15  17
ENDBRANCH   4  11
BRANCH   1  30
ATOM     28  N   UNL     1       7.407   5.318  16.097  0.00  0.00    +0.000 N 
ATOM     29  C   UNL     1       7.536   4.549  17.222  0.00  0.00    +0.000 A 
ATOM     30  C   UNL     1       6.811   5.270  18.148  0.00  0.00    +0.000 A 
ATOM     31  C   UNL     1       7.062   6.602  17.714  0.00  0.00    +0.000 A 
ATOM     32  N   UNL     1       7.388   6.631  16.412  0.00  0.00    +0.000 NA
BRANCH  28  34
ATOM     33  C   UNL     1       5.451   4.349  14.887  0.00  0.00    +0.000 C 
ATOM     34  C   UNL     1       6.903   4.815  14.834  0.00  0.00    +0.000 C 
ENDBRANCH  28  34
ENDBRANCH   1  30
TORSDOF 6
ENDMDL
MODEL 2
REMARK VINA RESULT:      -8.4      3.079      9.851
REMARK  Name = 
REMARK  7 active torsions:
REMARK  status: ('A' for Active; 'I' for Inactive)
REMARK    1  A    between atoms: C_1  and  C_2
REMARK    2  A    between atoms: C_2  and  N_3
REMARK    3  A    between atoms: C_5  and  C_6
REMARK    4  A    between atoms: C_9  and  C_10
REMARK    5  A    between atoms: C_14  and  N_15
REMARK    6  A    between atoms: N_15  and  C_16
REMARK    7  A    between atoms: C_20  and  N_21
REMARK                            x       y       z     vdW  Elec       q    Type
REMARK                         _______ _______ _______ _____ _____    ______ ____
ROOT
ATOM      1  C   UNL     1      -2.941  11.503  18.827  0.00  0.00    +0.000 A 
ATOM      2  C   UNL     1      -1.624  11.213  18.556  0.00  0.00    +0.000 A 
ATOM      3  C   UNL     1      -0.725  11.482  19.578  0.00  0.00    +0.000 A 
ATOM      4  C   UNL     1       0.538  10.948  19.959  0.00  0.00    +0.000 A 
ATOM      5  N   UNL     1       0.987  11.559  21.073  0.00  0.00    +0.000 NA
ATOM      6  N   UNL     1       0.001  12.416  21.404  0.00  0.00    +0.000 N 
ATOM      7  C   UNL     1      -1.112  12.287  20.631  0.00  0.00    +0.000 A 
ATOM      8  C   UNL     1      -2.412  12.741  20.762  0.00  0.00    +0.000 A 
ATOM      9  N   UNL     1      -3.340  12.273  19.876  0.00  0.00    +0.000 NA
ATOM     10  H   UNL     1       0.132  13.001  22.216  0.00  0.00    +0.000 HD
ENDROOT
BRANCH   4  11
ATOM     11  C   UNL     1       1.130   9.732  19.393  0.00  0.00    +0.000 A 
ATOM     12  C   UNL     1       1.682   9.782  18.117  0.00  0.00    +0.000 A 
ATOM     13  C   UNL     1       2.376   8.676  17.646  0.00  0.00    +0.000 A 
ATOM     14  C   UNL     1       2.508   7.565  18.472  0.00  0.00    +0.000 A 
ATOM     15  C   UNL     1       1.942   7.578  19.748  0.00  0.00    +0.000 A 
ATOM     16  N   UNL     1       1.280   8.658  20.216  0.00  0.00    +0.000 NA
BRANCH  15  17
ATOM     17  N   UNL     1       2.150   6.445  20.564  0.00  0.00    +0.000 N 
ATOM     18  H   UNL     1       3.009   6.592  21.088  0.00  0.00    +0.000 HD
BRANCH  17  19
ATOM     19  C   UNL     1       2.174   5.159  19.850  0.00  0.00    +0.000 C 
ATOM     20  C   UNL     1       3.607   4.595  19.904  0.00  0.00    +0.000 C 
ATOM     21  C   UNL     1       3.707   3.216  19.237  0.00  0.00    +0.000 C 
ATOM     22  C   UNL     1       2.688   2.248  19.806  0.00  0.00    +0.000 C 
ATOM     23  C   UNL     1       1.261   2.792  19.799  0.00  0.00    +0.000 C 
ATOM     24  C   UNL     1       1.210   4.155  20.503  0.00  0.00    +0.000 C 
BRANCH  23  25
ATOM     25  N   UNL     1       0.730   2.825  18.431  0.00  0.00    +0.000 NA
ATOM     26  H   UNL     1       1.224   3.520  17.882  0.00  0.00    +0.000 HD
ATOM     27  H   UNL     1      -0.242   3.135  18.445  0.00  0.00    +0.000 HD
ENDBRANCH  23  25
ENDBRANCH  17  19
ENDBRANCH  15  17
ENDBRANCH   4  11
BRANCH   1  30
ATOM     28  N   UNL     1      -6.082  11.329  18.047  0.00  0.00    +0.000 N 
ATOM     29  C   UNL     1      -5.121  10.399  18.336  0.00  0.00    +0.000 A 
ATOM     30  C   UNL     1      -3.972  11.030  17.908  0.00  0.00    +0.000 A 
ATOM     31  C   UNL     1      -4.465  11.767  16.794  0.00  0.00    +0.000 A 
ATOM     32  N   UNL     1      -5.782  11.994  16.911  0.00  0.00    +0.000 NA
BRANCH  28  34
ATOM     33  C   UNL     1      -7.129  10.996  20.289  0.00  0.00    +0.000 C 
ATOM     34  C   UNL     1      -7.018  11.847  19.027  0.00  0.00    +0.000 C 
ENDBRANCH  28  34
ENDBRANCH   1  30
TORSDOF 6
ENDMDL
MODEL 3
REMARK VINA RESULT:      -8.4      1.214      1.463
REMARK  Name = 
REMARK  7 active torsions:
REMARK  status: ('A' for Active; 'I' for Inactive)
REMARK    1  A    between atoms: C_1  and  C_2
REMARK    2  A    between atoms: C_2  and  N_3
REMARK    3  A    between atoms: C_5  and  C_6
REMARK    4  A    between atoms: C_9  and  C_10
REMARK    5  A    between atoms: C_14  and  N_15
REMARK    6  A    between atoms: N_15  and  C_16
REMARK    7  A    between atoms: C_20  and  N_21
REMARK                            x       y       z     vdW  Elec       q    Type
REMARK                         _______ _______ _______ _____ _____    ______ ____
ROOT
ATOM      1  C   UNL     1       5.565   4.785  18.649  0.00  0.00    +0.000 A 
ATOM      2  C   UNL     1       4.443   5.515  18.330  0.00  0.00    +0.000 A 
ATOM      3  C   UNL     1       3.329   5.285  19.122  0.00  0.00    +0.000 A 
ATOM      4  C   UNL     1       2.197   6.061  19.499  0.00  0.00    +0.000 A 
ATOM      5  N   UNL     1       1.403   5.357  20.331  0.00  0.00    +0.000 NA
ATOM      6  N   UNL     1       2.054   4.190  20.505  0.00  0.00    +0.000 N 
ATOM      7  C   UNL     1       3.288   4.166  19.932  0.00  0.00    +0.000 A 
ATOM      8  C   UNL     1       4.379   3.325  20.068  0.00  0.00    +0.000 A 
ATOM      9  N   UNL     1       5.546   3.697  19.466  0.00  0.00    +0.000 NA
ATOM     10  H   UNL     1       1.625   3.489  21.092  0.00  0.00    +0.000 HD
ENDROOT
BRANCH   4  11
ATOM     11  C   UNL     1       2.057   7.498  19.250  0.00  0.00    +0.000 A 
ATOM     12  C   UNL     1       2.466   8.013  18.023  0.00  0.00    +0.000 A 
ATOM     13  C   UNL     1       2.192   9.341  17.731  0.00  0.00    +0.000 A 
ATOM     14  C   UNL     1       1.504  10.106  18.667  0.00  0.00    +0.000 A 
ATOM     15  C   UNL     1       1.109   9.532  19.877  0.00  0.00    +0.000 A 
ATOM     16  N   UNL     1       1.360   8.234  20.158  0.00  0.00    +0.000 NA
BRANCH  15  17
ATOM     17  N   UNL     1       0.370  10.337  20.769  0.00  0.00    +0.000 N 
ATOM     18  H   UNL     1      -0.126   9.720  21.409  0.00  0.00    +0.000 HD
BRANCH  17  19
ATOM     19  C   UNL     1      -0.549  11.292  20.130  0.00  0.00    +0.000 C 
ATOM     20  C   UNL     1      -1.443  10.524  19.137  0.00  0.00    +0.000 C 
ATOM     21  C   UNL     1      -2.481  11.440  18.472  0.00  0.00    +0.000 C 
ATOM     22  C   UNL     1      -3.291  12.200  19.503  0.00  0.00    +0.000 C 
ATOM     23  C   UNL     1      -2.435  12.944  20.525  0.00  0.00    +0.000 C 
ATOM     24  C   UNL     1      -1.437  11.980  21.181  0.00  0.00    +0.000 C 
BRANCH  23  25
ATOM     25  N   UNL     1      -1.795  14.111  19.906  0.00  0.00    +0.000 NA
ATOM     26  H   UNL     1      -0.786  14.034  19.976  0.00  0.00    +0.000 HD
ATOM     27  H   UNL     1      -2.037  14.954  20.428  0.00  0.00    +0.000 HD
ENDBRANCH  23  25
ENDBRANCH  17  19
ENDBRANCH  15  17
ENDBRANCH   4  11
BRANCH   1  30
ATOM     28  N   UNL     1       7.255   5.365  15.944  0.00  0.00    +0.000 N 
ATOM     29  C   UNL     1       7.363   4.449  16.955  0.00  0.00    +0.000 A 
ATOM     30  C   UNL     1       6.838   5.140  18.027  0.00  0.00    +0.000 A 
ATOM     31  C   UNL     1       7.249   6.469  17.722  0.00  0.00    +0.000 A 
ATOM     32  N   UNL     1       7.462   6.617  16.406  0.00  0.00    +0.000 NA
BRANCH  28  34
ATOM     33  C   UNL     1       5.546   3.975  14.770  0.00  0.00    +0.000 C 
ATOM     34  C   UNL     1       6.573   5.101  14.691  0.00  0.00    +0.000 C 
ENDBRANCH  28  34
ENDBRANCH   1  30
TORSDOF 6
ENDMDL
MODEL 4
REMARK VINA RESULT:      -8.1      2.950      9.443
REMARK  Name = 
REMARK  7 active torsions:
REMARK  status: ('A' for Active; 'I' for Inactive)
REMARK    1  A    between atoms: C_1  and  C_2
REMARK    2  A    between atoms: C_2  and  N_3
REMARK    3  A    between atoms: C_5  and  C_6
REMARK    4  A    between atoms: C_9  and  C_10
REMARK    5  A    between atoms: C_14  and  N_15
REMARK    6  A    between atoms: N_15  and  C_16
REMARK    7  A    between atoms: C_20  and  N_21
REMARK                            x       y       z     vdW  Elec       q    Type
REMARK                         _______ _______ _______ _____ _____    ______ ____
ROOT
ATOM      1  C   UNL     1      -1.829  10.553  18.411  0.00  0.00    +0.000 A 
ATOM      2  C   UNL     1      -0.545  10.074  18.536  0.00  0.00    +0.000 A 
ATOM      3  C   UNL     1       0.078  10.329  19.748  0.00  0.00    +0.000 A 
ATOM      4  C   UNL     1       1.100   9.682  20.498  0.00  0.00    +0.000 A 
ATOM      5  N   UNL     1       1.322  10.342  21.653  0.00  0.00    +0.000 NA
ATOM      6  N   UNL     1       0.422  11.344  21.642  0.00  0.00    +0.000 N 
ATOM      7  C   UNL     1      -0.451  11.279  20.600  0.00  0.00    +0.000 A 
ATOM      8  C   UNL     1      -1.657  11.904  20.335  0.00  0.00    +0.000 A 
ATOM      9  N   UNL     1      -2.374  11.469  19.258  0.00  0.00    +0.000 NA
ATOM     10  H   UNL     1       0.417  11.988  22.421  0.00  0.00    +0.000 HD
ENDROOT
BRANCH   4  11
ATOM     11  C   UNL     1       1.634   8.351  20.196  0.00  0.00    +0.000 A 
ATOM     12  C   UNL     1       1.254   7.276  20.993  0.00  0.00    +0.000 A 
ATOM     13  C   UNL     1       1.636   5.996  20.614  0.00  0.00    +0.000 A 
ATOM     14  C   UNL     1       2.369   5.834  19.444  0.00  0.00    +0.000 A 
ATOM     15  C   UNL     1       2.711   6.950  18.678  0.00  0.00    +0.000 A 
ATOM     16  N   UNL     1       2.328   8.196  19.035  0.00  0.00    +0.000 NA
BRANCH  15  17
ATOM     17  N   UNL     1       3.410   6.724  17.474  0.00  0.00    +0.000 N 
ATOM     18  H   UNL     1       2.743   6.384  16.785  0.00  0.00    +0.000 HD
BRANCH  17  19
ATOM     19  C   UNL     1       4.568   5.825  17.585  0.00  0.00    +0.000 C 
ATOM     20  C   UNL     1       4.515   4.810  16.426  0.00  0.00    +0.000 C 
ATOM     21  C   UNL     1       5.729   3.870  16.429  0.00  0.00    +0.000 C 
ATOM     22  C   UNL     1       7.031   4.646  16.452  0.00  0.00    +0.000 C 
ATOM     23  C   UNL     1       7.103   5.685  17.568  0.00  0.00    +0.000 C 
ATOM     24  C   UNL     1       5.884   6.616  17.503  0.00  0.00    +0.000 C 
BRANCH  23  25
ATOM     25  N   UNL     1       7.263   5.029  18.872  0.00  0.00    +0.000 NA
ATOM     26  H   UNL     1       7.527   5.711  19.575  0.00  0.00    +0.000 HD
ATOM     27  H   UNL     1       8.040   4.369  18.832  0.00  0.00    +0.000 HD
ENDBRANCH  23  25
ENDBRANCH  17  19
ENDBRANCH  15  17
ENDBRANCH   4  11
BRANCH   1  30
ATOM     28  N   UNL     1      -4.432  11.013  16.535  0.00  0.00    +0.000 N 
ATOM     29  C   UNL     1      -4.007   9.990  17.338  0.00  0.00    +0.000 A 
ATOM     30  C   UNL     1      -2.636  10.123  17.273  0.00  0.00    +0.000 A 
ATOM     31  C   UNL     1      -2.470  10.592  15.939  0.00  0.00    +0.000 A 
ATOM     32  N   UNL     1      -3.586  11.194  15.498  0.00  0.00    +0.000 NA
BRANCH  28  34
ATOM     33  C   UNL     1      -5.637  12.035  18.468  0.00  0.00    +0.000 C 
ATOM     34  C   UNL     1      -5.362  12.039  16.967  0.00  0.00    +0.000 C 
ENDBRANCH  28  34
ENDBRANCH   1  30
TORSDOF 6
ENDMDL
MODEL 5
REMARK VINA RESULT:      -8.1      0.984      1.611
REMARK  Name = 
REMARK  7 active torsions:
REMARK  status: ('A' for Active; 'I' for Inactive)
REMARK    1  A    between atoms: C_1  and  C_2
REMARK    2  A    between atoms: C_2  and  N_3
REMARK    3  A    between atoms: C_5  and  C_6
REMARK    4  A    between atoms: C_9  and  C_10
REMARK    5  A    between atoms: C_14  and  N_15
REMARK    6  A    between atoms: N_15  and  C_16
REMARK    7  A    between atoms: C_20  and  N_21
REMARK                            x       y       z     vdW  Elec       q    Type
REMARK                         _______ _______ _______ _____ _____    ______ ____
ROOT
ATOM      1  C   UNL     1       4.352   4.583  17.619  0.00  0.00    +0.000 A 
ATOM      2  C   UNL     1       3.280   5.425  17.803  0.00  0.00    +0.000 A 
ATOM      3  C   UNL     1       2.657   5.346  19.039  0.00  0.00    +0.000 A 
ATOM      4  C   UNL     1       1.909   6.256  19.838  0.00  0.00    +0.000 A 
ATOM      5  N   UNL     1       1.544   5.671  20.997  0.00  0.00    +0.000 NA
ATOM      6  N   UNL     1       2.097   4.444  20.939  0.00  0.00    +0.000 N 
ATOM      7  C   UNL     1       2.907   4.263  19.860  0.00  0.00    +0.000 A 
ATOM      8  C   UNL     1       3.855   3.309  19.538  0.00  0.00    +0.000 A 
ATOM      9  N   UNL     1       4.627   3.528  18.433  0.00  0.00    +0.000 NA
ATOM     10  H   UNL     1       1.937   3.813  21.711  0.00  0.00    +0.000 HD
ENDROOT
BRANCH   4  11
ATOM     11  C   UNL     1       1.793   7.692  19.570  0.00  0.00    +0.000 A 
ATOM     12  C   UNL     1       1.832   8.137  18.252  0.00  0.00    +0.000 A 
ATOM     13  C   UNL     1       1.568   9.474  17.991  0.00  0.00    +0.000 A 
ATOM     14  C   UNL     1       1.257  10.317  19.053  0.00  0.00    +0.000 A 
ATOM     15  C   UNL     1       1.222   9.811  20.353  0.00  0.00    +0.000 A 
ATOM     16  N   UNL     1       1.462   8.506  20.610  0.00  0.00    +0.000 NA
BRANCH  15  17
ATOM     17  N   UNL     1       0.851  10.696  21.387  0.00  0.00    +0.000 N 
ATOM     18  H   UNL     1       0.929  10.197  22.269  0.00  0.00    +0.000 HD
BRANCH  17  19
ATOM     19  C   UNL     1      -0.479  11.307  21.237  0.00  0.00    +0.000 C 
ATOM     20  C   UNL     1      -1.142  11.388  22.626  0.00  0.00    +0.000 C 
ATOM     21  C   UNL     1      -2.513  12.077  22.569  0.00  0.00    +0.000 C 
ATOM     22  C   UNL     1      -2.426  13.432  21.896  0.00  0.00    +0.000 C 
ATOM     23  C   UNL     1      -1.742  13.393  20.531  0.00  0.00    +0.000 C 
ATOM     24  C   UNL     1      -0.366  12.723  20.648  0.00  0.00    +0.000 C 
BRANCH  23  25
ATOM     25  N   UNL     1      -2.615  12.756  19.537  0.00  0.00    +0.000 NA
ATOM     26  H   UNL     1      -2.589  11.748  19.645  0.00  0.00    +0.000 HD
ATOM     27  H   UNL     1      -2.257  12.935  18.598  0.00  0.00    +0.000 HD
ENDBRANCH  23  25
ENDBRANCH  17  19
ENDBRANCH  15  17
ENDBRANCH   4  11
BRANCH   1  30
ATOM     28  N   UNL     1       6.943   6.006  16.288  0.00  0.00    +0.000 N 
ATOM     29  C   UNL     1       5.604   6.018  16.009  0.00  0.00    +0.000 A 
ATOM     30  C   UNL     1       5.206   4.773  16.449  0.00  0.00    +0.000 A 
ATOM     31  C   UNL     1       6.365   3.999  16.158  0.00  0.00    +0.000 A 
ATOM     32  N   UNL     1       7.460   4.772  16.107  0.00  0.00    +0.000 NA
BRANCH  28  34
ATOM     33  C   UNL     1       7.812   6.612  18.549  0.00  0.00    +0.000 C 
ATOM     34  C   UNL     1       7.605   7.016  17.092  0.00  0.00    +0.000 C 
ENDBRANCH  28  34
ENDBRANCH   1  30
TORSDOF 6
ENDMDL
MODEL 6
REMARK VINA RESULT:      -8.1      2.838      8.472
REMARK  Name = 
REMARK  7 active torsions:
REMARK  status: ('A' for Active; 'I' for Inactive)
REMARK    1  A    between atoms: C_1  and  C_2
REMARK    2  A    between atoms: C_2  and  N_3
REMARK    3  A    between atoms: C_5  and  C_6
REMARK    4  A    between atoms: C_9  and  C_10
REMARK    5  A    between atoms: C_14  and  N_15
REMARK    6  A    between atoms: N_15  and  C_16
REMARK    7  A    between atoms: C_20  and  N_21
REMARK                            x       y       z     vdW  Elec       q    Type
REMARK                         _______ _______ _______ _____ _____    ______ ____
ROOT
ATOM      1  C   UNL     1      -0.307  12.884  21.428  0.00  0.00    +0.000 A 
ATOM      2  C   UNL     1       0.541  11.814  21.255  0.00  0.00    +0.000 A 
ATOM      3  C   UNL     1       0.139  10.626  21.847  0.00  0.00    +0.000 A 
ATOM      4  C   UNL     1       0.369   9.248  21.571  0.00  0.00    +0.000 A 
ATOM      5  N   UNL     1      -0.292   8.477  22.457  0.00  0.00    +0.000 NA
ATOM      6  N   UNL     1      -0.957   9.356  23.233  0.00  0.00    +0.000 N 
ATOM      7  C   UNL     1      -0.858  10.643  22.803  0.00  0.00    +0.000 A 
ATOM      8  C   UNL     1      -1.556  11.799  23.106  0.00  0.00    +0.000 A 
ATOM      9  N   UNL     1      -1.310  12.906  22.347  0.00  0.00    +0.000 NA
ATOM     10  H   UNL     1      -1.518   8.992  23.990  0.00  0.00    +0.000 HD
ENDROOT
BRANCH   4  11
ATOM     11  C   UNL     1       0.996   8.741  20.347  0.00  0.00    +0.000 A 
ATOM     12  C   UNL     1       0.831   9.450  19.161  0.00  0.00    +0.000 A 
ATOM     13  C   UNL     1       1.549   9.055  18.041  0.00  0.00    +0.000 A 
ATOM     14  C   UNL     1       2.421   7.977  18.149  0.00  0.00    +0.000 A 
ATOM     15  C   UNL     1       2.554   7.311  19.370  0.00  0.00    +0.000 A 
ATOM     16  N   UNL     1       1.869   7.703  20.466  0.00  0.00    +0.000 NA
BRANCH  15  17
ATOM     17  N   UNL     1       3.490   6.258  19.438  0.00  0.00    +0.000 N 
ATOM     18  H   UNL     1       4.118   6.347  18.642  0.00  0.00    +0.000 HD
BRANCH  17  19
ATOM     19  C   UNL     1       2.907   4.910  19.509  0.00  0.00    +0.000 C 
ATOM     20  C   UNL     1       2.133   4.778  20.835  0.00  0.00    +0.000 C 
ATOM     21  C   UNL     1       1.434   3.417  20.961  0.00  0.00    +0.000 C 
ATOM     22  C   UNL     1       0.559   3.130  19.756  0.00  0.00    +0.000 C 
ATOM     23  C   UNL     1       1.287   3.285  18.423  0.00  0.00    +0.000 C 
ATOM     24  C   UNL     1       1.942   4.670  18.336  0.00  0.00    +0.000 C 
BRANCH  23  25
ATOM     25  N   UNL     1       2.234   2.181  18.223  0.00  0.00    +0.000 NA
ATOM     26  H   UNL     1       1.896   1.559  17.497  0.00  0.00    +0.000 HD
ATOM     27  H   UNL     1       2.281   1.610  19.067  0.00  0.00    +0.000 HD
ENDBRANCH  23  25
ENDBRANCH  17  19
ENDBRANCH  15  17
ENDBRANCH   4  11
BRANCH   1  30
ATOM     28  N   UNL     1       1.511  14.490  19.278  0.00  0.00    +0.000 N 
ATOM     29  C   UNL     1       1.141  14.725  20.574  0.00  0.00    +0.000 A 
ATOM     30  C   UNL     1      -0.084  14.095  20.642  0.00  0.00    +0.000 A 
ATOM     31  C   UNL     1      -0.573  14.306  19.322  0.00  0.00    +0.000 A 
ATOM     32  N   UNL     1       0.436  14.505  18.461  0.00  0.00    +0.000 NA
BRANCH  28  34
ATOM     33  C   UNL     1       2.599  12.596  18.068  0.00  0.00    +0.000 C 
ATOM     34  C   UNL     1       2.764  13.864  18.901  0.00  0.00    +0.000 C 
ENDBRANCH  28  34
ENDBRANCH   1  30
TORSDOF 6
ENDMDL
MODEL 7
REMARK VINA RESULT:      -8.0      2.962      4.957
REMARK  Name = 
REMARK  7 active torsions:
REMARK  status: ('A' for Active; 'I' for Inactive)
REMARK    1  A    between atoms: C_1  and  C_2
REMARK    2  A    between atoms: C_2  and  N_3
REMARK    3  A    between atoms: C_5  and  C_6
REMARK    4  A    between atoms: C_9  and  C_10
REMARK    5  A    between atoms: C_14  and  N_15
REMARK    6  A    between atoms: N_15  and  C_16
REMARK    7  A    between atoms: C_20  and  N_21
REMARK                            x       y       z     vdW  Elec       q    Type
REMARK                         _______ _______ _______ _____ _____    ______ ____
ROOT
ATOM      1  C   UNL     1       2.016   5.894  19.931  0.00  0.00    +0.000 A 
ATOM      2  C   UNL     1       1.887   7.105  20.571  0.00  0.00    +0.000 A 
ATOM      3  C   UNL     1       1.802   8.217  19.746  0.00  0.00    +0.000 A 
ATOM      4  C   UNL     1       1.210   9.505  19.869  0.00  0.00    +0.000 A 
ATOM      5  N   UNL     1       1.396  10.216  18.739  0.00  0.00    +0.000 NA
ATOM      6  N   UNL     1       2.044   9.368  17.916  0.00  0.00    +0.000 N 
ATOM      7  C   UNL     1       2.163   8.108  18.417  0.00  0.00    +0.000 A 
ATOM      8  C   UNL     1       2.496   6.891  17.850  0.00  0.00    +0.000 A 
ATOM      9  N   UNL     1       2.346   5.771  18.616  0.00  0.00    +0.000 NA
ATOM     10  H   UNL     1       2.304   9.701  16.998  0.00  0.00    +0.000 HD
ENDROOT
BRANCH   4  11
ATOM     11  C   UNL     1       0.299   9.899  20.947  0.00  0.00    +0.000 A 
ATOM     12  C   UNL     1       0.357   9.222  22.161  0.00  0.00    +0.000 A 
ATOM     13  C   UNL     1      -0.395   9.695  23.227  0.00  0.00    +0.000 A 
ATOM     14  C   UNL     1      -1.167  10.838  23.048  0.00  0.00    +0.000 A 
ATOM     15  C   UNL     1      -1.177  11.483  21.810  0.00  0.00    +0.000 A 
ATOM     16  N   UNL     1      -0.433  11.035  20.775  0.00  0.00    +0.000 NA
BRANCH  15  17
ATOM     17  N   UNL     1      -1.936  12.666  21.698  0.00  0.00    +0.000 N 
ATOM     18  H   UNL     1      -1.292  13.435  21.524  0.00  0.00    +0.000 HD
BRANCH  17  19
ATOM     19  C   UNL     1      -2.813  12.955  22.843  0.00  0.00    +0.000 C 
ATOM     20  C   UNL     1      -2.632  14.433  23.240  0.00  0.00    +0.000 C 
ATOM     21  C   UNL     1      -3.564  14.837  24.391  0.00  0.00    +0.000 C 
ATOM     22  C   UNL     1      -5.009  14.500  24.080  0.00  0.00    +0.000 C 
ATOM     23  C   UNL     1      -5.218  13.050  23.649  0.00  0.00    +0.000 C 
ATOM     24  C   UNL     1      -4.285  12.706  22.479  0.00  0.00    +0.000 C 
BRANCH  23  25
ATOM     25  N   UNL     1      -5.067  12.146  24.796  0.00  0.00    +0.000 NA
ATOM     26  H   UNL     1      -4.360  12.502  25.429  0.00  0.00    +0.000 HD
ATOM     27  H   UNL     1      -4.715  11.242  24.479  0.00  0.00    +0.000 HD
ENDBRANCH  23  25
ENDBRANCH  17  19
ENDBRANCH  15  17
ENDBRANCH   4  11
BRANCH   1  30
ATOM     28  N   UNL     1       1.648   2.674  19.968  0.00  0.00    +0.000 N 
ATOM     29  C   UNL     1       0.902   3.722  20.434  0.00  0.00    +0.000 A 
ATOM     30  C   UNL     1       1.869   4.666  20.707  0.00  0.00    +0.000 A 
ATOM     31  C   UNL     1       2.949   3.836  21.124  0.00  0.00    +0.000 A 
ATOM     32  N   UNL     1       2.830   2.600  20.616  0.00  0.00    +0.000 NA
BRANCH  28  34
ATOM     33  C   UNL     1       2.546   2.268  17.674  0.00  0.00    +0.000 C 
ATOM     34  C   UNL     1       1.424   2.038  18.683  0.00  0.00    +0.000 C 
ENDBRANCH  28  34
ENDBRANCH   1  30
TORSDOF 6
ENDMDL
MODEL 8
REMARK VINA RESULT:      -8.0      1.909      9.602
REMARK  Name = 
REMARK  7 active torsions:
REMARK  status: ('A' for Active; 'I' for Inactive)
REMARK    1  A    between atoms: C_1  and  C_2
REMARK    2  A    between atoms: C_2  and  N_3
REMARK    3  A    between atoms: C_5  and  C_6
REMARK    4  A    between atoms: C_9  and  C_10
REMARK    5  A    between atoms: C_14  and  N_15
REMARK    6  A    between atoms: N_15  and  C_16
REMARK    7  A    between atoms: C_20  and  N_21
REMARK                            x       y       z     vdW  Elec       q    Type
REMARK                         _______ _______ _______ _____ _____    ______ ____
ROOT
ATOM      1  C   UNL     1       0.150  11.686  21.191  0.00  0.00    +0.000 A 
ATOM      2  C   UNL     1       0.206  10.459  20.572  0.00  0.00    +0.000 A 
ATOM      3  C   UNL     1       0.985  10.397  19.426  0.00  0.00    +0.000 A 
ATOM      4  C   UNL     1       1.710   9.364  18.770  0.00  0.00    +0.000 A 
ATOM      5  N   UNL     1       2.335   9.851  17.679  0.00  0.00    +0.000 NA
ATOM      6  N   UNL     1       2.046  11.167  17.689  0.00  0.00    +0.000 N 
ATOM      7  C   UNL     1       1.376  11.567  18.804  0.00  0.00    +0.000 A 
ATOM      8  C   UNL     1       1.115  12.808  19.357  0.00  0.00    +0.000 A 
ATOM      9  N   UNL     1       0.556  12.844  20.602  0.00  0.00    +0.000 NA
ATOM     10  H   UNL     1       2.406  11.739  16.939  0.00  0.00    +0.000 HD
ENDROOT
BRANCH   4  11
ATOM     11  C   UNL     1       1.968   8.039  19.342  0.00  0.00    +0.000 A 
ATOM     12  C   UNL     1       1.335   7.683  20.529  0.00  0.00    +0.000 A 
ATOM     13  C   UNL     1       1.459   6.378  20.986  0.00  0.00    +0.000 A 
ATOM     14  C   UNL     1       2.196   5.471  20.233  0.00  0.00    +0.000 A 
ATOM     15  C   UNL     1       2.799   5.884  19.043  0.00  0.00    +0.000 A 
ATOM     16  N   UNL     1       2.668   7.148  18.587  0.00  0.00    +0.000 NA
BRANCH  15  17
ATOM     17  N   UNL     1       3.491   4.910  18.293  0.00  0.00    +0.000 N 
ATOM     18  H   UNL     1       3.461   4.036  18.812  0.00  0.00    +0.000 HD
BRANCH  17  19
ATOM     19  C   UNL     1       4.872   5.267  17.931  0.00  0.00    +0.000 C 
ATOM     20  C   UNL     1       5.738   5.232  19.205  0.00  0.00    +0.000 C 
ATOM     21  C   UNL     1       7.214   5.529  18.905  0.00  0.00    +0.000 C 
ATOM     22  C   UNL     1       7.754   4.620  17.819  0.00  0.00    +0.000 C 
ATOM     23  C   UNL     1       6.898   4.605  16.554  0.00  0.00    +0.000 C 
ATOM     24  C   UNL     1       5.441   4.274  16.905  0.00  0.00    +0.000 C 
BRANCH  23  25
ATOM     25  N   UNL     1       7.046   5.867  15.819  0.00  0.00    +0.000 NA
ATOM     26  H   UNL     1       6.146   6.173  15.466  0.00  0.00    +0.000 HD
ATOM     27  H   UNL     1       7.623   5.718  14.990  0.00  0.00    +0.000 HD
ENDBRANCH  23  25
ENDBRANCH  17  19
ENDBRANCH  15  17
ENDBRANCH   4  11
BRANCH   1  30
ATOM     28  N   UNL     1      -2.371  12.537  23.043  0.00  0.00    +0.000 N 
ATOM     29  C   UNL     1      -1.059  12.922  22.988  0.00  0.00    +0.000 A 
ATOM     30  C   UNL     1      -0.443  11.779  22.523  0.00  0.00    +0.000 A 
ATOM     31  C   UNL     1      -1.251  10.771  23.122  0.00  0.00    +0.000 A 
ATOM     32  N   UNL     1      -2.476  11.239  23.402  0.00  0.00    +0.000 NA
BRANCH  28  34
ATOM     33  C   UNL     1      -3.540  12.971  20.880  0.00  0.00    +0.000 C 
ATOM     34  C   UNL     1      -3.445  13.250  22.378  0.00  0.00    +0.000 C 
ENDBRANCH  28  34
ENDBRANCH   1  30
TORSDOF 6
ENDMDL
MODEL 9
REMARK VINA RESULT:      -8.0      1.136      1.282
REMARK  Name = 
REMARK  7 active torsions:
REMARK  status: ('A' for Active; 'I' for Inactive)
REMARK    1  A    between atoms: C_1  and  C_2
REMARK    2  A    between atoms: C_2  and  N_3
REMARK    3  A    between atoms: C_5  and  C_6
REMARK    4  A    between atoms: C_9  and  C_10
REMARK    5  A    between atoms: C_14  and  N_15
REMARK    6  A    between atoms: N_15  and  C_16
REMARK    7  A    between atoms: C_20  and  N_21
REMARK                            x       y       z     vdW  Elec       q    Type
REMARK                         _______ _______ _______ _____ _____    ______ ____
ROOT
ATOM      1  C   UNL     1       5.257   4.697  18.189  0.00  0.00    +0.000 A 
ATOM      2  C   UNL     1       4.105   5.441  18.077  0.00  0.00    +0.000 A 
ATOM      3  C   UNL     1       3.189   5.295  19.108  0.00  0.00    +0.000 A 
ATOM      4  C   UNL     1       2.182   6.128  19.672  0.00  0.00    +0.000 A 
ATOM      5  N   UNL     1       1.579   5.501  20.702  0.00  0.00    +0.000 NA
ATOM      6  N   UNL     1       2.233   4.327  20.806  0.00  0.00    +0.000 N 
ATOM      7  C   UNL     1       3.309   4.229  19.979  0.00  0.00    +0.000 A 
ATOM      8  C   UNL     1       4.388   3.364  19.928  0.00  0.00    +0.000 A 
ATOM      9  N   UNL     1       5.400   3.662  19.061  0.00  0.00    +0.000 NA
ATOM     10  H   UNL     1       1.932   3.677  21.518  0.00  0.00    +0.000 HD
ENDROOT
BRANCH   4  11
ATOM     11  C   UNL     1       2.016   7.551  19.364  0.00  0.00    +0.000 A 
ATOM     12  C   UNL     1       2.207   7.985  18.056  0.00  0.00    +0.000 A 
ATOM     13  C   UNL     1       1.899   9.300  17.737  0.00  0.00    +0.000 A 
ATOM     14  C   UNL     1       1.396  10.131  18.731  0.00  0.00    +0.000 A 
ATOM     15  C   UNL     1       1.214   9.636  20.024  0.00  0.00    +0.000 A 
ATOM     16  N   UNL     1       1.497   8.353  20.335  0.00  0.00    +0.000 NA
BRANCH  15  17
ATOM     17  N   UNL     1       0.652  10.507  20.982  0.00  0.00    +0.000 N 
ATOM     18  H   UNL     1       0.135   9.942  21.651  0.00  0.00    +0.000 HD
BRANCH  17  19
ATOM     19  C   UNL     1      -0.186  11.582  20.430  0.00  0.00    +0.000 C 
ATOM     20  C   UNL     1      -1.449  11.717  21.303  0.00  0.00    +0.000 C 
ATOM     21  C   UNL     1      -2.352  12.866  20.834  0.00  0.00    +0.000 C 
ATOM     22  C   UNL     1      -1.585  14.169  20.732  0.00  0.00    +0.000 C 
ATOM     23  C   UNL     1      -0.307  14.062  19.902  0.00  0.00    +0.000 C 
ATOM     24  C   UNL     1       0.572  12.920  20.429  0.00  0.00    +0.000 C 
BRANCH  23  25
ATOM     25  N   UNL     1      -0.631  13.934  18.475  0.00  0.00    +0.000 NA
ATOM     26  H   UNL     1      -0.694  14.852  18.049  0.00  0.00    +0.000 HD
ATOM     27  H   UNL     1      -1.559  13.524  18.368  0.00  0.00    +0.000 HD
ENDBRANCH  23  25
ENDBRANCH  17  19
ENDBRANCH  15  17
ENDBRANCH   4  11
BRANCH   1  30
ATOM     28  N   UNL     1       6.447   4.626  15.176  0.00  0.00    +0.000 N 
ATOM     29  C   UNL     1       6.823   4.054  16.360  0.00  0.00    +0.000 A 
ATOM     30  C   UNL     1       6.367   4.973  17.282  0.00  0.00    +0.000 A 
ATOM     31  C   UNL     1       6.543   6.190  16.563  0.00  0.00    +0.000 A 
ATOM     32  N   UNL     1       6.544   5.972  15.239  0.00  0.00    +0.000 NA
BRANCH  28  34
ATOM     33  C   UNL     1       6.332   3.767  12.834  0.00  0.00    +0.000 C 
ATOM     34  C   UNL     1       5.636   3.952  14.180  0.00  0.00    +0.000 C 
ENDBRANCH  28  34
ENDBRANCH   1  30
TORSDOF 6
ENDMDL
