MODEL 1
REMARK VINA RESULT:      -7.6      0.000      0.000
REMARK  Name = 
REMARK  4 active torsions:
REMARK  status: ('A' for Active; 'I' for Inactive)
REMARK    1  A    between atoms: N_4  and  N_5
REMARK    2  A    between atoms: C_6  and  C_7
REMARK    3  A    between atoms: C_8  and  C_9
REMARK    4  A    between atoms: C_12  and  N_13
REMARK                            x       y       z     vdW  Elec       q    Type
REMARK                         _______ _______ _______ _____ _____    ______ ____
ROOT
ATOM      1  C   UNL     1       2.089   7.675  19.526  0.00  0.00    +0.000 A 
ATOM      2  C   UNL     1       2.792   7.767  18.299  0.00  0.00    +0.000 A 
ATOM      3  N   UNL     1       2.418   8.908  17.655  0.00  0.00    +0.000 NA
ATOM      4  C   UNL     1       1.500   9.443  18.467  0.00  0.00    +0.000 A 
ATOM      5  S   UNL     1       0.574  10.832  18.338  0.00  0.00    +0.000 S 
ATOM      6  C   UNL     1      -0.158  10.493  19.847  0.00  0.00    +0.000 A 
ATOM      7 CL   UNL     1      -1.384  11.497  20.590  0.00  0.00    +0.000 Cl
ATOM      8  C   UNL     1       0.359   9.308  20.389  0.00  0.00    +0.000 A 
ATOM      9  N   UNL     1       1.282   8.754  19.569  0.00  0.00    +0.000 N 
ENDROOT
BRANCH   2  10
ATOM     10  C   UNL     1       3.766   6.838  17.668  0.00  0.00    +0.000 A 
ATOM     11  C   UNL     1       3.504   5.471  17.473  0.00  0.00    +0.000 A 
ATOM     12  C   UNL     1       4.429   4.661  16.803  0.00  0.00    +0.000 A 
ATOM     13  C   UNL     1       5.640   5.195  16.325  0.00  0.00    +0.000 A 
ATOM     14  C   UNL     1       5.904   6.558  16.534  0.00  0.00    +0.000 A 
ATOM     15  C   UNL     1       4.976   7.368  17.185  0.00  0.00    +0.000 A 
BRANCH  13  16
ATOM     16  N   UNL     1       6.578   4.379  15.624  0.00  0.00    +0.000 N 
ATOM     17  O   UNL     1       7.717   4.321  15.979  0.00  0.00    +0.000 OA
ATOM     18  O   UNL     1       6.192   3.650  14.597  0.00  0.00    +0.000 OA
ENDBRANCH  13  16
ENDBRANCH   2  10
BRANCH   1  20
ATOM     19  N   UNL     1       2.111   5.407  20.333  0.00  0.00    +0.000 NA
ATOM     20  C   UNL     1       2.211   6.662  20.602  0.00  0.00    +0.000 C 
BRANCH  19  24
ATOM     21  N   UNL     1       0.593   3.101  20.196  0.00  0.00    +0.000 NA
ATOM     22  C   UNL     1       1.357   3.271  21.218  0.00  0.00    +0.000 C 
ATOM     23  N   UNL     1       1.401   2.293  22.246  0.00  0.00    +0.000 N 
ATOM     24  N   UNL     1       2.159   4.442  21.317  0.00  0.00    +0.000 N 
ATOM     25  H   UNL     1       0.001   2.263  20.098  0.00  0.00    +0.000 HD
ATOM     26  H   UNL     1       0.828   1.439  22.185  0.00  0.00    +0.000 HD
ATOM     27  H   UNL     1       2.007   2.424  23.068  0.00  0.00    +0.000 HD
ATOM     28  H   UNL     1       2.764   4.568  22.144  0.00  0.00    +0.000 HD
ENDBRANCH  19  24
ENDBRANCH   1  20
TORSDOF 4
ENDMDL
MODEL 2
REMARK VINA RESULT:      -7.6      4.795      7.437
REMARK  Name = 
REMARK  4 active torsions:
REMARK  status: ('A' for Active; 'I' for Inactive)
REMARK    1  A    between atoms: N_4  and  N_5
REMARK    2  A    between atoms: C_6  and  C_7
REMARK    3  A    between atoms: C_8  and  C_9
REMARK    4  A    between atoms: C_12  and  N_13
REMARK                            x       y       z     vdW  Elec       q    Type
REMARK                         _______ _______ _______ _____ _____    ______ ____
ROOT
ATOM      1  C   UNL     1       3.880   5.666  18.737  0.00  0.00    +0.000 A 
ATOM      2  C   UNL     1       2.805   6.308  19.397  0.00  0.00    +0.000 A 
ATOM      3  N   UNL     1       2.284   5.461  20.329  0.00  0.00    +0.000 NA
ATOM      4  C   UNL     1       3.013   4.349  20.188  0.00  0.00    +0.000 A 
ATOM      5  S   UNL     1       2.947   2.868  20.966  0.00  0.00    +0.000 S 
ATOM      6  C   UNL     1       4.257   2.305  20.022  0.00  0.00    +0.000 A 
ATOM      7 CL   UNL     1       4.940   0.699  20.151  0.00  0.00    +0.000 Cl
ATOM      8  C   UNL     1       4.694   3.304  19.141  0.00  0.00    +0.000 A 
ATOM      9  N   UNL     1       3.955   4.431  19.270  0.00  0.00    +0.000 N 
ENDROOT
BRANCH   2  10
ATOM     10  C   UNL     1       2.203   7.652  19.191  0.00  0.00    +0.000 A 
ATOM     11  C   UNL     1       2.215   8.313  17.950  0.00  0.00    +0.000 A 
ATOM     12  C   UNL     1       1.565   9.544  17.797  0.00  0.00    +0.000 A 
ATOM     13  C   UNL     1       0.900  10.147  18.881  0.00  0.00    +0.000 A 
ATOM     14  C   UNL     1       0.901   9.489  20.122  0.00  0.00    +0.000 A 
ATOM     15  C   UNL     1       1.534   8.256  20.269  0.00  0.00    +0.000 A 
BRANCH  13  16
ATOM     16  N   UNL     1       0.218  11.391  18.727  0.00  0.00    +0.000 N 
ATOM     17  O   UNL     1      -0.959  11.418  18.527  0.00  0.00    +0.000 OA
ATOM     18  O   UNL     1       0.873  12.528  18.841  0.00  0.00    +0.000 OA
ENDBRANCH  13  16
ENDBRANCH   2  10
BRANCH   1  20
ATOM     19  N   UNL     1       5.085   5.513  16.657  0.00  0.00    +0.000 NA
ATOM     20  C   UNL     1       4.803   6.203  17.707  0.00  0.00    +0.000 C 
BRANCH  19  24
ATOM     21  N   UNL     1       6.481   3.765  15.034  0.00  0.00    +0.000 NA
ATOM     22  C   UNL     1       6.691   5.027  14.898  0.00  0.00    +0.000 C 
ATOM     23  N   UNL     1       7.628   5.494  13.938  0.00  0.00    +0.000 N 
ATOM     24  N   UNL     1       5.984   5.957  15.710  0.00  0.00    +0.000 N 
ATOM     25  H   UNL     1       6.978   3.069  14.459  0.00  0.00    +0.000 HD
ATOM     26  H   UNL     1       8.144   4.832  13.342  0.00  0.00    +0.000 HD
ATOM     27  H   UNL     1       7.805   6.502  13.827  0.00  0.00    +0.000 HD
ATOM     28  H   UNL     1       6.166   6.966  15.594  0.00  0.00    +0.000 HD
ENDBRANCH  19  24
ENDBRANCH   1  20
TORSDOF 4
ENDMDL
MODEL 3
REMARK VINA RESULT:      -7.6      0.252      1.191
REMARK  Name = 
REMARK  4 active torsions:
REMARK  status: ('A' for Active; 'I' for Inactive)
REMARK    1  A    between atoms: N_4  and  N_5
REMARK    2  A    between atoms: C_6  and  C_7
REMARK    3  A    between atoms: C_8  and  C_9
REMARK    4  A    between atoms: C_12  and  N_13
REMARK                            x       y       z     vdW  Elec       q    Type
REMARK                         _______ _______ _______ _____ _____    ______ ____
ROOT
ATOM      1  C   UNL     1       2.013   7.831  19.545  0.00  0.00    +0.000 A 
ATOM      2  C   UNL     1       2.675   7.949  18.299  0.00  0.00    +0.000 A 
ATOM      3  N   UNL     1       2.249   9.081  17.673  0.00  0.00    +0.000 NA
ATOM      4  C   UNL     1       1.341   9.585  18.515  0.00  0.00    +0.000 A 
ATOM      5  S   UNL     1       0.371  10.948  18.422  0.00  0.00    +0.000 S 
ATOM      6  C   UNL     1      -0.304  10.580  19.950  0.00  0.00    +0.000 A 
ATOM      7 CL   UNL     1      -1.535  11.545  20.735  0.00  0.00    +0.000 Cl
ATOM      8  C   UNL     1       0.262   9.408  20.470  0.00  0.00    +0.000 A 
ATOM      9  N   UNL     1       1.177   8.885  19.619  0.00  0.00    +0.000 N 
ENDROOT
BRANCH   2  10
ATOM     10  C   UNL     1       3.656   7.052  17.634  0.00  0.00    +0.000 A 
ATOM     11  C   UNL     1       4.900   7.498  17.154  0.00  0.00    +0.000 A 
ATOM     12  C   UNL     1       5.815   6.592  16.605  0.00  0.00    +0.000 A 
ATOM     13  C   UNL     1       5.504   5.222  16.512  0.00  0.00    +0.000 A 
ATOM     14  C   UNL     1       4.256   4.782  16.980  0.00  0.00    +0.000 A 
ATOM     15  C   UNL     1       3.352   5.682  17.543  0.00  0.00    +0.000 A 
BRANCH  13  16
ATOM     16  N   UNL     1       6.440   4.290  15.973  0.00  0.00    +0.000 N 
ATOM     17  O   UNL     1       6.081   3.439  15.215  0.00  0.00    +0.000 OA
ATOM     18  O   UNL     1       7.719   4.378  16.274  0.00  0.00    +0.000 OA
ENDBRANCH  13  16
ENDBRANCH   2  10
BRANCH   1  20
ATOM     19  N   UNL     1       2.104   5.561  20.343  0.00  0.00    +0.000 NA
ATOM     20  C   UNL     1       2.196   6.816  20.612  0.00  0.00    +0.000 C 
BRANCH  19  24
ATOM     21  N   UNL     1       0.633   3.222  20.252  0.00  0.00    +0.000 NA
ATOM     22  C   UNL     1       1.430   3.405  21.245  0.00  0.00    +0.000 C 
ATOM     23  N   UNL     1       1.533   2.425  22.267  0.00  0.00    +0.000 N 
ATOM     24  N   UNL     1       2.209   4.594  21.321  0.00  0.00    +0.000 N 
ATOM     25  H   UNL     1       0.057   2.371  20.171  0.00  0.00    +0.000 HD
ATOM     26  H   UNL     1       0.977   1.559  22.223  0.00  0.00    +0.000 HD
ATOM     27  H   UNL     1       2.165   2.567  23.068  0.00  0.00    +0.000 HD
ATOM     28  H   UNL     1       2.841   4.730  22.126  0.00  0.00    +0.000 HD
ENDBRANCH  19  24
ENDBRANCH   1  20
TORSDOF 4
ENDMDL
MODEL 4
REMARK VINA RESULT:      -7.3      4.728      7.369
REMARK  Name = 
REMARK  4 active torsions:
REMARK  status: ('A' for Active; 'I' for Inactive)
REMARK    1  A    between atoms: N_4  and  N_5
REMARK    2  A    between atoms: C_6  and  C_7
REMARK    3  A    between atoms: C_8  and  C_9
REMARK    4  A    between atoms: C_12  and  N_13
REMARK                            x       y       z     vdW  Elec       q    Type
REMARK                         _______ _______ _______ _____ _____    ______ ____
ROOT
ATOM      1  C   UNL     1       3.843   5.619  18.790  0.00  0.00    +0.000 A 
ATOM      2  C   UNL     1       2.769   6.245  19.468  0.00  0.00    +0.000 A 
ATOM      3  N   UNL     1       2.270   5.387  20.401  0.00  0.00    +0.000 NA
ATOM      4  C   UNL     1       3.009   4.284  20.243  0.00  0.00    +0.000 A 
ATOM      5  S   UNL     1       2.970   2.797  21.014  0.00  0.00    +0.000 S 
ATOM      6  C   UNL     1       4.275   2.256  20.050  0.00  0.00    +0.000 A 
ATOM      7 CL   UNL     1       4.978   0.657  20.161  0.00  0.00    +0.000 Cl
ATOM      8  C   UNL     1       4.689   3.265  19.169  0.00  0.00    +0.000 A 
ATOM      9  N   UNL     1       3.939   4.382  19.315  0.00  0.00    +0.000 N 
ENDROOT
BRANCH   2  10
ATOM     10  C   UNL     1       2.149   7.583  19.277  0.00  0.00    +0.000 A 
ATOM     11  C   UNL     1       1.473   8.267  20.302  0.00  0.00    +0.000 A 
ATOM     12  C   UNL     1       0.976   9.558  20.086  0.00  0.00    +0.000 A 
ATOM     13  C   UNL     1       1.134  10.190  18.837  0.00  0.00    +0.000 A 
ATOM     14  C   UNL     1       1.798   9.498  17.812  0.00  0.00    +0.000 A 
ATOM     15  C   UNL     1       2.308   8.220  18.034  0.00  0.00    +0.000 A 
BRANCH  13  16
ATOM     16  N   UNL     1       0.648  11.513  18.615  0.00  0.00    +0.000 N 
ATOM     17  O   UNL     1      -0.521  11.717  18.485  0.00  0.00    +0.000 OA
ATOM     18  O   UNL     1       1.481  12.533  18.589  0.00  0.00    +0.000 OA
ENDBRANCH  13  16
ENDBRANCH   2  10
BRANCH   1  20
ATOM     19  N   UNL     1       5.116   5.451  16.753  0.00  0.00    +0.000 NA
ATOM     20  C   UNL     1       4.746   6.174  17.752  0.00  0.00    +0.000 C 
BRANCH  19  24
ATOM     21  N   UNL     1       6.462   3.740  15.050  0.00  0.00    +0.000 NA
ATOM     22  C   UNL     1       6.683   5.003  14.948  0.00  0.00    +0.000 C 
ATOM     23  N   UNL     1       7.607   5.491  13.986  0.00  0.00    +0.000 N 
ATOM     24  N   UNL     1       6.001   5.914  15.802  0.00  0.00    +0.000 N 
ATOM     25  H   UNL     1       6.942   3.057  14.445  0.00  0.00    +0.000 HD
ATOM     26  H   UNL     1       8.104   4.842  13.359  0.00  0.00    +0.000 HD
ATOM     27  H   UNL     1       7.792   6.500  13.902  0.00  0.00    +0.000 HD
ATOM     28  H   UNL     1       6.191   6.925  15.713  0.00  0.00    +0.000 HD
ENDBRANCH  19  24
ENDBRANCH   1  20
TORSDOF 4
ENDMDL
MODEL 5
REMARK VINA RESULT:      -7.2      1.893      2.134
REMARK  Name = 
REMARK  4 active torsions:
REMARK  status: ('A' for Active; 'I' for Inactive)
REMARK    1  A    between atoms: N_4  and  N_5
REMARK    2  A    between atoms: C_6  and  C_7
REMARK    3  A    between atoms: C_8  and  C_9
REMARK    4  A    between atoms: C_12  and  N_13
REMARK                            x       y       z     vdW  Elec       q    Type
REMARK                         _______ _______ _______ _____ _____    ______ ____
ROOT
ATOM      1  C   UNL     1       2.861   6.474  19.498  0.00  0.00    +0.000 A 
ATOM      2  C   UNL     1       3.229   6.900  18.199  0.00  0.00    +0.000 A 
ATOM      3  N   UNL     1       2.620   8.089  17.930  0.00  0.00    +0.000 NA
ATOM      4  C   UNL     1       1.893   8.327  19.027  0.00  0.00    +0.000 A 
ATOM      5  S   UNL     1       0.859   9.582  19.427  0.00  0.00    +0.000 S 
ATOM      6  C   UNL     1       0.553   8.855  20.945  0.00  0.00    +0.000 A 
ATOM      7 CL   UNL     1      -0.524   9.523  22.152  0.00  0.00    +0.000 Cl
ATOM      8  C   UNL     1       1.277   7.662  21.075  0.00  0.00    +0.000 A 
ATOM      9  N   UNL     1       2.009   7.408  19.965  0.00  0.00    +0.000 N 
ENDROOT
BRANCH   2  10
ATOM     10  C   UNL     1       4.085   6.250  17.171  0.00  0.00    +0.000 A 
ATOM     11  C   UNL     1       4.131   4.858  16.982  0.00  0.00    +0.000 A 
ATOM     12  C   UNL     1       4.897   4.308  15.948  0.00  0.00    +0.000 A 
ATOM     13  C   UNL     1       5.644   5.135  15.087  0.00  0.00    +0.000 A 
ATOM     14  C   UNL     1       5.606   6.524  15.287  0.00  0.00    +0.000 A 
ATOM     15  C   UNL     1       4.829   7.072  16.307  0.00  0.00    +0.000 A 
BRANCH  13  16
ATOM     16  N   UNL     1       6.412   4.583  14.018  0.00  0.00    +0.000 N 
ATOM     17  O   UNL     1       6.045   3.597  13.454  0.00  0.00    +0.000 OA
ATOM     18  O   UNL     1       7.517   5.176  13.615  0.00  0.00    +0.000 OA
ENDBRANCH  13  16
ENDBRANCH   2  10
BRANCH   1  20
ATOM     19  N   UNL     1       2.941   4.106  19.928  0.00  0.00    +0.000 NA
ATOM     20  C   UNL     1       3.323   5.289  20.262  0.00  0.00    +0.000 C 
BRANCH  19  24
ATOM     21  N   UNL     1       5.287   2.733  19.424  0.00  0.00    +0.000 NA
ATOM     22  C   UNL     1       4.514   2.302  20.359  0.00  0.00    +0.000 C 
ATOM     23  N   UNL     1       4.868   1.143  21.099  0.00  0.00    +0.000 N 
ATOM     24  N   UNL     1       3.303   2.989  20.652  0.00  0.00    +0.000 N 
ATOM     25  H   UNL     1       6.170   2.255  19.191  0.00  0.00    +0.000 HD
ATOM     26  H   UNL     1       5.743   0.638  20.899  0.00  0.00    +0.000 HD
ATOM     27  H   UNL     1       4.252   0.790  21.845  0.00  0.00    +0.000 HD
ATOM     28  H   UNL     1       2.691   2.631  21.401  0.00  0.00    +0.000 HD
ENDBRANCH  19  24
ENDBRANCH   1  20
TORSDOF 4
ENDMDL
MODEL 6
REMARK VINA RESULT:      -7.1      3.623      5.869
REMARK  Name = 
REMARK  4 active torsions:
REMARK  status: ('A' for Active; 'I' for Inactive)
REMARK    1  A    between atoms: N_4  and  N_5
REMARK    2  A    between atoms: C_6  and  C_7
REMARK    3  A    between atoms: C_8  and  C_9
REMARK    4  A    between atoms: C_12  and  N_13
REMARK                            x       y       z     vdW  Elec       q    Type
REMARK                         _______ _______ _______ _____ _____    ______ ____
ROOT
ATOM      1  C   UNL     1      -0.947  10.745  19.381  0.00  0.00    +0.000 A 
ATOM      2  C   UNL     1       0.334  10.353  19.840  0.00  0.00    +0.000 A 
ATOM      3  N   UNL     1       0.754  11.230  20.795  0.00  0.00    +0.000 NA
ATOM      4  C   UNL     1      -0.239  12.123  20.861  0.00  0.00    +0.000 A 
ATOM      5  S   UNL     1      -0.433  13.506  21.787  0.00  0.00    +0.000 S 
ATOM      6  C   UNL     1      -1.959  13.782  21.066  0.00  0.00    +0.000 A 
ATOM      7 CL   UNL     1      -2.992  15.142  21.449  0.00  0.00    +0.000 Cl
ATOM      8  C   UNL     1      -2.254  12.777  20.134  0.00  0.00    +0.000 A 
ATOM      9  N   UNL     1      -1.250  11.873  20.053  0.00  0.00    +0.000 N 
ENDROOT
BRANCH   2  10
ATOM     10  C   UNL     1       1.214   9.231  19.418  0.00  0.00    +0.000 A 
ATOM     11  C   UNL     1       1.503   8.133  20.246  0.00  0.00    +0.000 A 
ATOM     12  C   UNL     1       2.276   7.068  19.767  0.00  0.00    +0.000 A 
ATOM     13  C   UNL     1       2.787   7.083  18.455  0.00  0.00    +0.000 A 
ATOM     14  C   UNL     1       2.507   8.188  17.636  0.00  0.00    +0.000 A 
ATOM     15  C   UNL     1       1.723   9.239  18.108  0.00  0.00    +0.000 A 
BRANCH  13  16
ATOM     16  N   UNL     1       3.559   5.992  17.954  0.00  0.00    +0.000 N 
ATOM     17  O   UNL     1       4.731   6.114  17.764  0.00  0.00    +0.000 OA
ATOM     18  O   UNL     1       2.994   4.824  17.728  0.00  0.00    +0.000 OA
ENDBRANCH  13  16
ENDBRANCH   2  10
BRANCH   1  20
ATOM     19  N   UNL     1      -1.608  10.144  17.145  0.00  0.00    +0.000 NA
ATOM     20  C   UNL     1      -1.841  10.070  18.409  0.00  0.00    +0.000 C 
BRANCH  19  24
ATOM     21  N   UNL     1      -3.226  11.683  15.515  0.00  0.00    +0.000 NA
ATOM     22  C   UNL     1      -3.277  10.403  15.395  0.00  0.00    +0.000 C 
ATOM     23  N   UNL     1      -4.155   9.810  14.449  0.00  0.00    +0.000 N 
ATOM     24  N   UNL     1      -2.452   9.580  16.211  0.00  0.00    +0.000 N 
ATOM     25  H   UNL     1      -3.812  12.303  14.938  0.00  0.00    +0.000 HD
ATOM     26  H   UNL     1      -4.755  10.394  13.850  0.00  0.00    +0.000 HD
ATOM     27  H   UNL     1      -4.204   8.786  14.351  0.00  0.00    +0.000 HD
ATOM     28  H   UNL     1      -2.506   8.554  16.108  0.00  0.00    +0.000 HD
ENDBRANCH  19  24
ENDBRANCH   1  20
TORSDOF 4
ENDMDL
MODEL 7
REMARK VINA RESULT:      -7.1      3.653      5.947
REMARK  Name = 
REMARK  4 active torsions:
REMARK  status: ('A' for Active; 'I' for Inactive)
REMARK    1  A    between atoms: N_4  and  N_5
REMARK    2  A    between atoms: C_6  and  C_7
REMARK    3  A    between atoms: C_8  and  C_9
REMARK    4  A    between atoms: C_12  and  N_13
REMARK                            x       y       z     vdW  Elec       q    Type
REMARK                         _______ _______ _______ _____ _____    ______ ____
ROOT
ATOM      1  C   UNL     1      -0.934  10.835  19.298  0.00  0.00    +0.000 A 
ATOM      2  C   UNL     1       0.343  10.409  19.740  0.00  0.00    +0.000 A 
ATOM      3  N   UNL     1       0.815  11.295  20.661  0.00  0.00    +0.000 NA
ATOM      4  C   UNL     1      -0.143  12.226  20.724  0.00  0.00    +0.000 A 
ATOM      5  S   UNL     1      -0.266  13.639  21.614  0.00  0.00    +0.000 S 
ATOM      6  C   UNL     1      -1.797  13.952  20.919  0.00  0.00    +0.000 A 
ATOM      7 CL   UNL     1      -2.771  15.359  21.287  0.00  0.00    +0.000 Cl
ATOM      8  C   UNL     1      -2.149  12.933  20.023  0.00  0.00    +0.000 A 
ATOM      9  N   UNL     1      -1.180  11.991  19.945  0.00  0.00    +0.000 N 
ENDROOT
BRANCH   2  10
ATOM     10  C   UNL     1       1.171   9.244  19.331  0.00  0.00    +0.000 A 
ATOM     11  C   UNL     1       1.783   9.146  18.069  0.00  0.00    +0.000 A 
ATOM     12  C   UNL     1       2.616   8.061  17.768  0.00  0.00    +0.000 A 
ATOM     13  C   UNL     1       2.845   7.045  18.715  0.00  0.00    +0.000 A 
ATOM     14  C   UNL     1       2.222   7.140  19.969  0.00  0.00    +0.000 A 
ATOM     15  C   UNL     1       1.407   8.229  20.275  0.00  0.00    +0.000 A 
BRANCH  13  16
ATOM     16  N   UNL     1       3.708   5.947  18.422  0.00  0.00    +0.000 N 
ATOM     17  O   UNL     1       4.093   5.228  19.295  0.00  0.00    +0.000 OA
ATOM     18  O   UNL     1       4.061   5.689  17.180  0.00  0.00    +0.000 OA
ENDBRANCH  13  16
ENDBRANCH   2  10
BRANCH   1  20
ATOM     19  N   UNL     1      -1.624  10.125  17.104  0.00  0.00    +0.000 NA
ATOM     20  C   UNL     1      -1.874  10.167  18.366  0.00  0.00    +0.000 C 
BRANCH  19  24
ATOM     21  N   UNL     1      -3.211  11.675  15.454  0.00  0.00    +0.000 NA
ATOM     22  C   UNL     1      -3.312  10.394  15.374  0.00  0.00    +0.000 C 
ATOM     23  N   UNL     1      -4.228   9.807  14.462  0.00  0.00    +0.000 N 
ATOM     24  N   UNL     1      -2.505   9.565  16.202  0.00  0.00    +0.000 N 
ATOM     25  H   UNL     1      -3.783  12.299  14.868  0.00  0.00    +0.000 HD
ATOM     26  H   UNL     1      -4.816  10.396  13.855  0.00  0.00    +0.000 HD
ATOM     27  H   UNL     1      -4.318   8.784  14.396  0.00  0.00    +0.000 HD
ATOM     28  H   UNL     1      -2.599   8.540  16.131  0.00  0.00    +0.000 HD
ENDBRANCH  19  24
ENDBRANCH   1  20
TORSDOF 4
ENDMDL
MODEL 8
REMARK VINA RESULT:      -7.1      3.498      5.532
REMARK  Name = 
REMARK  4 active torsions:
REMARK  status: ('A' for Active; 'I' for Inactive)
REMARK    1  A    between atoms: N_4  and  N_5
REMARK    2  A    between atoms: C_6  and  C_7
REMARK    3  A    between atoms: C_8  and  C_9
REMARK    4  A    between atoms: C_12  and  N_13
REMARK                            x       y       z     vdW  Elec       q    Type
REMARK                         _______ _______ _______ _____ _____    ______ ____
ROOT
ATOM      1  C   UNL     1       3.892   4.859  18.219  0.00  0.00    +0.000 A 
ATOM      2  C   UNL     1       4.415   3.975  17.244  0.00  0.00    +0.000 A 
ATOM      3  N   UNL     1       3.998   2.708  17.522  0.00  0.00    +0.000 NA
ATOM      4  C   UNL     1       3.285   2.849  18.644  0.00  0.00    +0.000 A 
ATOM      5  S   UNL     1       2.479   1.733  19.599  0.00  0.00    +0.000 S 
ATOM      6  C   UNL     1       1.984   2.984  20.654  0.00  0.00    +0.000 A 
ATOM      7 CL   UNL     1       1.013   2.730  22.088  0.00  0.00    +0.000 Cl
ATOM      8  C   UNL     1       2.467   4.223  20.211  0.00  0.00    +0.000 A 
ATOM      9  N   UNL     1       3.199   4.089  19.080  0.00  0.00    +0.000 N 
ENDROOT
BRANCH   2  10
ATOM     10  C   UNL     1       5.312   4.229  16.086  0.00  0.00    +0.000 A 
ATOM     11  C   UNL     1       4.942   3.960  14.757  0.00  0.00    +0.000 A 
ATOM     12  C   UNL     1       5.800   4.292  13.701  0.00  0.00    +0.000 A 
ATOM     13  C   UNL     1       7.051   4.888  13.950  0.00  0.00    +0.000 A 
ATOM     14  C   UNL     1       7.423   5.143  15.280  0.00  0.00    +0.000 A 
ATOM     15  C   UNL     1       6.561   4.828  16.329  0.00  0.00    +0.000 A 
BRANCH  13  16
ATOM     16  N   UNL     1       7.921   5.247  12.878  0.00  0.00    +0.000 N 
ATOM     17  O   UNL     1       7.689   4.891  11.762  0.00  0.00    +0.000 OA
ATOM     18  O   UNL     1       8.973   6.009  13.100  0.00  0.00    +0.000 OA
ENDBRANCH  13  16
ENDBRANCH   2  10
BRANCH   1  20
ATOM     19  N   UNL     1       3.050   7.087  17.869  0.00  0.00    +0.000 NA
ATOM     20  C   UNL     1       4.002   6.336  18.300  0.00  0.00    +0.000 C 
BRANCH  19  24
ATOM     21  N   UNL     1       0.812   8.708  17.782  0.00  0.00    +0.000 NA
ATOM     22  C   UNL     1       1.971   9.266  17.819  0.00  0.00    +0.000 C 
ATOM     23  N   UNL     1       2.081  10.682  17.807  0.00  0.00    +0.000 N 
ATOM     24  N   UNL     1       3.144   8.463  17.873  0.00  0.00    +0.000 N 
ATOM     25  H   UNL     1      -0.054   9.264  17.742  0.00  0.00    +0.000 HD
ATOM     26  H   UNL     1       1.240  11.275  17.771  0.00  0.00    +0.000 HD
ATOM     27  H   UNL     1       3.005  11.135  17.832  0.00  0.00    +0.000 HD
ATOM     28  H   UNL     1       4.068   8.924  17.899  0.00  0.00    +0.000 HD
ENDBRANCH  19  24
ENDBRANCH   1  20
TORSDOF 4
ENDMDL
MODEL 9
REMARK VINA RESULT:      -7.1      3.403      5.431
REMARK  Name = 
REMARK  4 active torsions:
REMARK  status: ('A' for Active; 'I' for Inactive)
REMARK    1  A    between atoms: N_4  and  N_5
REMARK    2  A    between atoms: C_6  and  C_7
REMARK    3  A    between atoms: C_8  and  C_9
REMARK    4  A    between atoms: C_12  and  N_13
REMARK                            x       y       z     vdW  Elec       q    Type
REMARK                         _______ _______ _______ _____ _____    ______ ____
ROOT
ATOM      1  C   UNL     1       3.297   4.782  18.229  0.00  0.00    +0.000 A 
ATOM      2  C   UNL     1       4.441   4.130  17.709  0.00  0.00    +0.000 A 
ATOM      3  N   UNL     1       4.701   3.021  18.457  0.00  0.00    +0.000 NA
ATOM      4  C   UNL     1       3.758   3.050  19.403  0.00  0.00    +0.000 A 
ATOM      5  S   UNL     1       3.446   2.032  20.697  0.00  0.00    +0.000 S 
ATOM      6  C   UNL     1       2.109   3.000  21.145  0.00  0.00    +0.000 A 
ATOM      7 CL   UNL     1       1.083   2.676  22.526  0.00  0.00    +0.000 Cl
ATOM      8  C   UNL     1       1.960   4.076  20.259  0.00  0.00    +0.000 A 
ATOM      9  N   UNL     1       2.918   4.060  19.303  0.00  0.00    +0.000 N 
ENDROOT
BRANCH   2  10
ATOM     10  C   UNL     1       5.335   4.494  16.579  0.00  0.00    +0.000 A 
ATOM     11  C   UNL     1       6.591   5.099  16.760  0.00  0.00    +0.000 A 
ATOM     12  C   UNL     1       7.422   5.350  15.661  0.00  0.00    +0.000 A 
ATOM     13  C   UNL     1       7.013   5.013  14.357  0.00  0.00    +0.000 A 
ATOM     14  C   UNL     1       5.752   4.421  14.179  0.00  0.00    +0.000 A 
ATOM     15  C   UNL     1       4.933   4.156  15.275  0.00  0.00    +0.000 A 
BRANCH  13  16
ATOM     16  N   UNL     1       7.863   5.246  13.235  0.00  0.00    +0.000 N 
ATOM     17  O   UNL     1       7.607   4.772  12.170  0.00  0.00    +0.000 OA
ATOM     18  O   UNL     1       8.923   6.020  13.351  0.00  0.00    +0.000 OA
ENDBRANCH  13  16
ENDBRANCH   2  10
BRANCH   1  20
ATOM     19  N   UNL     1       2.939   7.158  18.083  0.00  0.00    +0.000 NA
ATOM     20  C   UNL     1       2.584   5.977  17.715  0.00  0.00    +0.000 C 
BRANCH  19  24
ATOM     21  N   UNL     1       1.507   8.730  19.850  0.00  0.00    +0.000 NA
ATOM     22  C   UNL     1       1.527   9.067  18.608  0.00  0.00    +0.000 C 
ATOM     23  N   UNL     1       0.818  10.217  18.171  0.00  0.00    +0.000 N 
ATOM     24  N   UNL     1       2.261   8.287  17.672  0.00  0.00    +0.000 N 
ATOM     25  H   UNL     1       0.984   9.276  20.550  0.00  0.00    +0.000 HD
ATOM     26  H   UNL     1       0.285  10.793  18.839  0.00  0.00    +0.000 HD
ATOM     27  H   UNL     1       0.826  10.491  17.178  0.00  0.00    +0.000 HD
ATOM     28  H   UNL     1       2.265   8.567  16.679  0.00  0.00    +0.000 HD
ENDBRANCH  19  24
ENDBRANCH   1  20
TORSDOF 4
ENDMDL
