MODEL 1
REMARK VINA RESULT:      -6.1      0.000      0.000
REMARK  Name = 
REMARK  27 active torsions:
REMARK  status: ('A' for Active; 'I' for Inactive)
REMARK    1  A    between atoms: C_1  and  C_2
REMARK    2  A    between atoms: C_2  and  C_3
REMARK    3  A    between atoms: C_3  and  C_4
REMARK    4  A    between atoms: C_4  and  C_5
REMARK    5  A    between atoms: C_5  and  C_6
REMARK    6  A    between atoms: C_6  and  C_7
REMARK    7  A    between atoms: C_7  and  C_8
REMARK    8  A    between atoms: C_8  and  C_9
REMARK    9  A    between atoms: C_9  and  C_10
REMARK   10  A    between atoms: C_10  and  C_11
REMARK   11  A    between atoms: C_11  and  C_12
REMARK   12  A    between atoms: N_14  and  C_15
REMARK   13  A    between atoms: C_15  and  C_16
REMARK   14  A    between atoms: C_15  and  C_22
REMARK   15  A    between atoms: C_16  and  C_17
REMARK   16  A    between atoms: C_17  and  C_18
REMARK   17  A    between atoms: C_18  and  C_19
REMARK   18  A    between atoms: C_19  and  C_20
REMARK   19  A    between atoms: C_20  and  C_21
REMARK   20  A    between atoms: C_22  and  O_23
REMARK   21  A    between atoms: O_23  and  P_24
REMARK   22  A    between atoms: P_24  and  C_26
REMARK   23  A    between atoms: P_24  and  O_30
REMARK   24  A    between atoms: C_26  and  C_27
REMARK   25  A    between atoms: C_27  and  C_28
REMARK   26  A    between atoms: C_28  and  C_29
REMARK   27  A    between atoms: O_30  and  C_31
REMARK                            x       y       z     vdW  Elec       q    Type
REMARK                         _______ _______ _______ _____ _____    ______ ____
ROOT
ATOM      1  C   UNL     1       3.431   6.195  18.878  0.00  0.00    +0.000 C 
ENDROOT
BRANCH   1   4
ATOM      2  C   UNL     1       2.331   8.228  17.946  0.00  0.00    +0.000 C 
ATOM      3  O   UNL     1       3.282   8.510  17.223  0.00  0.00    +0.000 OA
ATOM      4  N   UNL     1       2.331   7.160  18.812  0.00  0.00    +0.000 N 
ATOM      5  H   UNL     1       1.518   7.001  19.394  0.00  0.00    +0.000 HD
BRANCH   2   6
ATOM      6  C   UNL     1       1.078   9.073  17.959  0.00  0.00    +0.000 C 
BRANCH   6   7
ATOM      7  C   UNL     1       0.828   9.708  19.321  0.00  0.00    +0.000 C 
BRANCH   7   8
ATOM      8  C   UNL     1       0.291  11.135  19.197  0.00  0.00    +0.000 C 
BRANCH   8   9
ATOM      9  C   UNL     1      -1.233  11.141  19.277  0.00  0.00    +0.000 C 
BRANCH   9  10
ATOM     10  C   UNL     1      -1.845  11.725  18.007  0.00  0.00    +0.000 C 
BRANCH  10  11
ATOM     11  C   UNL     1      -2.227  10.627  17.027  0.00  0.00    +0.000 C 
BRANCH  11  12
ATOM     12  C   UNL     1      -3.677  10.791  16.570  0.00  0.00    +0.000 C 
BRANCH  12  13
ATOM     13  C   UNL     1      -4.642  10.683  17.746  0.00  0.00    +0.000 C 
BRANCH  13  14
ATOM     14  C   UNL     1      -5.540  11.915  17.822  0.00  0.00    +0.000 C 
BRANCH  14  16
ATOM     15  C   UNL     1      -6.948  10.977  19.682  0.00  0.00    +0.000 C 
ATOM     16  C   UNL     1      -6.065  12.132  19.240  0.00  0.00    +0.000 C 
ENDBRANCH  14  16
ENDBRANCH  13  14
ENDBRANCH  12  13
ENDBRANCH  11  12
ENDBRANCH  10  11
ENDBRANCH   9  10
ENDBRANCH   8   9
ENDBRANCH   7   8
ENDBRANCH   6   7
ENDBRANCH   2   6
ENDBRANCH   1   4
BRANCH   1  17
ATOM     17  C   UNL     1       3.169   5.198  20.028  0.00  0.00    +0.000 C 
BRANCH  17  18
ATOM     18  C   UNL     1       1.705   5.175  20.468  0.00  0.00    +0.000 C 
BRANCH  18  19
ATOM     19  C   UNL     1       1.183   3.770  20.773  0.00  0.00    +0.000 C 
BRANCH  19  20
ATOM     20  C   UNL     1       0.821   3.078  19.456  0.00  0.00    +0.000 C 
BRANCH  20  21
ATOM     21  C   UNL     1       1.743   1.911  19.120  0.00  0.00    +0.000 C 
ATOM     22  C   UNL     1       2.489   2.178  17.820  0.00  0.00    +0.000 C 
ENDBRANCH  20  21
ENDBRANCH  19  20
ENDBRANCH  18  19
ENDBRANCH  17  18
ENDBRANCH   1  17
BRANCH   1  23
ATOM     23  C   UNL     1       3.648   5.504  17.508  0.00  0.00    +0.000 C 
BRANCH  23  24
ATOM     24  O   UNL     1       4.907   4.824  17.407  0.00  0.00    +0.000 OA
BRANCH  24  25
ATOM     25  P   UNL     1       6.254   5.843  17.037  0.00  0.00    +0.000 P 
ATOM     26  O   UNL     1       6.832   5.626  18.448  0.00  0.00    +0.000 OA
BRANCH  25  27
ATOM     27  O   UNL     1       7.602   6.863  16.667  0.00  0.00    +0.000 OA
ATOM     28  C   UNL     1       7.708   7.974  17.538  0.00  0.00    +0.000 C 
ENDBRANCH  25  27
BRANCH  25  29
ATOM     29  C   UNL     1       7.034   4.504  15.940  0.00  0.00    +0.000 C 
BRANCH  29  30
ATOM     30  C   UNL     1       6.940   4.750  14.435  0.00  0.00    +0.000 C 
BRANCH  30  31
ATOM     31  C   UNL     1       5.945   3.852  13.694  0.00  0.00    +0.000 C 
ATOM     32  C   UNL     1       6.420   3.573  12.271  0.00  0.00    +0.000 C 
ENDBRANCH  30  31
ENDBRANCH  29  30
ENDBRANCH  25  29
ENDBRANCH  24  25
ENDBRANCH  23  24
ENDBRANCH   1  23
TORSDOF 23
ENDMDL
MODEL 2
REMARK VINA RESULT:      -6.1      2.149      3.013
REMARK  Name = 
REMARK  27 active torsions:
REMARK  status: ('A' for Active; 'I' for Inactive)
REMARK    1  A    between atoms: C_1  and  C_2
REMARK    2  A    between atoms: C_2  and  C_3
REMARK    3  A    between atoms: C_3  and  C_4
REMARK    4  A    between atoms: C_4  and  C_5
REMARK    5  A    between atoms: C_5  and  C_6
REMARK    6  A    between atoms: C_6  and  C_7
REMARK    7  A    between atoms: C_7  and  C_8
REMARK    8  A    between atoms: C_8  and  C_9
REMARK    9  A    between atoms: C_9  and  C_10
REMARK   10  A    between atoms: C_10  and  C_11
REMARK   11  A    between atoms: C_11  and  C_12
REMARK   12  A    between atoms: N_14  and  C_15
REMARK   13  A    between atoms: C_15  and  C_16
REMARK   14  A    between atoms: C_15  and  C_22
REMARK   15  A    between atoms: C_16  and  C_17
REMARK   16  A    between atoms: C_17  and  C_18
REMARK   17  A    between atoms: C_18  and  C_19
REMARK   18  A    between atoms: C_19  and  C_20
REMARK   19  A    between atoms: C_20  and  C_21
REMARK   20  A    between atoms: C_22  and  O_23
REMARK   21  A    between atoms: O_23  and  P_24
REMARK   22  A    between atoms: P_24  and  C_26
REMARK   23  A    between atoms: P_24  and  O_30
REMARK   24  A    between atoms: C_26  and  C_27
REMARK   25  A    between atoms: C_27  and  C_28
REMARK   26  A    between atoms: C_28  and  C_29
REMARK   27  A    between atoms: O_30  and  C_31
REMARK                            x       y       z     vdW  Elec       q    Type
REMARK                         _______ _______ _______ _____ _____    ______ ____
ROOT
ATOM      1  C   UNL     1       2.751   5.324  18.236  0.00  0.00    +0.000 C 
ENDROOT
BRANCH   1   4
ATOM      2  C   UNL     1       2.324   7.746  18.640  0.00  0.00    +0.000 C 
ATOM      3  O   UNL     1       2.136   7.595  19.844  0.00  0.00    +0.000 OA
ATOM      4  N   UNL     1       2.577   6.705  17.778  0.00  0.00    +0.000 N 
ATOM      5  H   UNL     1       2.699   6.903  16.793  0.00  0.00    +0.000 HD
BRANCH   2   6
ATOM      6  C   UNL     1       2.252   9.114  18.001  0.00  0.00    +0.000 C 
BRANCH   6   7
ATOM      7  C   UNL     1       0.870   9.740  18.135  0.00  0.00    +0.000 C 
BRANCH   7   8
ATOM      8  C   UNL     1       0.778  10.665  19.350  0.00  0.00    +0.000 C 
BRANCH   8   9
ATOM      9  C   UNL     1      -0.681  10.921  19.717  0.00  0.00    +0.000 C 
BRANCH   9  10
ATOM     10  C   UNL     1      -0.813  12.154  20.607  0.00  0.00    +0.000 C 
BRANCH  10  11
ATOM     11  C   UNL     1      -1.747  11.888  21.777  0.00  0.00    +0.000 C 
BRANCH  11  12
ATOM     12  C   UNL     1      -1.363  12.749  22.981  0.00  0.00    +0.000 C 
BRANCH  12  13
ATOM     13  C   UNL     1      -2.575  13.479  23.548  0.00  0.00    +0.000 C 
BRANCH  13  14
ATOM     14  C   UNL     1      -3.628  12.485  24.030  0.00  0.00    +0.000 C 
BRANCH  14  16
ATOM     15  C   UNL     1      -5.270  13.031  22.206  0.00  0.00    +0.000 C 
ATOM     16  C   UNL     1      -5.039  12.971  23.707  0.00  0.00    +0.000 C 
ENDBRANCH  14  16
ENDBRANCH  13  14
ENDBRANCH  12  13
ENDBRANCH  11  12
ENDBRANCH  10  11
ENDBRANCH   9  10
ENDBRANCH   8   9
ENDBRANCH   7   8
ENDBRANCH   6   7
ENDBRANCH   2   6
ENDBRANCH   1   4
BRANCH   1  17
ATOM     17  C   UNL     1       1.586   4.459  17.707  0.00  0.00    +0.000 C 
BRANCH  17  18
ATOM     18  C   UNL     1       1.899   2.963  17.738  0.00  0.00    +0.000 C 
BRANCH  18  19
ATOM     19  C   UNL     1       1.025   2.179  18.719  0.00  0.00    +0.000 C 
BRANCH  19  20
ATOM     20  C   UNL     1       1.723   2.136  20.081  0.00  0.00    +0.000 C 
BRANCH  20  21
ATOM     21  C   UNL     1       1.185   3.173  21.061  0.00  0.00    +0.000 C 
ATOM     22  C   UNL     1       2.323   4.007  21.633  0.00  0.00    +0.000 C 
ENDBRANCH  20  21
ENDBRANCH  19  20
ENDBRANCH  18  19
ENDBRANCH  17  18
ENDBRANCH   1  17
BRANCH   1  23
ATOM     23  C   UNL     1       4.146   4.778  17.837  0.00  0.00    +0.000 C 
BRANCH  23  24
ATOM     24  O   UNL     1       4.609   5.270  16.573  0.00  0.00    +0.000 OA
BRANCH  24  25
ATOM     25  P   UNL     1       6.144   6.064  16.621  0.00  0.00    +0.000 P 
ATOM     26  O   UNL     1       6.348   5.626  18.084  0.00  0.00    +0.000 OA
BRANCH  25  27
ATOM     27  O   UNL     1       7.681   6.859  16.671  0.00  0.00    +0.000 OA
ATOM     28  C   UNL     1       7.706   7.952  17.569  0.00  0.00    +0.000 C 
ENDBRANCH  25  27
BRANCH  25  29
ATOM     29  C   UNL     1       6.939   4.710  15.554  0.00  0.00    +0.000 C 
BRANCH  29  30
ATOM     30  C   UNL     1       6.008   4.036  14.546  0.00  0.00    +0.000 C 
BRANCH  30  31
ATOM     31  C   UNL     1       6.553   3.954  13.117  0.00  0.00    +0.000 C 
ATOM     32  C   UNL     1       5.589   3.192  12.212  0.00  0.00    +0.000 C 
ENDBRANCH  30  31
ENDBRANCH  29  30
ENDBRANCH  25  29
ENDBRANCH  24  25
ENDBRANCH  23  24
ENDBRANCH   1  23
TORSDOF 23
ENDMDL
MODEL 3
REMARK VINA RESULT:      -6.0      3.433      9.103
REMARK  Name = 
REMARK  27 active torsions:
REMARK  status: ('A' for Active; 'I' for Inactive)
REMARK    1  A    between atoms: C_1  and  C_2
REMARK    2  A    between atoms: C_2  and  C_3
REMARK    3  A    between atoms: C_3  and  C_4
REMARK    4  A    between atoms: C_4  and  C_5
REMARK    5  A    between atoms: C_5  and  C_6
REMARK    6  A    between atoms: C_6  and  C_7
REMARK    7  A    between atoms: C_7  and  C_8
REMARK    8  A    between atoms: C_8  and  C_9
REMARK    9  A    between atoms: C_9  and  C_10
REMARK   10  A    between atoms: C_10  and  C_11
REMARK   11  A    between atoms: C_11  and  C_12
REMARK   12  A    between atoms: N_14  and  C_15
REMARK   13  A    between atoms: C_15  and  C_16
REMARK   14  A    between atoms: C_15  and  C_22
REMARK   15  A    between atoms: C_16  and  C_17
REMARK   16  A    between atoms: C_17  and  C_18
REMARK   17  A    between atoms: C_18  and  C_19
REMARK   18  A    between atoms: C_19  and  C_20
REMARK   19  A    between atoms: C_20  and  C_21
REMARK   20  A    between atoms: C_22  and  O_23
REMARK   21  A    between atoms: O_23  and  P_24
REMARK   22  A    between atoms: P_24  and  C_26
REMARK   23  A    between atoms: P_24  and  O_30
REMARK   24  A    between atoms: C_26  and  C_27
REMARK   25  A    between atoms: C_27  and  C_28
REMARK   26  A    between atoms: C_28  and  C_29
REMARK   27  A    between atoms: O_30  and  C_31
REMARK                            x       y       z     vdW  Elec       q    Type
REMARK                         _______ _______ _______ _____ _____    ______ ____
ROOT
ATOM      1  C   UNL     1       2.041   5.984  20.262  0.00  0.00    +0.000 C 
ENDROOT
BRANCH   1   4
ATOM      2  C   UNL     1       3.900   5.855  18.607  0.00  0.00    +0.000 C 
ATOM      3  O   UNL     1       3.171   6.088  17.648  0.00  0.00    +0.000 OA
ATOM      4  N   UNL     1       3.438   5.738  19.896  0.00  0.00    +0.000 N 
ATOM      5  H   UNL     1       4.096   5.522  20.635  0.00  0.00    +0.000 HD
BRANCH   2   6
ATOM      6  C   UNL     1       5.386   5.641  18.429  0.00  0.00    +0.000 C 
BRANCH   6   7
ATOM      7  C   UNL     1       5.860   6.035  17.036  0.00  0.00    +0.000 C 
BRANCH   7   8
ATOM      8  C   UNL     1       6.993   7.061  17.087  0.00  0.00    +0.000 C 
BRANCH   8   9
ATOM      9  C   UNL     1       7.831   6.870  18.348  0.00  0.00    +0.000 C 
BRANCH   9  10
ATOM     10  C   UNL     1       8.592   8.146  18.698  0.00  0.00    +0.000 C 
BRANCH  10  11
ATOM     11  C   UNL     1       8.134   9.312  17.836  0.00  0.00    +0.000 C 
BRANCH  11  12
ATOM     12  C   UNL     1       8.838  10.602  18.254  0.00  0.00    +0.000 C 
BRANCH  12  13
ATOM     13  C   UNL     1       9.607  10.414  19.558  0.00  0.00    +0.000 C 
BRANCH  13  14
ATOM     14  C   UNL     1      10.526  11.604  19.819  0.00  0.00    +0.000 C 
BRANCH  14  16
ATOM     15  C   UNL     1       9.269  13.539  20.819  0.00  0.00    +0.000 C 
ATOM     16  C   UNL     1      10.142  12.329  21.107  0.00  0.00    +0.000 C 
ENDBRANCH  14  16
ENDBRANCH  13  14
ENDBRANCH  12  13
ENDBRANCH  11  12
ENDBRANCH  10  11
ENDBRANCH   9  10
ENDBRANCH   8   9
ENDBRANCH   7   8
ENDBRANCH   6   7
ENDBRANCH   2   6
ENDBRANCH   1   4
BRANCH   1  17
ATOM     17  C   UNL     1       1.451   4.714  20.913  0.00  0.00    +0.000 C 
BRANCH  17  18
ATOM     18  C   UNL     1       0.555   3.923  19.959  0.00  0.00    +0.000 C 
BRANCH  18  19
ATOM     19  C   UNL     1       1.335   3.018  19.004  0.00  0.00    +0.000 C 
BRANCH  19  20
ATOM     20  C   UNL     1       2.357   2.209  19.809  0.00  0.00    +0.000 C 
BRANCH  20  21
ATOM     21  C   UNL     1       3.729   2.152  19.146  0.00  0.00    +0.000 C 
ATOM     22  C   UNL     1       3.598   2.301  17.637  0.00  0.00    +0.000 C 
ENDBRANCH  20  21
ENDBRANCH  19  20
ENDBRANCH  18  19
ENDBRANCH  17  18
ENDBRANCH   1  17
BRANCH   1  23
ATOM     23  C   UNL     1       1.914   7.244  21.156  0.00  0.00    +0.000 C 
BRANCH  23  24
ATOM     24  O   UNL     1       0.743   8.023  20.877  0.00  0.00    +0.000 OA
BRANCH  24  25
ATOM     25  P   UNL     1       0.279   9.112  22.138  0.00  0.00    +0.000 P 
ATOM     26  O   UNL     1       1.757   9.412  22.452  0.00  0.00    +0.000 OA
BRANCH  25  27
ATOM     27  O   UNL     1      -0.186  10.201  23.400  0.00  0.00    +0.000 OA
ATOM     28  C   UNL     1      -0.972  11.281  22.933  0.00  0.00    +0.000 C 
ENDBRANCH  25  27
BRANCH  25  29
ATOM     29  C   UNL     1      -0.265  10.424  20.878  0.00  0.00    +0.000 C 
BRANCH  29  30
ATOM     30  C   UNL     1      -0.082  10.042  19.410  0.00  0.00    +0.000 C 
BRANCH  30  31
ATOM     31  C   UNL     1      -0.854  10.913  18.414  0.00  0.00    +0.000 C 
ATOM     32  C   UNL     1      -1.686  10.049  17.469  0.00  0.00    +0.000 C 
ENDBRANCH  30  31
ENDBRANCH  29  30
ENDBRANCH  25  29
ENDBRANCH  24  25
ENDBRANCH  23  24
ENDBRANCH   1  23
TORSDOF 23
ENDMDL
MODEL 4
REMARK VINA RESULT:      -5.9      4.015      9.005
REMARK  Name = 
REMARK  27 active torsions:
REMARK  status: ('A' for Active; 'I' for Inactive)
REMARK    1  A    between atoms: C_1  and  C_2
REMARK    2  A    between atoms: C_2  and  C_3
REMARK    3  A    between atoms: C_3  and  C_4
REMARK    4  A    between atoms: C_4  and  C_5
REMARK    5  A    between atoms: C_5  and  C_6
REMARK    6  A    between atoms: C_6  and  C_7
REMARK    7  A    between atoms: C_7  and  C_8
REMARK    8  A    between atoms: C_8  and  C_9
REMARK    9  A    between atoms: C_9  and  C_10
REMARK   10  A    between atoms: C_10  and  C_11
REMARK   11  A    between atoms: C_11  and  C_12
REMARK   12  A    between atoms: N_14  and  C_15
REMARK   13  A    between atoms: C_15  and  C_16
REMARK   14  A    between atoms: C_15  and  C_22
REMARK   15  A    between atoms: C_16  and  C_17
REMARK   16  A    between atoms: C_17  and  C_18
REMARK   17  A    between atoms: C_18  and  C_19
REMARK   18  A    between atoms: C_19  and  C_20
REMARK   19  A    between atoms: C_20  and  C_21
REMARK   20  A    between atoms: C_22  and  O_23
REMARK   21  A    between atoms: O_23  and  P_24
REMARK   22  A    between atoms: P_24  and  C_26
REMARK   23  A    between atoms: P_24  and  O_30
REMARK   24  A    between atoms: C_26  and  C_27
REMARK   25  A    between atoms: C_27  and  C_28
REMARK   26  A    between atoms: C_28  and  C_29
REMARK   27  A    between atoms: O_30  and  C_31
REMARK                            x       y       z     vdW  Elec       q    Type
REMARK                         _______ _______ _______ _____ _____    ______ ____
ROOT
ATOM      1  C   UNL     1       4.833   4.670  16.612  0.00  0.00    +0.000 C 
ENDROOT
BRANCH   1   4
ATOM      2  C   UNL     1       6.388   6.550  17.120  0.00  0.00    +0.000 C 
ATOM      3  O   UNL     1       6.015   7.224  16.165  0.00  0.00    +0.000 OA
ATOM      4  N   UNL     1       5.912   5.288  17.387  0.00  0.00    +0.000 N 
ATOM      5  H   UNL     1       6.283   4.782  18.181  0.00  0.00    +0.000 HD
BRANCH   2   6
ATOM      6  C   UNL     1       7.448   7.056  18.071  0.00  0.00    +0.000 C 
BRANCH   6   7
ATOM      7  C   UNL     1       8.273   8.183  17.464  0.00  0.00    +0.000 C 
BRANCH   7   8
ATOM      8  C   UNL     1       8.012   9.521  18.157  0.00  0.00    +0.000 C 
BRANCH   8   9
ATOM      9  C   UNL     1       9.254   9.982  18.916  0.00  0.00    +0.000 C 
BRANCH   9  10
ATOM     10  C   UNL     1       9.819  11.265  18.312  0.00  0.00    +0.000 C 
BRANCH  10  11
ATOM     11  C   UNL     1       9.309  12.491  19.053  0.00  0.00    +0.000 C 
BRANCH  11  12
ATOM     12  C   UNL     1      10.359  13.001  20.040  0.00  0.00    +0.000 C 
BRANCH  12  13
ATOM     13  C   UNL     1      10.021  12.587  21.469  0.00  0.00    +0.000 C 
BRANCH  13  14
ATOM     14  C   UNL     1       8.517  12.395  21.634  0.00  0.00    +0.000 C 
BRANCH  14  16
ATOM     15  C   UNL     1       7.272  12.487  23.817  0.00  0.00    +0.000 C 
ATOM     16  C   UNL     1       8.191  11.661  22.934  0.00  0.00    +0.000 C 
ENDBRANCH  14  16
ENDBRANCH  13  14
ENDBRANCH  12  13
ENDBRANCH  11  12
ENDBRANCH  10  11
ENDBRANCH   9  10
ENDBRANCH   8   9
ENDBRANCH   7   8
ENDBRANCH   6   7
ENDBRANCH   2   6
ENDBRANCH   1   4
BRANCH   1  17
ATOM     17  C   UNL     1       5.423   3.578  15.693  0.00  0.00    +0.000 C 
BRANCH  17  18
ATOM     18  C   UNL     1       5.401   3.975  14.216  0.00  0.00    +0.000 C 
BRANCH  18  19
ATOM     19  C   UNL     1       6.791   4.013  13.577  0.00  0.00    +0.000 C 
BRANCH  19  20
ATOM     20  C   UNL     1       6.644   3.866  12.060  0.00  0.00    +0.000 C 
BRANCH  20  21
ATOM     21  C   UNL     1       7.083   2.498  11.547  0.00  0.00    +0.000 C 
ATOM     22  C   UNL     1       5.875   1.600  11.325  0.00  0.00    +0.000 C 
ENDBRANCH  20  21
ENDBRANCH  19  20
ENDBRANCH  18  19
ENDBRANCH  17  18
ENDBRANCH   1  17
BRANCH   1  23
ATOM     23  C   UNL     1       3.711   4.142  17.544  0.00  0.00    +0.000 C 
BRANCH  23  24
ATOM     24  O   UNL     1       3.842   4.588  18.900  0.00  0.00    +0.000 OA
BRANCH  24  25
ATOM     25  P   UNL     1       3.026   6.069  19.259  0.00  0.00    +0.000 P 
ATOM     26  O   UNL     1       2.168   5.928  17.988  0.00  0.00    +0.000 OA
BRANCH  25  27
ATOM     27  O   UNL     1       2.209   7.552  19.618  0.00  0.00    +0.000 OA
ATOM     28  C   UNL     1       1.987   8.350  18.470  0.00  0.00    +0.000 C 
ENDBRANCH  25  27
BRANCH  25  29
ATOM     29  C   UNL     1       2.035   5.247  20.654  0.00  0.00    +0.000 C 
BRANCH  29  30
ATOM     30  C   UNL     1       0.968   4.250  20.204  0.00  0.00    +0.000 C 
BRANCH  30  31
ATOM     31  C   UNL     1       1.189   2.809  20.675  0.00  0.00    +0.000 C 
ATOM     32  C   UNL     1       2.430   2.712  21.559  0.00  0.00    +0.000 C 
ENDBRANCH  30  31
ENDBRANCH  29  30
ENDBRANCH  25  29
ENDBRANCH  24  25
ENDBRANCH  23  24
ENDBRANCH   1  23
TORSDOF 23
ENDMDL
MODEL 5
REMARK VINA RESULT:      -5.8      1.785      2.713
REMARK  Name = 
REMARK  27 active torsions:
REMARK  status: ('A' for Active; 'I' for Inactive)
REMARK    1  A    between atoms: C_1  and  C_2
REMARK    2  A    between atoms: C_2  and  C_3
REMARK    3  A    between atoms: C_3  and  C_4
REMARK    4  A    between atoms: C_4  and  C_5
REMARK    5  A    between atoms: C_5  and  C_6
REMARK    6  A    between atoms: C_6  and  C_7
REMARK    7  A    between atoms: C_7  and  C_8
REMARK    8  A    between atoms: C_8  and  C_9
REMARK    9  A    between atoms: C_9  and  C_10
REMARK   10  A    between atoms: C_10  and  C_11
REMARK   11  A    between atoms: C_11  and  C_12
REMARK   12  A    between atoms: N_14  and  C_15
REMARK   13  A    between atoms: C_15  and  C_16
REMARK   14  A    between atoms: C_15  and  C_22
REMARK   15  A    between atoms: C_16  and  C_17
REMARK   16  A    between atoms: C_17  and  C_18
REMARK   17  A    between atoms: C_18  and  C_19
REMARK   18  A    between atoms: C_19  and  C_20
REMARK   19  A    between atoms: C_20  and  C_21
REMARK   20  A    between atoms: C_22  and  O_23
REMARK   21  A    between atoms: O_23  and  P_24
REMARK   22  A    between atoms: P_24  and  C_26
REMARK   23  A    between atoms: P_24  and  O_30
REMARK   24  A    between atoms: C_26  and  C_27
REMARK   25  A    between atoms: C_27  and  C_28
REMARK   26  A    between atoms: C_28  and  C_29
REMARK   27  A    between atoms: O_30  and  C_31
REMARK                            x       y       z     vdW  Elec       q    Type
REMARK                         _______ _______ _______ _____ _____    ______ ____
ROOT
ATOM      1  C   UNL     1       2.522   5.920  19.134  0.00  0.00    +0.000 C 
ENDROOT
BRANCH   1   4
ATOM      2  C   UNL     1       2.595   8.118  17.961  0.00  0.00    +0.000 C 
ATOM      3  O   UNL     1       3.420   7.741  17.134  0.00  0.00    +0.000 OA
ATOM      4  N   UNL     1       2.140   7.327  18.989  0.00  0.00    +0.000 N 
ATOM      5  H   UNL     1       1.475   7.714  19.647  0.00  0.00    +0.000 HD
BRANCH   2   6
ATOM      6  C   UNL     1       2.035   9.521  17.925  0.00  0.00    +0.000 C 
BRANCH   6   7
ATOM      7  C   UNL     1       0.658   9.607  18.572  0.00  0.00    +0.000 C 
BRANCH   7   8
ATOM      8  C   UNL     1       0.174  11.052  18.698  0.00  0.00    +0.000 C 
BRANCH   8   9
ATOM      9  C   UNL     1      -1.337  11.130  18.502  0.00  0.00    +0.000 C 
BRANCH   9  10
ATOM     10  C   UNL     1      -1.883   9.821  17.940  0.00  0.00    +0.000 C 
BRANCH  10  11
ATOM     11  C   UNL     1      -3.004  10.076  16.944  0.00  0.00    +0.000 C 
BRANCH  11  12
ATOM     12  C   UNL     1      -2.619   9.567  15.555  0.00  0.00    +0.000 C 
BRANCH  12  13
ATOM     13  C   UNL     1      -3.278  10.398  14.459  0.00  0.00    +0.000 C 
BRANCH  13  14
ATOM     14  C   UNL     1      -3.503   9.557  13.206  0.00  0.00    +0.000 C 
BRANCH  14  16
ATOM     15  C   UNL     1      -5.708   9.133  12.074  0.00  0.00    +0.000 C 
ATOM     16  C   UNL     1      -4.608  10.149  12.333  0.00  0.00    +0.000 C 
ENDBRANCH  14  16
ENDBRANCH  13  14
ENDBRANCH  12  13
ENDBRANCH  11  12
ENDBRANCH  10  11
ENDBRANCH   9  10
ENDBRANCH   8   9
ENDBRANCH   7   8
ENDBRANCH   6   7
ENDBRANCH   2   6
ENDBRANCH   1   4
BRANCH   1  17
ATOM     17  C   UNL     1       2.276   5.183  17.800  0.00  0.00    +0.000 C 
BRANCH  17  18
ATOM     18  C   UNL     1       1.198   4.104  17.911  0.00  0.00    +0.000 C 
BRANCH  18  19
ATOM     19  C   UNL     1       1.657   2.862  18.677  0.00  0.00    +0.000 C 
BRANCH  19  20
ATOM     20  C   UNL     1       0.729   2.646  19.876  0.00  0.00    +0.000 C 
BRANCH  20  21
ATOM     21  C   UNL     1       1.318   3.157  21.186  0.00  0.00    +0.000 C 
ATOM     22  C   UNL     1       2.763   2.703  21.334  0.00  0.00    +0.000 C 
ENDBRANCH  20  21
ENDBRANCH  19  20
ENDBRANCH  18  19
ENDBRANCH  17  18
ENDBRANCH   1  17
BRANCH   1  23
ATOM     23  C   UNL     1       3.980   5.789  19.644  0.00  0.00    +0.000 C 
BRANCH  23  24
ATOM     24  O   UNL     1       4.759   4.840  18.903  0.00  0.00    +0.000 OA
BRANCH  24  25
ATOM     25  P   UNL     1       6.081   5.519  18.020  0.00  0.00    +0.000 P 
ATOM     26  O   UNL     1       7.082   4.665  18.823  0.00  0.00    +0.000 OA
BRANCH  25  27
ATOM     27  O   UNL     1       7.406   6.198  17.136  0.00  0.00    +0.000 OA
ATOM     28  C   UNL     1       7.721   7.516  17.543  0.00  0.00    +0.000 C 
ENDBRANCH  25  27
BRANCH  25  29
ATOM     29  C   UNL     1       5.645   4.500  16.478  0.00  0.00    +0.000 C 
BRANCH  29  30
ATOM     30  C   UNL     1       6.026   5.134  15.141  0.00  0.00    +0.000 C 
BRANCH  30  31
ATOM     31  C   UNL     1       6.407   4.140  14.040  0.00  0.00    +0.000 C 
ATOM     32  C   UNL     1       7.291   4.807  12.989  0.00  0.00    +0.000 C 
ENDBRANCH  30  31
ENDBRANCH  29  30
ENDBRANCH  25  29
ENDBRANCH  24  25
ENDBRANCH  23  24
ENDBRANCH   1  23
TORSDOF 23
ENDMDL
MODEL 6
REMARK VINA RESULT:      -5.8      3.760      9.544
REMARK  Name = 
REMARK  27 active torsions:
REMARK  status: ('A' for Active; 'I' for Inactive)
REMARK    1  A    between atoms: C_1  and  C_2
REMARK    2  A    between atoms: C_2  and  C_3
REMARK    3  A    between atoms: C_3  and  C_4
REMARK    4  A    between atoms: C_4  and  C_5
REMARK    5  A    between atoms: C_5  and  C_6
REMARK    6  A    between atoms: C_6  and  C_7
REMARK    7  A    between atoms: C_7  and  C_8
REMARK    8  A    between atoms: C_8  and  C_9
REMARK    9  A    between atoms: C_9  and  C_10
REMARK   10  A    between atoms: C_10  and  C_11
REMARK   11  A    between atoms: C_11  and  C_12
REMARK   12  A    between atoms: N_14  and  C_15
REMARK   13  A    between atoms: C_15  and  C_16
REMARK   14  A    between atoms: C_15  and  C_22
REMARK   15  A    between atoms: C_16  and  C_17
REMARK   16  A    between atoms: C_17  and  C_18
REMARK   17  A    between atoms: C_18  and  C_19
REMARK   18  A    between atoms: C_19  and  C_20
REMARK   19  A    between atoms: C_20  and  C_21
REMARK   20  A    between atoms: C_22  and  O_23
REMARK   21  A    between atoms: O_23  and  P_24
REMARK   22  A    between atoms: P_24  and  C_26
REMARK   23  A    between atoms: P_24  and  O_30
REMARK   24  A    between atoms: C_26  and  C_27
REMARK   25  A    between atoms: C_27  and  C_28
REMARK   26  A    between atoms: C_28  and  C_29
REMARK   27  A    between atoms: O_30  and  C_31
REMARK                            x       y       z     vdW  Elec       q    Type
REMARK                         _______ _______ _______ _____ _____    ______ ____
ROOT
ATOM      1  C   UNL     1       2.150   7.345  19.636  0.00  0.00    +0.000 C 
ENDROOT
BRANCH   1   4
ATOM      2  C   UNL     1       1.745   4.992  20.350  0.00  0.00    +0.000 C 
ATOM      3  O   UNL     1       2.763   4.939  21.033  0.00  0.00    +0.000 OA
ATOM      4  N   UNL     1       1.393   6.091  19.603  0.00  0.00    +0.000 N 
ATOM      5  H   UNL     1       0.549   6.055  19.045  0.00  0.00    +0.000 HD
BRANCH   2   6
ATOM      6  C   UNL     1       0.804   3.813  20.251  0.00  0.00    +0.000 C 
BRANCH   6   7
ATOM      7  C   UNL     1       1.490   2.577  19.684  0.00  0.00    +0.000 C 
BRANCH   7   8
ATOM      8  C   UNL     1       1.837   2.743  18.204  0.00  0.00    +0.000 C 
BRANCH   8   9
ATOM      9  C   UNL     1       3.133   2.010  17.873  0.00  0.00    +0.000 C 
BRANCH   9  10
ATOM     10  C   UNL     1       4.310   2.980  17.809  0.00  0.00    +0.000 C 
BRANCH  10  11
ATOM     11  C   UNL     1       4.410   3.633  16.439  0.00  0.00    +0.000 C 
BRANCH  11  12
ATOM     12  C   UNL     1       5.849   3.592  15.926  0.00  0.00    +0.000 C 
BRANCH  12  13
ATOM     13  C   UNL     1       5.907   3.854  14.424  0.00  0.00    +0.000 C 
BRANCH  13  14
ATOM     14  C   UNL     1       6.975   4.895  14.099  0.00  0.00    +0.000 C 
BRANCH  14  16
ATOM     15  C   UNL     1       6.755   3.618  11.944  0.00  0.00    +0.000 C 
ATOM     16  C   UNL     1       7.478   4.743  12.665  0.00  0.00    +0.000 C 
ENDBRANCH  14  16
ENDBRANCH  13  14
ENDBRANCH  12  13
ENDBRANCH  11  12
ENDBRANCH  10  11
ENDBRANCH   9  10
ENDBRANCH   8   9
ENDBRANCH   7   8
ENDBRANCH   6   7
ENDBRANCH   2   6
ENDBRANCH   1   4
BRANCH   1  17
ATOM     17  C   UNL     1       2.785   7.596  18.251  0.00  0.00    +0.000 C 
BRANCH  17  18
ATOM     18  C   UNL     1       3.793   6.516  17.858  0.00  0.00    +0.000 C 
BRANCH  18  19
ATOM     19  C   UNL     1       4.857   7.007  16.874  0.00  0.00    +0.000 C 
BRANCH  19  20
ATOM     20  C   UNL     1       6.109   7.412  17.657  0.00  0.00    +0.000 C 
BRANCH  20  21
ATOM     21  C   UNL     1       7.320   6.540  17.340  0.00  0.00    +0.000 C 
ATOM     22  C   UNL     1       7.642   5.628  18.516  0.00  0.00    +0.000 C 
ENDBRANCH  20  21
ENDBRANCH  19  20
ENDBRANCH  18  19
ENDBRANCH  17  18
ENDBRANCH   1  17
BRANCH   1  23
ATOM     23  C   UNL     1       1.262   8.518  20.122  0.00  0.00    +0.000 C 
BRANCH  23  24
ATOM     24  O   UNL     1       0.582   8.244  21.354  0.00  0.00    +0.000 OA
BRANCH  24  25
ATOM     25  P   UNL     1       0.118   9.646  22.255  0.00  0.00    +0.000 P 
ATOM     26  O   UNL     1       1.493   9.680  22.948  0.00  0.00    +0.000 OA
BRANCH  25  27
ATOM     27  O   UNL     1      -0.346  11.048  23.157  0.00  0.00    +0.000 OA
ATOM     28  C   UNL     1      -1.748  11.235  23.202  0.00  0.00    +0.000 C 
ENDBRANCH  25  27
BRANCH  25  29
ATOM     29  C   UNL     1       0.278  10.751  20.719  0.00  0.00    +0.000 C 
BRANCH  29  30
ATOM     30  C   UNL     1       0.737  12.184  20.985  0.00  0.00    +0.000 C 
BRANCH  30  31
ATOM     31  C   UNL     1       1.857  12.685  20.069  0.00  0.00    +0.000 C 
ATOM     32  C   UNL     1       1.708  12.108  18.664  0.00  0.00    +0.000 C 
ENDBRANCH  30  31
ENDBRANCH  29  30
ENDBRANCH  25  29
ENDBRANCH  24  25
ENDBRANCH  23  24
ENDBRANCH   1  23
TORSDOF 23
ENDMDL
MODEL 7
REMARK VINA RESULT:      -5.8      5.226      8.191
REMARK  Name = 
REMARK  27 active torsions:
REMARK  status: ('A' for Active; 'I' for Inactive)
REMARK    1  A    between atoms: C_1  and  C_2
REMARK    2  A    between atoms: C_2  and  C_3
REMARK    3  A    between atoms: C_3  and  C_4
REMARK    4  A    between atoms: C_4  and  C_5
REMARK    5  A    between atoms: C_5  and  C_6
REMARK    6  A    between atoms: C_6  and  C_7
REMARK    7  A    between atoms: C_7  and  C_8
REMARK    8  A    between atoms: C_8  and  C_9
REMARK    9  A    between atoms: C_9  and  C_10
REMARK   10  A    between atoms: C_10  and  C_11
REMARK   11  A    between atoms: C_11  and  C_12
REMARK   12  A    between atoms: N_14  and  C_15
REMARK   13  A    between atoms: C_15  and  C_16
REMARK   14  A    between atoms: C_15  and  C_22
REMARK   15  A    between atoms: C_16  and  C_17
REMARK   16  A    between atoms: C_17  and  C_18
REMARK   17  A    between atoms: C_18  and  C_19
REMARK   18  A    between atoms: C_19  and  C_20
REMARK   19  A    between atoms: C_20  and  C_21
REMARK   20  A    between atoms: C_22  and  O_23
REMARK   21  A    between atoms: O_23  and  P_24
REMARK   22  A    between atoms: P_24  and  C_26
REMARK   23  A    between atoms: P_24  and  O_30
REMARK   24  A    between atoms: C_26  and  C_27
REMARK   25  A    between atoms: C_27  and  C_28
REMARK   26  A    between atoms: C_28  and  C_29
REMARK   27  A    between atoms: O_30  and  C_31
REMARK                            x       y       z     vdW  Elec       q    Type
REMARK                         _______ _______ _______ _____ _____    ______ ____
ROOT
ATOM      1  C   UNL     1       4.806   5.915  16.839  0.00  0.00    +0.000 C 
ENDROOT
BRANCH   1   4
ATOM      2  C   UNL     1       7.089   6.821  17.258  0.00  0.00    +0.000 C 
ATOM      3  O   UNL     1       7.513   6.484  16.156  0.00  0.00    +0.000 OA
ATOM      4  N   UNL     1       5.815   6.547  17.693  0.00  0.00    +0.000 N 
ATOM      5  H   UNL     1       5.542   6.836  18.624  0.00  0.00    +0.000 HD
BRANCH   2   6
ATOM      6  C   UNL     1       7.970   7.547  18.248  0.00  0.00    +0.000 C 
BRANCH   6   7
ATOM      7  C   UNL     1       8.641   8.768  17.633  0.00  0.00    +0.000 C 
BRANCH   7   8
ATOM      8  C   UNL     1       8.352  10.041  18.430  0.00  0.00    +0.000 C 
BRANCH   8   9
ATOM      9  C   UNL     1       9.595  10.925  18.495  0.00  0.00    +0.000 C 
BRANCH   9  10
ATOM     10  C   UNL     1       9.321  12.299  17.891  0.00  0.00    +0.000 C 
BRANCH  10  11
ATOM     11  C   UNL     1       7.886  12.406  17.396  0.00  0.00    +0.000 C 
BRANCH  11  12
ATOM     12  C   UNL     1       7.394  13.850  17.476  0.00  0.00    +0.000 C 
BRANCH  12  13
ATOM     13  C   UNL     1       7.951  14.557  18.707  0.00  0.00    +0.000 C 
BRANCH  13  14
ATOM     14  C   UNL     1       6.820  15.038  19.612  0.00  0.00    +0.000 C 
BRANCH  14  16
ATOM     15  C   UNL     1       4.755  16.472  19.664  0.00  0.00    +0.000 C 
ATOM     16  C   UNL     1       5.669  15.623  18.796  0.00  0.00    +0.000 C 
ENDBRANCH  14  16
ENDBRANCH  13  14
ENDBRANCH  12  13
ENDBRANCH  11  12
ENDBRANCH  10  11
ENDBRANCH   9  10
ENDBRANCH   8   9
ENDBRANCH   7   8
ENDBRANCH   6   7
ENDBRANCH   2   6
ENDBRANCH   1   4
BRANCH   1  17
ATOM     17  C   UNL     1       5.380   4.609  16.248  0.00  0.00    +0.000 C 
BRANCH  17  18
ATOM     18  C   UNL     1       5.284   4.559  14.722  0.00  0.00    +0.000 C 
BRANCH  18  19
ATOM     19  C   UNL     1       6.295   3.606  14.081  0.00  0.00    +0.000 C 
BRANCH  19  20
ATOM     20  C   UNL     1       6.261   3.796  12.561  0.00  0.00    +0.000 C 
BRANCH  20  21
ATOM     21  C   UNL     1       5.515   2.680  11.837  0.00  0.00    +0.000 C 
ATOM     22  C   UNL     1       4.182   3.189  11.307  0.00  0.00    +0.000 C 
ENDBRANCH  20  21
ENDBRANCH  19  20
ENDBRANCH  18  19
ENDBRANCH  17  18
ENDBRANCH   1  17
BRANCH   1  23
ATOM     23  C   UNL     1       3.478   5.703  17.611  0.00  0.00    +0.000 C 
BRANCH  23  24
ATOM     24  O   UNL     1       3.581   5.995  19.011  0.00  0.00    +0.000 OA
BRANCH  24  25
ATOM     25  P   UNL     1       2.534   5.066  20.025  0.00  0.00    +0.000 P 
ATOM     26  O   UNL     1       1.785   6.342  20.455  0.00  0.00    +0.000 OA
BRANCH  25  27
ATOM     27  O   UNL     1       1.485   4.137  21.041  0.00  0.00    +0.000 OA
ATOM     28  C   UNL     1       2.172   3.147  21.783  0.00  0.00    +0.000 C 
ENDBRANCH  25  27
BRANCH  25  29
ATOM     29  C   UNL     1       1.592   4.388  18.523  0.00  0.00    +0.000 C 
BRANCH  29  30
ATOM     30  C   UNL     1       1.428   2.870  18.479  0.00  0.00    +0.000 C 
BRANCH  30  31
ATOM     31  C   UNL     1       2.464   2.132  17.626  0.00  0.00    +0.000 C 
ATOM     32  C   UNL     1       3.584   1.570  18.498  0.00  0.00    +0.000 C 
ENDBRANCH  30  31
ENDBRANCH  29  30
ENDBRANCH  25  29
ENDBRANCH  24  25
ENDBRANCH  23  24
ENDBRANCH   1  23
TORSDOF 23
ENDMDL
MODEL 8
REMARK VINA RESULT:      -5.8      2.074      3.034
REMARK  Name = 
REMARK  27 active torsions:
REMARK  status: ('A' for Active; 'I' for Inactive)
REMARK    1  A    between atoms: C_1  and  C_2
REMARK    2  A    between atoms: C_2  and  C_3
REMARK    3  A    between atoms: C_3  and  C_4
REMARK    4  A    between atoms: C_4  and  C_5
REMARK    5  A    between atoms: C_5  and  C_6
REMARK    6  A    between atoms: C_6  and  C_7
REMARK    7  A    between atoms: C_7  and  C_8
REMARK    8  A    between atoms: C_8  and  C_9
REMARK    9  A    between atoms: C_9  and  C_10
REMARK   10  A    between atoms: C_10  and  C_11
REMARK   11  A    between atoms: C_11  and  C_12
REMARK   12  A    between atoms: N_14  and  C_15
REMARK   13  A    between atoms: C_15  and  C_16
REMARK   14  A    between atoms: C_15  and  C_22
REMARK   15  A    between atoms: C_16  and  C_17
REMARK   16  A    between atoms: C_17  and  C_18
REMARK   17  A    between atoms: C_18  and  C_19
REMARK   18  A    between atoms: C_19  and  C_20
REMARK   19  A    between atoms: C_20  and  C_21
REMARK   20  A    between atoms: C_22  and  O_23
REMARK   21  A    between atoms: O_23  and  P_24
REMARK   22  A    between atoms: P_24  and  C_26
REMARK   23  A    between atoms: P_24  and  O_30
REMARK   24  A    between atoms: C_26  and  C_27
REMARK   25  A    between atoms: C_27  and  C_28
REMARK   26  A    between atoms: C_28  and  C_29
REMARK   27  A    between atoms: O_30  and  C_31
REMARK                            x       y       z     vdW  Elec       q    Type
REMARK                         _______ _______ _______ _____ _____    ______ ____
ROOT
ATOM      1  C   UNL     1       3.134   5.697  19.399  0.00  0.00    +0.000 C 
ENDROOT
BRANCH   1   4
ATOM      2  C   UNL     1       1.535   7.155  20.636  0.00  0.00    +0.000 C 
ATOM      3  O   UNL     1       0.792   6.225  20.934  0.00  0.00    +0.000 OA
ATOM      4  N   UNL     1       2.659   7.004  19.859  0.00  0.00    +0.000 N 
ATOM      5  H   UNL     1       3.214   7.822  19.636  0.00  0.00    +0.000 HD
BRANCH   2   6
ATOM      6  C   UNL     1       1.241   8.568  21.084  0.00  0.00    +0.000 C 
BRANCH   6   7
ATOM      7  C   UNL     1      -0.131   8.692  21.732  0.00  0.00    +0.000 C 
BRANCH   7   8
ATOM      8  C   UNL     1      -0.233   9.932  22.622  0.00  0.00    +0.000 C 
BRANCH   8   9
ATOM      9  C   UNL     1      -1.071  11.011  21.943  0.00  0.00    +0.000 C 
BRANCH   9  10
ATOM     10  C   UNL     1      -0.552  12.404  22.287  0.00  0.00    +0.000 C 
BRANCH  10  11
ATOM     11  C   UNL     1      -0.145  13.164  21.034  0.00  0.00    +0.000 C 
BRANCH  11  12
ATOM     12  C   UNL     1      -1.256  13.113  19.986  0.00  0.00    +0.000 C 
BRANCH  12  13
ATOM     13  C   UNL     1      -0.721  12.654  18.634  0.00  0.00    +0.000 C 
BRANCH  13  14
ATOM     14  C   UNL     1      -1.791  11.890  17.860  0.00  0.00    +0.000 C 
BRANCH  14  16
ATOM     15  C   UNL     1      -3.008   9.703  17.618  0.00  0.00    +0.000 C 
ATOM     16  C   UNL     1      -1.892  10.442  18.336  0.00  0.00    +0.000 C 
ENDBRANCH  14  16
ENDBRANCH  13  14
ENDBRANCH  12  13
ENDBRANCH  11  12
ENDBRANCH  10  11
ENDBRANCH   9  10
ENDBRANCH   8   9
ENDBRANCH   7   8
ENDBRANCH   6   7
ENDBRANCH   2   6
ENDBRANCH   1   4
BRANCH   1  17
ATOM     17  C   UNL     1       2.488   5.369  18.035  0.00  0.00    +0.000 C 
BRANCH  17  18
ATOM     18  C   UNL     1       1.778   4.015  18.027  0.00  0.00    +0.000 C 
BRANCH  18  19
ATOM     19  C   UNL     1       2.390   3.014  17.045  0.00  0.00    +0.000 C 
BRANCH  19  20
ATOM     20  C   UNL     1       3.752   2.562  17.580  0.00  0.00    +0.000 C 
BRANCH  20  21
ATOM     21  C   UNL     1       3.643   1.509  18.677  0.00  0.00    +0.000 C 
ATOM     22  C   UNL     1       4.305   2.002  19.956  0.00  0.00    +0.000 C 
ENDBRANCH  20  21
ENDBRANCH  19  20
ENDBRANCH  18  19
ENDBRANCH  17  18
ENDBRANCH   1  17
BRANCH   1  23
ATOM     23  C   UNL     1       4.682   5.646  19.368  0.00  0.00    +0.000 C 
BRANCH  23  24
ATOM     24  O   UNL     1       5.213   5.227  18.104  0.00  0.00    +0.000 OA
BRANCH  24  25
ATOM     25  P   UNL     1       6.508   6.201  17.501  0.00  0.00    +0.000 P 
ATOM     26  O   UNL     1       7.126   6.288  18.909  0.00  0.00    +0.000 OA
BRANCH  25  27
ATOM     27  O   UNL     1       7.804   7.177  16.898  0.00  0.00    +0.000 OA
ATOM     28  C   UNL     1       8.053   8.317  17.698  0.00  0.00    +0.000 C 
ENDBRANCH  25  27
BRANCH  25  29
ATOM     29  C   UNL     1       7.318   4.701  16.665  0.00  0.00    +0.000 C 
BRANCH  29  30
ATOM     30  C   UNL     1       7.032   4.545  15.172  0.00  0.00    +0.000 C 
BRANCH  30  31
ATOM     31  C   UNL     1       5.557   4.335  14.815  0.00  0.00    +0.000 C 
ATOM     32  C   UNL     1       5.409   3.889  13.363  0.00  0.00    +0.000 C 
ENDBRANCH  30  31
ENDBRANCH  29  30
ENDBRANCH  25  29
ENDBRANCH  24  25
ENDBRANCH  23  24
ENDBRANCH   1  23
TORSDOF 23
ENDMDL
MODEL 9
REMARK VINA RESULT:      -5.7      2.600      3.748
REMARK  Name = 
REMARK  27 active torsions:
REMARK  status: ('A' for Active; 'I' for Inactive)
REMARK    1  A    between atoms: C_1  and  C_2
REMARK    2  A    between atoms: C_2  and  C_3
REMARK    3  A    between atoms: C_3  and  C_4
REMARK    4  A    between atoms: C_4  and  C_5
REMARK    5  A    between atoms: C_5  and  C_6
REMARK    6  A    between atoms: C_6  and  C_7
REMARK    7  A    between atoms: C_7  and  C_8
REMARK    8  A    between atoms: C_8  and  C_9
REMARK    9  A    between atoms: C_9  and  C_10
REMARK   10  A    between atoms: C_10  and  C_11
REMARK   11  A    between atoms: C_11  and  C_12
REMARK   12  A    between atoms: N_14  and  C_15
REMARK   13  A    between atoms: C_15  and  C_16
REMARK   14  A    between atoms: C_15  and  C_22
REMARK   15  A    between atoms: C_16  and  C_17
REMARK   16  A    between atoms: C_17  and  C_18
REMARK   17  A    between atoms: C_18  and  C_19
REMARK   18  A    between atoms: C_19  and  C_20
REMARK   19  A    between atoms: C_20  and  C_21
REMARK   20  A    between atoms: C_22  and  O_23
REMARK   21  A    between atoms: O_23  and  P_24
REMARK   22  A    between atoms: P_24  and  C_26
REMARK   23  A    between atoms: P_24  and  O_30
REMARK   24  A    between atoms: C_26  and  C_27
REMARK   25  A    between atoms: C_27  and  C_28
REMARK   26  A    between atoms: C_28  and  C_29
REMARK   27  A    between atoms: O_30  and  C_31
REMARK                            x       y       z     vdW  Elec       q    Type
REMARK                         _______ _______ _______ _____ _____    ______ ____
ROOT
ATOM      1  C   UNL     1       2.917   6.872  18.607  0.00  0.00    +0.000 C 
ENDROOT
BRANCH   1   4
ATOM      2  C   UNL     1       1.451   8.837  19.058  0.00  0.00    +0.000 C 
ATOM      3  O   UNL     1       1.536   8.722  20.278  0.00  0.00    +0.000 OA
ATOM      4  N   UNL     1       2.041   7.965  18.175  0.00  0.00    +0.000 N 
ATOM      5  H   UNL     1       1.909   8.109  17.182  0.00  0.00    +0.000 HD
BRANCH   2   6
ATOM      6  C   UNL     1       0.645   9.950  18.430  0.00  0.00    +0.000 C 
BRANCH   6   7
ATOM      7  C   UNL     1      -0.515  10.389  19.314  0.00  0.00    +0.000 C 
BRANCH   7   8
ATOM      8  C   UNL     1      -0.095  11.466  20.315  0.00  0.00    +0.000 C 
BRANCH   8   9
ATOM      9  C   UNL     1      -1.301  11.957  21.111  0.00  0.00    +0.000 C 
BRANCH   9  10
ATOM     10  C   UNL     1      -0.931  13.152  21.984  0.00  0.00    +0.000 C 
BRANCH  10  11
ATOM     11  C   UNL     1      -1.697  13.130  23.298  0.00  0.00    +0.000 C 
BRANCH  11  12
ATOM     12  C   UNL     1      -2.864  12.146  23.226  0.00  0.00    +0.000 C 
BRANCH  12  13
ATOM     13  C   UNL     1      -3.936  12.484  24.257  0.00  0.00    +0.000 C 
BRANCH  13  14
ATOM     14  C   UNL     1      -4.434  13.914  24.070  0.00  0.00    +0.000 C 
BRANCH  14  16
ATOM     15  C   UNL     1      -6.683  12.790  24.011  0.00  0.00    +0.000 C 
ATOM     16  C   UNL     1      -5.842  13.938  23.478  0.00  0.00    +0.000 C 
ENDBRANCH  14  16
ENDBRANCH  13  14
ENDBRANCH  12  13
ENDBRANCH  11  12
ENDBRANCH  10  11
ENDBRANCH   9  10
ENDBRANCH   8   9
ENDBRANCH   7   8
ENDBRANCH   6   7
ENDBRANCH   2   6
ENDBRANCH   1   4
BRANCH   1  17
ATOM     17  C   UNL     1       2.062   5.625  18.921  0.00  0.00    +0.000 C 
BRANCH  17  18
ATOM     18  C   UNL     1       1.990   5.320  20.418  0.00  0.00    +0.000 C 
BRANCH  18  19
ATOM     19  C   UNL     1       2.013   3.824  20.735  0.00  0.00    +0.000 C 
BRANCH  19  20
ATOM     20  C   UNL     1       0.924   3.124  19.916  0.00  0.00    +0.000 C 
BRANCH  20  21
ATOM     21  C   UNL     1       1.431   1.888  19.181  0.00  0.00    +0.000 C 
ATOM     22  C   UNL     1       2.904   2.045  18.828  0.00  0.00    +0.000 C 
ENDBRANCH  20  21
ENDBRANCH  19  20
ENDBRANCH  18  19
ENDBRANCH  17  18
ENDBRANCH   1  17
BRANCH   1  23
ATOM     23  C   UNL     1       4.027   6.602  17.560  0.00  0.00    +0.000 C 
BRANCH  23  24
ATOM     24  O   UNL     1       4.954   5.585  17.963  0.00  0.00    +0.000 OA
BRANCH  24  25
ATOM     25  P   UNL     1       5.517   4.568  16.683  0.00  0.00    +0.000 P 
ATOM     26  O   UNL     1       5.169   5.650  15.643  0.00  0.00    +0.000 OA
BRANCH  25  27
ATOM     27  O   UNL     1       6.080   3.550  15.401  0.00  0.00    +0.000 OA
ATOM     28  C   UNL     1       6.435   4.275  14.238  0.00  0.00    +0.000 C 
ENDBRANCH  25  27
BRANCH  25  29
ATOM     29  C   UNL     1       7.327   4.870  17.167  0.00  0.00    +0.000 C 
BRANCH  29  30
ATOM     30  C   UNL     1       7.551   5.386  18.588  0.00  0.00    +0.000 C 
BRANCH  30  31
ATOM     31  C   UNL     1       8.126   6.803  18.680  0.00  0.00    +0.000 C 
ATOM     32  C   UNL     1       7.689   7.644  17.483  0.00  0.00    +0.000 C 
ENDBRANCH  30  31
ENDBRANCH  29  30
ENDBRANCH  25  29
ENDBRANCH  24  25
ENDBRANCH  23  24
ENDBRANCH   1  23
TORSDOF 23
ENDMDL
