MODEL 1
REMARK VINA RESULT:      -6.6      0.000      0.000
REMARK  Name = 
REMARK  3 active torsions:
REMARK  status: ('A' for Active; 'I' for Inactive)
REMARK    1  A    between atoms: C_1  and  O_2
REMARK    2  A    between atoms: O_2  and  C_3
REMARK    3  A    between atoms: C_7  and  N_8
REMARK                            x       y       z     vdW  Elec       q    Type
REMARK                         _______ _______ _______ _____ _____    ______ ____
ROOT
ATOM      1  N   UNL     1       5.551   4.110  16.001  0.00  0.00    +0.000 N 
ATOM      2  C   UNL     1       4.874   5.165  16.561  0.00  0.00    +0.000 C 
ATOM      3  O   UNL     1       4.775   6.265  16.026  0.00  0.00    +0.000 OA
ATOM      4  N   UNL     1       4.257   4.883  17.784  0.00  0.00    +0.000 N 
ATOM      5  C   UNL     1       4.402   3.645  18.559  0.00  0.00    +0.000 C 
ATOM      6  C   UNL     1       3.058   3.035  18.901  0.00  0.00    +0.000 C 
ATOM      7  S   UNL     1       2.091   4.189  19.839  0.00  0.00    +0.000 S 
ATOM      8  O   UNL     1       0.725   3.705  19.854  0.00  0.00    +0.000 OA
ATOM      9  O   UNL     1       2.786   4.465  21.077  0.00  0.00    +0.000 OA
ATOM     10  C   UNL     1       2.142   5.646  18.826  0.00  0.00    +0.000 C 
ATOM     11  C   UNL     1       3.578   5.985  18.482  0.00  0.00    +0.000 C 
ATOM     12  H   UNL     1       5.100   3.215  16.108  0.00  0.00    +0.000 HD
ENDROOT
BRANCH   1  17
ATOM     13  C   UNL     1       6.011   3.411  12.574  0.00  0.00    +0.000 A 
ATOM     14  C   UNL     1       7.085   4.189  12.175  0.00  0.00    +0.000 A 
ATOM     15  C   UNL     1       7.711   4.981  13.132  0.00  0.00    +0.000 A 
ATOM     16  C   UNL     1       7.212   4.999  14.434  0.00  0.00    +0.000 A 
ATOM     17  C   UNL     1       6.129   4.181  14.732  0.00  0.00    +0.000 A 
ATOM     18  N   UNL     1       5.556   3.355  13.840  0.00  0.00    +0.000 NA
BRANCH  13  20
ATOM     19  C   UNL     1       4.087   3.175  11.275  0.00  0.00    +0.000 C 
ATOM     20  O   UNL     1       5.380   2.668  11.595  0.00  0.00    +0.000 OA
ENDBRANCH  13  20
ENDBRANCH   1  17
TORSDOF 2
ENDMDL
MODEL 2
REMARK VINA RESULT:      -6.5      4.986      7.226
REMARK  Name = 
REMARK  3 active torsions:
REMARK  status: ('A' for Active; 'I' for Inactive)
REMARK    1  A    between atoms: C_1  and  O_2
REMARK    2  A    between atoms: O_2  and  C_3
REMARK    3  A    between atoms: C_7  and  N_8
REMARK                            x       y       z     vdW  Elec       q    Type
REMARK                         _______ _______ _______ _____ _____    ______ ____
ROOT
ATOM      1  N   UNL     1       1.859   6.486  20.866  0.00  0.00    +0.000 N 
ATOM      2  C   UNL     1       1.782   7.514  19.958  0.00  0.00    +0.000 C 
ATOM      3  O   UNL     1       1.975   7.367  18.754  0.00  0.00    +0.000 OA
ATOM      4  N   UNL     1       1.422   8.751  20.502  0.00  0.00    +0.000 N 
ATOM      5  C   UNL     1       1.277   9.057  21.930  0.00  0.00    +0.000 C 
ATOM      6  C   UNL     1      -0.071   9.676  22.237  0.00  0.00    +0.000 C 
ATOM      7  S   UNL     1      -0.278  11.172  21.307  0.00  0.00    +0.000 S 
ATOM      8  O   UNL     1      -1.678  11.540  21.375  0.00  0.00    +0.000 OA
ATOM      9  O   UNL     1       0.748  12.106  21.712  0.00  0.00    +0.000 OA
ATOM     10  C   UNL     1       0.067  10.641  19.647  0.00  0.00    +0.000 C 
ATOM     11  C   UNL     1       1.395   9.915  19.604  0.00  0.00    +0.000 C 
ATOM     12  H   UNL     1       1.146   6.500  21.578  0.00  0.00    +0.000 HD
ENDROOT
BRANCH   1  17
ATOM     13  C   UNL     1       3.684   3.681  19.751  0.00  0.00    +0.000 A 
ATOM     14  C   UNL     1       2.778   2.634  19.719  0.00  0.00    +0.000 A 
ATOM     15  C   UNL     1       1.459   2.899  20.073  0.00  0.00    +0.000 A 
ATOM     16  C   UNL     1       1.109   4.184  20.486  0.00  0.00    +0.000 A 
ATOM     17  C   UNL     1       2.094   5.165  20.482  0.00  0.00    +0.000 A 
ATOM     18  N   UNL     1       3.357   4.946  20.075  0.00  0.00    +0.000 NA
BRANCH  13  20
ATOM     19  C   UNL     1       5.653   4.449  18.761  0.00  0.00    +0.000 C 
ATOM     20  O   UNL     1       4.996   3.381  19.439  0.00  0.00    +0.000 OA
ENDBRANCH  13  20
ENDBRANCH   1  17
TORSDOF 2
ENDMDL
MODEL 3
REMARK VINA RESULT:      -6.5      4.717      7.876
REMARK  Name = 
REMARK  3 active torsions:
REMARK  status: ('A' for Active; 'I' for Inactive)
REMARK    1  A    between atoms: C_1  and  O_2
REMARK    2  A    between atoms: O_2  and  C_3
REMARK    3  A    between atoms: C_7  and  N_8
REMARK                            x       y       z     vdW  Elec       q    Type
REMARK                         _______ _______ _______ _____ _____    ______ ____
ROOT
ATOM      1  N   UNL     1       2.520   7.165  19.751  0.00  0.00    +0.000 N 
ATOM      2  C   UNL     1       2.032   6.036  20.362  0.00  0.00    +0.000 C 
ATOM      3  O   UNL     1       0.956   5.998  20.951  0.00  0.00    +0.000 OA
ATOM      4  N   UNL     1       2.840   4.902  20.229  0.00  0.00    +0.000 N 
ATOM      5  C   UNL     1       4.185   4.864  19.644  0.00  0.00    +0.000 C 
ATOM      6  C   UNL     1       4.294   3.819  18.553  0.00  0.00    +0.000 C 
ATOM      7  S   UNL     1       3.908   2.216  19.208  0.00  0.00    +0.000 S 
ATOM      8  O   UNL     1       3.702   1.322  18.086  0.00  0.00    +0.000 OA
ATOM      9  O   UNL     1       4.877   1.898  20.233  0.00  0.00    +0.000 OA
ATOM     10  C   UNL     1       2.335   2.488  19.985  0.00  0.00    +0.000 C 
ATOM     11  C   UNL     1       2.421   3.675  20.922  0.00  0.00    +0.000 C 
ATOM     12  H   UNL     1       2.965   7.003  18.862  0.00  0.00    +0.000 HD
ENDROOT
BRANCH   1  17
ATOM     13  C   UNL     1       0.776   9.998  20.925  0.00  0.00    +0.000 A 
ATOM     14  C   UNL     1       0.389  10.694  19.793  0.00  0.00    +0.000 A 
ATOM     15  C   UNL     1       0.717  10.158  18.551  0.00  0.00    +0.000 A 
ATOM     16  C   UNL     1       1.454   8.976  18.492  0.00  0.00    +0.000 A 
ATOM     17  C   UNL     1       1.793   8.355  19.687  0.00  0.00    +0.000 A 
ATOM     18  N   UNL     1       1.425   8.818  20.895  0.00  0.00    +0.000 NA
BRANCH  13  20
ATOM     19  C   UNL     1      -0.131   9.654  23.048  0.00  0.00    +0.000 C 
ATOM     20  O   UNL     1       0.478  10.574  22.144  0.00  0.00    +0.000 OA
ENDBRANCH  13  20
ENDBRANCH   1  17
TORSDOF 2
ENDMDL
MODEL 4
REMARK VINA RESULT:      -6.4      3.670      7.800
REMARK  Name = 
REMARK  3 active torsions:
REMARK  status: ('A' for Active; 'I' for Inactive)
REMARK    1  A    between atoms: C_1  and  O_2
REMARK    2  A    between atoms: O_2  and  C_3
REMARK    3  A    between atoms: C_7  and  N_8
REMARK                            x       y       z     vdW  Elec       q    Type
REMARK                         _______ _______ _______ _____ _____    ______ ____
ROOT
ATOM      1  N   UNL     1       3.419   7.585  18.465  0.00  0.00    +0.000 N 
ATOM      2  C   UNL     1       3.381   6.318  17.935  0.00  0.00    +0.000 C 
ATOM      3  O   UNL     1       2.341   5.696  17.744  0.00  0.00    +0.000 OA
ATOM      4  N   UNL     1       4.629   5.793  17.583  0.00  0.00    +0.000 N 
ATOM      5  C   UNL     1       5.934   6.403  17.867  0.00  0.00    +0.000 C 
ATOM      6  C   UNL     1       6.775   6.540  16.615  0.00  0.00    +0.000 C 
ATOM      7  S   UNL     1       7.035   4.945  15.882  0.00  0.00    +0.000 S 
ATOM      8  O   UNL     1       7.544   5.157  14.542  0.00  0.00    +0.000 OA
ATOM      9  O   UNL     1       7.762   4.124  16.825  0.00  0.00    +0.000 OA
ATOM     10  C   UNL     1       5.381   4.313  15.743  0.00  0.00    +0.000 C 
ATOM     11  C   UNL     1       4.677   4.412  17.081  0.00  0.00    +0.000 C 
ATOM     12  H   UNL     1       4.086   8.203  18.033  0.00  0.00    +0.000 HD
ENDROOT
BRANCH   1  17
ATOM     13  C   UNL     1       0.776   8.855  20.427  0.00  0.00    +0.000 A 
ATOM     14  C   UNL     1       0.029   9.652  19.576  0.00  0.00    +0.000 A 
ATOM     15  C   UNL     1       0.429   9.746  18.247  0.00  0.00    +0.000 A 
ATOM     16  C   UNL     1       1.581   9.078  17.833  0.00  0.00    +0.000 A 
ATOM     17  C   UNL     1       2.260   8.303  18.766  0.00  0.00    +0.000 A 
ATOM     18  N   UNL     1       1.850   8.143  20.036  0.00  0.00    +0.000 NA
BRANCH  13  20
ATOM     19  C   UNL     1      -0.362   9.968  22.133  0.00  0.00    +0.000 C 
ATOM     20  O   UNL     1       0.384   8.816  21.751  0.00  0.00    +0.000 OA
ENDBRANCH  13  20
ENDBRANCH   1  17
TORSDOF 2
ENDMDL
MODEL 5
REMARK VINA RESULT:      -6.3      4.448      6.405
REMARK  Name = 
REMARK  3 active torsions:
REMARK  status: ('A' for Active; 'I' for Inactive)
REMARK    1  A    between atoms: C_1  and  O_2
REMARK    2  A    between atoms: O_2  and  C_3
REMARK    3  A    between atoms: C_7  and  N_8
REMARK                            x       y       z     vdW  Elec       q    Type
REMARK                         _______ _______ _______ _____ _____    ______ ____
ROOT
ATOM      1  N   UNL     1       2.288   7.031  19.245  0.00  0.00    +0.000 N 
ATOM      2  C   UNL     1       2.210   8.198  18.526  0.00  0.00    +0.000 C 
ATOM      3  O   UNL     1       2.631   8.314  17.379  0.00  0.00    +0.000 OA
ATOM      4  N   UNL     1       1.570   9.252  19.187  0.00  0.00    +0.000 N 
ATOM      5  C   UNL     1       1.131   9.253  20.588  0.00  0.00    +0.000 C 
ATOM      6  C   UNL     1      -0.330   9.630  20.718  0.00  0.00    +0.000 C 
ATOM      7  S   UNL     1      -0.604  11.242  20.029  0.00  0.00    +0.000 S 
ATOM      8  O   UNL     1      -2.035  11.415  19.876  0.00  0.00    +0.000 OA
ATOM      9  O   UNL     1       0.175  12.198  20.784  0.00  0.00    +0.000 OA
ATOM     10  C   UNL     1       0.104  11.092  18.408  0.00  0.00    +0.000 C 
ATOM     11  C   UNL     1       1.518  10.556  18.510  0.00  0.00    +0.000 C 
ATOM     12  H   UNL     1       1.469   6.818  19.792  0.00  0.00    +0.000 HD
ENDROOT
BRANCH   1  17
ATOM     13  C   UNL     1       4.650   4.515  18.510  0.00  0.00    +0.000 A 
ATOM     14  C   UNL     1       3.972   3.577  17.751  0.00  0.00    +0.000 A 
ATOM     15  C   UNL     1       2.637   3.823  17.446  0.00  0.00    +0.000 A 
ATOM     16  C   UNL     1       2.023   4.969  17.947  0.00  0.00    +0.000 A 
ATOM     17  C   UNL     1       2.792   5.849  18.700  0.00  0.00    +0.000 A 
ATOM     18  N   UNL     1       4.101   5.665  18.946  0.00  0.00    +0.000 NA
BRANCH  13  20
ATOM     19  C   UNL     1       6.882   4.685  17.852  0.00  0.00    +0.000 C 
ATOM     20  O   UNL     1       5.960   4.226  18.837  0.00  0.00    +0.000 OA
ENDBRANCH  13  20
ENDBRANCH   1  17
TORSDOF 2
ENDMDL
MODEL 6
REMARK VINA RESULT:      -6.3      4.184      6.004
REMARK  Name = 
REMARK  3 active torsions:
REMARK  status: ('A' for Active; 'I' for Inactive)
REMARK    1  A    between atoms: C_1  and  O_2
REMARK    2  A    between atoms: O_2  and  C_3
REMARK    3  A    between atoms: C_7  and  N_8
REMARK                            x       y       z     vdW  Elec       q    Type
REMARK                         _______ _______ _______ _____ _____    ______ ____
ROOT
ATOM      1  N   UNL     1       2.891   7.416  18.008  0.00  0.00    +0.000 N 
ATOM      2  C   UNL     1       2.363   7.393  19.275  0.00  0.00    +0.000 C 
ATOM      3  O   UNL     1       2.623   6.521  20.099  0.00  0.00    +0.000 OA
ATOM      4  N   UNL     1       1.529   8.473  19.582  0.00  0.00    +0.000 N 
ATOM      5  C   UNL     1       1.070   9.503  18.643  0.00  0.00    +0.000 C 
ATOM      6  C   UNL     1       1.364  10.899  19.152  0.00  0.00    +0.000 C 
ATOM      7  S   UNL     1       0.567  11.154  20.717  0.00  0.00    +0.000 S 
ATOM      8  O   UNL     1       1.136  12.348  21.308  0.00  0.00    +0.000 OA
ATOM      9  O   UNL     1      -0.861  11.037  20.525  0.00  0.00    +0.000 OA
ATOM     10  C   UNL     1       1.125   9.757  21.662  0.00  0.00    +0.000 C 
ATOM     11  C   UNL     1       0.866   8.478  20.894  0.00  0.00    +0.000 C 
ATOM     12  H   UNL     1       3.161   8.329  17.680  0.00  0.00    +0.000 HD
ENDROOT
BRANCH   1  17
ATOM     13  C   UNL     1       5.996   6.181  16.876  0.00  0.00    +0.000 A 
ATOM     14  C   UNL     1       5.824   4.816  16.727  0.00  0.00    +0.000 A 
ATOM     15  C   UNL     1       4.569   4.281  17.002  0.00  0.00    +0.000 A 
ATOM     16  C   UNL     1       3.554   5.122  17.456  0.00  0.00    +0.000 A 
ATOM     17  C   UNL     1       3.830   6.479  17.572  0.00  0.00    +0.000 A 
ATOM     18  N   UNL     1       5.014   7.026  17.243  0.00  0.00    +0.000 NA
BRANCH  13  20
ATOM     19  C   UNL     1       7.633   7.691  17.574  0.00  0.00    +0.000 C 
ATOM     20  O   UNL     1       7.263   6.680  16.640  0.00  0.00    +0.000 OA
ENDBRANCH  13  20
ENDBRANCH   1  17
TORSDOF 2
ENDMDL
MODEL 7
REMARK VINA RESULT:      -6.3      3.732      7.972
REMARK  Name = 
REMARK  3 active torsions:
REMARK  status: ('A' for Active; 'I' for Inactive)
REMARK    1  A    between atoms: C_1  and  O_2
REMARK    2  A    between atoms: O_2  and  C_3
REMARK    3  A    between atoms: C_7  and  N_8
REMARK                            x       y       z     vdW  Elec       q    Type
REMARK                         _______ _______ _______ _____ _____    ______ ____
ROOT
ATOM      1  N   UNL     1       2.881   7.921  18.317  0.00  0.00    +0.000 N 
ATOM      2  C   UNL     1       2.993   6.560  18.460  0.00  0.00    +0.000 C 
ATOM      3  O   UNL     1       2.186   5.878  19.085  0.00  0.00    +0.000 OA
ATOM      4  N   UNL     1       4.084   5.989  17.797  0.00  0.00    +0.000 N 
ATOM      5  C   UNL     1       5.161   6.719  17.118  0.00  0.00    +0.000 C 
ATOM      6  C   UNL     1       5.347   6.247  15.691  0.00  0.00    +0.000 C 
ATOM      7  S   UNL     1       5.728   4.514  15.671  0.00  0.00    +0.000 S 
ATOM      8  O   UNL     1       5.569   4.047  14.308  0.00  0.00    +0.000 OA
ATOM      9  O   UNL     1       6.974   4.314  16.376  0.00  0.00    +0.000 OA
ATOM     10  C   UNL     1       4.412   3.821  16.642  0.00  0.00    +0.000 C 
ATOM     11  C   UNL     1       4.313   4.547  17.968  0.00  0.00    +0.000 C 
ATOM     12  H   UNL     1       3.112   8.269  17.400  0.00  0.00    +0.000 HD
ENDROOT
BRANCH   1  17
ATOM     13  C   UNL     1       0.616   9.184  20.709  0.00  0.00    +0.000 A 
ATOM     14  C   UNL     1      -0.266   9.985  20.003  0.00  0.00    +0.000 A 
ATOM     15  C   UNL     1      -0.099  10.084  18.625  0.00  0.00    +0.000 A 
ATOM     16  C   UNL     1       0.964   9.418  18.017  0.00  0.00    +0.000 A 
ATOM     17  C   UNL     1       1.792   8.639  18.816  0.00  0.00    +0.000 A 
ATOM     18  N   UNL     1       1.606   8.473  20.137  0.00  0.00    +0.000 NA
BRANCH  13  20
ATOM     19  C   UNL     1      -0.477  10.106  22.553  0.00  0.00    +0.000 C 
ATOM     20  O   UNL     1       0.457   9.139  22.080  0.00  0.00    +0.000 OA
ENDBRANCH  13  20
ENDBRANCH   1  17
TORSDOF 2
ENDMDL
MODEL 8
REMARK VINA RESULT:      -6.2      4.844      6.822
REMARK  Name = 
REMARK  3 active torsions:
REMARK  status: ('A' for Active; 'I' for Inactive)
REMARK    1  A    between atoms: C_1  and  O_2
REMARK    2  A    between atoms: O_2  and  C_3
REMARK    3  A    between atoms: C_7  and  N_8
REMARK                            x       y       z     vdW  Elec       q    Type
REMARK                         _______ _______ _______ _____ _____    ______ ____
ROOT
ATOM      1  N   UNL     1       2.657   7.171  18.424  0.00  0.00    +0.000 N 
ATOM      2  C   UNL     1       1.934   7.680  19.475  0.00  0.00    +0.000 C 
ATOM      3  O   UNL     1       1.762   7.078  20.531  0.00  0.00    +0.000 OA
ATOM      4  N   UNL     1       1.436   8.971  19.273  0.00  0.00    +0.000 N 
ATOM      5  C   UNL     1       1.490   9.731  18.018  0.00  0.00    +0.000 C 
ATOM      6  C   UNL     1       2.108  11.100  18.217  0.00  0.00    +0.000 C 
ATOM      7  S   UNL     1       1.168  12.023  19.406  0.00  0.00    +0.000 S 
ATOM      8  O   UNL     1       1.966  13.165  19.803  0.00  0.00    +0.000 OA
ATOM      9  O   UNL     1      -0.169  12.204  18.886  0.00  0.00    +0.000 OA
ATOM     10  C   UNL     1       1.091  10.905  20.784  0.00  0.00    +0.000 C 
ATOM     11  C   UNL     1       0.587   9.553  20.323  0.00  0.00    +0.000 C 
ATOM     12  H   UNL     1       3.250   7.839  17.958  0.00  0.00    +0.000 HD
ENDROOT
BRANCH   1  17
ATOM     13  C   UNL     1       5.258   4.899  19.144  0.00  0.00    +0.000 A 
ATOM     14  C   UNL     1       4.786   3.656  18.757  0.00  0.00    +0.000 A 
ATOM     15  C   UNL     1       3.516   3.585  18.193  0.00  0.00    +0.000 A 
ATOM     16  C   UNL     1       2.754   4.747  18.080  0.00  0.00    +0.000 A 
ATOM     17  C   UNL     1       3.321   5.945  18.497  0.00  0.00    +0.000 A 
ATOM     18  N   UNL     1       4.572   6.046  18.979  0.00  0.00    +0.000 NA
BRANCH  13  20
ATOM     19  C   UNL     1       7.431   5.741  19.021  0.00  0.00    +0.000 C 
ATOM     20  O   UNL     1       6.502   4.935  19.742  0.00  0.00    +0.000 OA
ENDBRANCH  13  20
ENDBRANCH   1  17
TORSDOF 2
ENDMDL
MODEL 9
REMARK VINA RESULT:      -6.1      4.163      7.732
REMARK  Name = 
REMARK  3 active torsions:
REMARK  status: ('A' for Active; 'I' for Inactive)
REMARK    1  A    between atoms: C_1  and  O_2
REMARK    2  A    between atoms: O_2  and  C_3
REMARK    3  A    between atoms: C_7  and  N_8
REMARK                            x       y       z     vdW  Elec       q    Type
REMARK                         _______ _______ _______ _____ _____    ______ ____
ROOT
ATOM      1  N   UNL     1       1.768   7.249  19.229  0.00  0.00    +0.000 N 
ATOM      2  C   UNL     1       2.853   6.799  18.517  0.00  0.00    +0.000 C 
ATOM      3  O   UNL     1       3.628   7.543  17.924  0.00  0.00    +0.000 OA
ATOM      4  N   UNL     1       3.041   5.413  18.550  0.00  0.00    +0.000 N 
ATOM      5  C   UNL     1       2.120   4.430  19.133  0.00  0.00    +0.000 C 
ATOM      6  C   UNL     1       2.819   3.524  20.126  0.00  0.00    +0.000 C 
ATOM      7  S   UNL     1       4.149   2.662  19.328  0.00  0.00    +0.000 S 
ATOM      8  O   UNL     1       4.977   2.080  20.364  0.00  0.00    +0.000 OA
ATOM      9  O   UNL     1       3.591   1.835  18.281  0.00  0.00    +0.000 OA
ATOM     10  C   UNL     1       5.065   3.983  18.574  0.00  0.00    +0.000 C 
ATOM     11  C   UNL     1       4.137   4.849  17.748  0.00  0.00    +0.000 C 
ATOM     12  H   UNL     1       1.609   6.770  20.102  0.00  0.00    +0.000 HD
ENDROOT
BRANCH   1  17
ATOM     13  C   UNL     1       0.921  10.230  20.916  0.00  0.00    +0.000 A 
ATOM     14  C   UNL     1       0.954  11.225  19.954  0.00  0.00    +0.000 A 
ATOM     15  C   UNL     1       1.257  10.861  18.646  0.00  0.00    +0.000 A 
ATOM     16  C   UNL     1       1.558   9.530  18.361  0.00  0.00    +0.000 A 
ATOM     17  C   UNL     1       1.497   8.608  19.398  0.00  0.00    +0.000 A 
ATOM     18  N   UNL     1       1.137   8.926  20.654  0.00  0.00    +0.000 NA
BRANCH  13  20
ATOM     19  C   UNL     1      -0.012   9.617  22.966  0.00  0.00    +0.000 C 
ATOM     20  O   UNL     1       0.663  10.624  22.214  0.00  0.00    +0.000 OA
ENDBRANCH  13  20
ENDBRANCH   1  17
TORSDOF 2
ENDMDL
