MODEL 1
REMARK VINA RESULT:      -7.5      0.000      0.000
REMARK  Name = 
REMARK  7 active torsions:
REMARK  status: ('A' for Active; 'I' for Inactive)
REMARK    1  A    between atoms: C_1  and  C_2
REMARK    2  A    between atoms: C_2  and  N_3
REMARK    3  A    between atoms: C_2  and  C_17
REMARK    4  A    between atoms: N_3  and  C_4
REMARK    5  A    between atoms: C_4  and  C_5
REMARK    6  A    between atoms: C_8  and  C_9
REMARK    7  A    between atoms: C_12  and  O_13
REMARK                            x       y       z     vdW  Elec       q    Type
REMARK                         _______ _______ _______ _____ _____    ______ ____
ROOT
ATOM      1  C   UNL     1       3.419   4.370  18.270  0.00  0.00    +0.000 A 
ATOM      2  C   UNL     1       3.663   4.488  19.618  0.00  0.00    +0.000 A 
ATOM      3  O   UNL     1       3.206   5.700  20.029  0.00  0.00    +0.000 OA
ATOM      4  C   UNL     1       2.698   6.276  18.892  0.00  0.00    +0.000 A 
ATOM      5  N   UNL     1       2.802   5.519  17.814  0.00  0.00    +0.000 NA
ENDROOT
BRANCH   4   6
ATOM      6  C   UNL     1       2.089   7.595  19.051  0.00  0.00    +0.000 A 
ATOM      7  C   UNL     1       1.989   8.494  17.975  0.00  0.00    +0.000 A 
ATOM      8  C   UNL     1       1.441   9.768  18.152  0.00  0.00    +0.000 A 
ATOM      9  C   UNL     1       0.987  10.145  19.410  0.00  0.00    +0.000 A 
ATOM     10  C   UNL     1       1.060   9.269  20.485  0.00  0.00    +0.000 A 
ATOM     11  C   UNL     1       1.610   7.997  20.306  0.00  0.00    +0.000 A 
BRANCH   9  12
ATOM     12  O   UNL     1       0.462  11.384  19.630  0.00  0.00    +0.000 OA
ATOM     13  H   UNL     1      -0.367  11.463  19.132  0.00  0.00    +0.000 HD
ENDBRANCH   9  12
ENDBRANCH   4   6
BRANCH   1  14
ATOM     14  C   UNL     1       3.710   3.216  17.374  0.00  0.00    +0.000 C 
BRANCH  14  15
ATOM     15  N   UNL     1       5.131   3.228  17.036  0.00  0.00    +0.000 NA
ATOM     16  H   UNL     1       5.654   3.260  17.915  0.00  0.00    +0.000 HD
BRANCH  15  18
ATOM     17  C   UNL     1       6.240   3.965  14.927  0.00  0.00    +0.000 C 
ATOM     18  C   UNL     1       5.521   4.384  16.218  0.00  0.00    +0.000 C 
BRANCH  18  19
ATOM     19  C   UNL     1       6.420   5.309  17.031  0.00  0.00    +0.000 A 
ATOM     20  C   UNL     1       7.113   4.825  18.149  0.00  0.00    +0.000 A 
ATOM     21  C   UNL     1       7.930   5.674  18.903  0.00  0.00    +0.000 A 
ATOM     22  C   UNL     1       8.062   7.013  18.548  0.00  0.00    +0.000 A 
ATOM     23  C   UNL     1       7.383   7.509  17.439  0.00  0.00    +0.000 A 
ATOM     24  C   UNL     1       6.569   6.662  16.684  0.00  0.00    +0.000 A 
ENDBRANCH  18  19
ENDBRANCH  15  18
ENDBRANCH  14  15
ENDBRANCH   1  14
TORSDOF 6
ENDMDL
MODEL 2
REMARK VINA RESULT:      -7.5      3.915      6.514
REMARK  Name = 
REMARK  7 active torsions:
REMARK  status: ('A' for Active; 'I' for Inactive)
REMARK    1  A    between atoms: C_1  and  C_2
REMARK    2  A    between atoms: C_2  and  N_3
REMARK    3  A    between atoms: C_2  and  C_17
REMARK    4  A    between atoms: N_3  and  C_4
REMARK    5  A    between atoms: C_4  and  C_5
REMARK    6  A    between atoms: C_8  and  C_9
REMARK    7  A    between atoms: C_12  and  O_13
REMARK                            x       y       z     vdW  Elec       q    Type
REMARK                         _______ _______ _______ _____ _____    ______ ____
ROOT
ATOM      1  C   UNL     1       7.064   7.253  17.407  0.00  0.00    +0.000 A 
ATOM      2  C   UNL     1       7.894   6.765  18.388  0.00  0.00    +0.000 A 
ATOM      3  O   UNL     1       8.634   7.797  18.872  0.00  0.00    +0.000 OA
ATOM      4  C   UNL     1       8.215   8.885  18.149  0.00  0.00    +0.000 A 
ATOM      5  N   UNL     1       7.277   8.610  17.260  0.00  0.00    +0.000 NA
ENDROOT
BRANCH   4   6
ATOM      6  C   UNL     1       8.826  10.167  18.495  0.00  0.00    +0.000 A 
ATOM      7  C   UNL     1       8.691  11.294  17.666  0.00  0.00    +0.000 A 
ATOM      8  C   UNL     1       9.315  12.503  17.990  0.00  0.00    +0.000 A 
ATOM      9  C   UNL     1      10.075  12.587  19.150  0.00  0.00    +0.000 A 
ATOM     10  C   UNL     1      10.210  11.492  19.993  0.00  0.00    +0.000 A 
ATOM     11  C   UNL     1       9.587  10.284  19.666  0.00  0.00    +0.000 A 
BRANCH   9  12
ATOM     12  O   UNL     1      10.714  13.741  19.494  0.00  0.00    +0.000 OA
ATOM     13  H   UNL     1      10.387  14.030  20.361  0.00  0.00    +0.000 HD
ENDBRANCH   9  12
ENDBRANCH   4   6
BRANCH   1  14
ATOM     14  C   UNL     1       6.047   6.518  16.604  0.00  0.00    +0.000 C 
BRANCH  14  15
ATOM     15  N   UNL     1       5.151   5.808  17.514  0.00  0.00    +0.000 NA
ATOM     16  H   UNL     1       5.470   5.999  18.468  0.00  0.00    +0.000 HD
BRANCH  15  18
ATOM     17  C   UNL     1       5.453   3.978  15.846  0.00  0.00    +0.000 C 
ATOM     18  C   UNL     1       5.148   4.354  17.304  0.00  0.00    +0.000 C 
BRANCH  18  19
ATOM     19  C   UNL     1       3.796   3.778  17.712  0.00  0.00    +0.000 A 
ATOM     20  C   UNL     1       2.644   4.575  17.674  0.00  0.00    +0.000 A 
ATOM     21  C   UNL     1       1.405   4.052  18.058  0.00  0.00    +0.000 A 
ATOM     22  C   UNL     1       1.305   2.731  18.483  0.00  0.00    +0.000 A 
ATOM     23  C   UNL     1       2.440   1.926  18.523  0.00  0.00    +0.000 A 
ATOM     24  C   UNL     1       3.676   2.445  18.138  0.00  0.00    +0.000 A 
ENDBRANCH  18  19
ENDBRANCH  15  18
ENDBRANCH  14  15
ENDBRANCH   1  14
TORSDOF 6
ENDMDL
MODEL 3
REMARK VINA RESULT:      -7.5      0.202      1.466
REMARK  Name = 
REMARK  7 active torsions:
REMARK  status: ('A' for Active; 'I' for Inactive)
REMARK    1  A    between atoms: C_1  and  C_2
REMARK    2  A    between atoms: C_2  and  N_3
REMARK    3  A    between atoms: C_2  and  C_17
REMARK    4  A    between atoms: N_3  and  C_4
REMARK    5  A    between atoms: C_4  and  C_5
REMARK    6  A    between atoms: C_8  and  C_9
REMARK    7  A    between atoms: C_12  and  O_13
REMARK                            x       y       z     vdW  Elec       q    Type
REMARK                         _______ _______ _______ _____ _____    ______ ____
ROOT
ATOM      1  C   UNL     1       3.280   4.561  18.265  0.00  0.00    +0.000 A 
ATOM      2  C   UNL     1       3.585   4.669  19.601  0.00  0.00    +0.000 A 
ATOM      3  O   UNL     1       3.181   5.893  20.033  0.00  0.00    +0.000 OA
ATOM      4  C   UNL     1       2.642   6.485  18.919  0.00  0.00    +0.000 A 
ATOM      5  N   UNL     1       2.677   5.729  17.837  0.00  0.00    +0.000 NA
ENDROOT
BRANCH   4   6
ATOM      6  C   UNL     1       2.078   7.821  19.105  0.00  0.00    +0.000 A 
ATOM      7  C   UNL     1       1.517   8.220  20.330  0.00  0.00    +0.000 A 
ATOM      8  C   UNL     1       0.945   9.487  20.480  0.00  0.00    +0.000 A 
ATOM      9  C   UNL     1       0.937  10.362  19.402  0.00  0.00    +0.000 A 
ATOM     10  C   UNL     1       1.499   9.998  18.185  0.00  0.00    +0.000 A 
ATOM     11  C   UNL     1       2.069   8.730  18.037  0.00  0.00    +0.000 A 
BRANCH   9  12
ATOM     12  O   UNL     1       0.374  11.600  19.500  0.00  0.00    +0.000 OA
ATOM     13  H   UNL     1      -0.423  11.624  18.946  0.00  0.00    +0.000 HD
ENDBRANCH   9  12
ENDBRANCH   4   6
BRANCH   1  14
ATOM     14  C   UNL     1       3.498   3.401  17.356  0.00  0.00    +0.000 C 
BRANCH  14  15
ATOM     15  N   UNL     1       4.923   3.301  17.054  0.00  0.00    +0.000 NA
ATOM     16  H   UNL     1       5.427   3.321  17.944  0.00  0.00    +0.000 HD
BRANCH  15  18
ATOM     17  C   UNL     1       6.169   3.896  14.976  0.00  0.00    +0.000 C 
ATOM     18  C   UNL     1       5.414   4.402  16.215  0.00  0.00    +0.000 C 
BRANCH  18  19
ATOM     19  C   UNL     1       6.325   5.308  17.037  0.00  0.00    +0.000 A 
ATOM     20  C   UNL     1       6.403   6.680  16.757  0.00  0.00    +0.000 A 
ATOM     21  C   UNL     1       7.245   7.511  17.503  0.00  0.00    +0.000 A 
ATOM     22  C   UNL     1       8.017   6.981  18.533  0.00  0.00    +0.000 A 
ATOM     23  C   UNL     1       7.947   5.622  18.825  0.00  0.00    +0.000 A 
ATOM     24  C   UNL     1       7.106   4.792  18.084  0.00  0.00    +0.000 A 
ENDBRANCH  18  19
ENDBRANCH  15  18
ENDBRANCH  14  15
ENDBRANCH   1  14
TORSDOF 6
ENDMDL
MODEL 4
REMARK VINA RESULT:      -7.5      3.893      6.417
REMARK  Name = 
REMARK  7 active torsions:
REMARK  status: ('A' for Active; 'I' for Inactive)
REMARK    1  A    between atoms: C_1  and  C_2
REMARK    2  A    between atoms: C_2  and  N_3
REMARK    3  A    between atoms: C_2  and  C_17
REMARK    4  A    between atoms: N_3  and  C_4
REMARK    5  A    between atoms: C_4  and  C_5
REMARK    6  A    between atoms: C_8  and  C_9
REMARK    7  A    between atoms: C_12  and  O_13
REMARK                            x       y       z     vdW  Elec       q    Type
REMARK                         _______ _______ _______ _____ _____    ______ ____
ROOT
ATOM      1  C   UNL     1       7.141   7.174  17.418  0.00  0.00    +0.000 A 
ATOM      2  C   UNL     1       7.941   6.719  18.439  0.00  0.00    +0.000 A 
ATOM      3  O   UNL     1       8.645   7.771  18.930  0.00  0.00    +0.000 OA
ATOM      4  C   UNL     1       8.236   8.838  18.170  0.00  0.00    +0.000 A 
ATOM      5  N   UNL     1       7.337   8.532  17.253  0.00  0.00    +0.000 NA
ENDROOT
BRANCH   4   6
ATOM      6  C   UNL     1       8.812  10.137  18.515  0.00  0.00    +0.000 A 
ATOM      7  C   UNL     1       8.659  11.255  17.678  0.00  0.00    +0.000 A 
ATOM      8  C   UNL     1       9.250  12.481  18.000  0.00  0.00    +0.000 A 
ATOM      9  C   UNL     1       9.996  12.590  19.167  0.00  0.00    +0.000 A 
ATOM     10  C   UNL     1      10.150  11.504  20.018  0.00  0.00    +0.000 A 
ATOM     11  C   UNL     1       9.559  10.280  19.693  0.00  0.00    +0.000 A 
BRANCH   9  12
ATOM     12  O   UNL     1      10.604  13.762  19.510  0.00  0.00    +0.000 OA
ATOM     13  H   UNL     1      11.272  13.577  20.189  0.00  0.00    +0.000 HD
ENDBRANCH   9  12
ENDBRANCH   4   6
BRANCH   1  14
ATOM     14  C   UNL     1       6.167   6.407  16.592  0.00  0.00    +0.000 C 
BRANCH  14  15
ATOM     15  N   UNL     1       5.205   5.756  17.478  0.00  0.00    +0.000 NA
ATOM     16  H   UNL     1       5.475   5.982  18.440  0.00  0.00    +0.000 HD
BRANCH  15  18
ATOM     17  C   UNL     1       5.521   3.850  15.900  0.00  0.00    +0.000 C 
ATOM     18  C   UNL     1       5.181   4.295  17.331  0.00  0.00    +0.000 C 
BRANCH  18  19
ATOM     19  C   UNL     1       3.806   3.762  17.722  0.00  0.00    +0.000 A 
ATOM     20  C   UNL     1       3.631   2.405  18.029  0.00  0.00    +0.000 A 
ATOM     21  C   UNL     1       2.370   1.912  18.377  0.00  0.00    +0.000 A 
ATOM     22  C   UNL     1       1.273   2.767  18.422  0.00  0.00    +0.000 A 
ATOM     23  C   UNL     1       1.431   4.118  18.123  0.00  0.00    +0.000 A 
ATOM     24  C   UNL     1       2.690   4.612  17.778  0.00  0.00    +0.000 A 
ENDBRANCH  18  19
ENDBRANCH  15  18
ENDBRANCH  14  15
ENDBRANCH   1  14
TORSDOF 6
ENDMDL
MODEL 5
REMARK VINA RESULT:      -7.4      3.802      6.559
REMARK  Name = 
REMARK  7 active torsions:
REMARK  status: ('A' for Active; 'I' for Inactive)
REMARK    1  A    between atoms: C_1  and  C_2
REMARK    2  A    between atoms: C_2  and  N_3
REMARK    3  A    between atoms: C_2  and  C_17
REMARK    4  A    between atoms: N_3  and  C_4
REMARK    5  A    between atoms: C_4  and  C_5
REMARK    6  A    between atoms: C_8  and  C_9
REMARK    7  A    between atoms: C_12  and  O_13
REMARK                            x       y       z     vdW  Elec       q    Type
REMARK                         _______ _______ _______ _____ _____    ______ ____
ROOT
ATOM      1  C   UNL     1       7.095   7.007  17.398  0.00  0.00    +0.000 A 
ATOM      2  C   UNL     1       7.899   6.554  18.416  0.00  0.00    +0.000 A 
ATOM      3  O   UNL     1       8.604   7.609  18.904  0.00  0.00    +0.000 OA
ATOM      4  C   UNL     1       8.191   8.674  18.145  0.00  0.00    +0.000 A 
ATOM      5  N   UNL     1       7.289   8.365  17.231  0.00  0.00    +0.000 NA
ENDROOT
BRANCH   4   6
ATOM      6  C   UNL     1       8.767   9.974  18.485  0.00  0.00    +0.000 A 
ATOM      7  C   UNL     1       9.457  10.180  19.691  0.00  0.00    +0.000 A 
ATOM      8  C   UNL     1       9.967  11.439  20.022  0.00  0.00    +0.000 A 
ATOM      9  C   UNL     1       9.788  12.498  19.140  0.00  0.00    +0.000 A 
ATOM     10  C   UNL     1       9.123  12.317  17.935  0.00  0.00    +0.000 A 
ATOM     11  C   UNL     1       8.613  11.057  17.608  0.00  0.00    +0.000 A 
BRANCH   9  12
ATOM     12  O   UNL     1      10.254  13.747  19.431  0.00  0.00    +0.000 OA
ATOM     13  H   UNL     1       9.689  14.137  20.117  0.00  0.00    +0.000 HD
ENDBRANCH   9  12
ENDBRANCH   4   6
BRANCH   1  14
ATOM     14  C   UNL     1       6.119   6.238  16.577  0.00  0.00    +0.000 C 
BRANCH  14  15
ATOM     15  N   UNL     1       5.340   5.372  17.458  0.00  0.00    +0.000 NA
ATOM     16  H   UNL     1       5.590   4.405  17.235  0.00  0.00    +0.000 HD
BRANCH  15  18
ATOM     17  C   UNL     1       3.346   6.752  18.044  0.00  0.00    +0.000 C 
ATOM     18  C   UNL     1       3.889   5.530  17.288  0.00  0.00    +0.000 C 
BRANCH  18  19
ATOM     19  C   UNL     1       3.175   4.270  17.766  0.00  0.00    +0.000 A 
ATOM     20  C   UNL     1       1.793   4.282  18.001  0.00  0.00    +0.000 A 
ATOM     21  C   UNL     1       1.138   3.130  18.450  0.00  0.00    +0.000 A 
ATOM     22  C   UNL     1       1.856   1.958  18.669  0.00  0.00    +0.000 A 
ATOM     23  C   UNL     1       3.228   1.930  18.437  0.00  0.00    +0.000 A 
ATOM     24  C   UNL     1       3.883   3.077  17.987  0.00  0.00    +0.000 A 
ENDBRANCH  18  19
ENDBRANCH  15  18
ENDBRANCH  14  15
ENDBRANCH   1  14
TORSDOF 6
ENDMDL
MODEL 6
REMARK VINA RESULT:      -7.4      4.019      6.787
REMARK  Name = 
REMARK  7 active torsions:
REMARK  status: ('A' for Active; 'I' for Inactive)
REMARK    1  A    between atoms: C_1  and  C_2
REMARK    2  A    between atoms: C_2  and  N_3
REMARK    3  A    between atoms: C_2  and  C_17
REMARK    4  A    between atoms: N_3  and  C_4
REMARK    5  A    between atoms: C_4  and  C_5
REMARK    6  A    between atoms: C_8  and  C_9
REMARK    7  A    between atoms: C_12  and  O_13
REMARK                            x       y       z     vdW  Elec       q    Type
REMARK                         _______ _______ _______ _____ _____    ______ ____
ROOT
ATOM      1  C   UNL     1       6.990   7.347  17.560  0.00  0.00    +0.000 A 
ATOM      2  C   UNL     1       7.851   6.738  18.440  0.00  0.00    +0.000 A 
ATOM      3  O   UNL     1       8.710   7.677  18.916  0.00  0.00    +0.000 OA
ATOM      4  C   UNL     1       8.326   8.837  18.290  0.00  0.00    +0.000 A 
ATOM      5  N   UNL     1       7.302   8.691  17.469  0.00  0.00    +0.000 NA
ENDROOT
BRANCH   4   6
ATOM      6  C   UNL     1       9.066  10.044  18.653  0.00  0.00    +0.000 A 
ATOM      7  C   UNL     1       9.589  10.909  17.677  0.00  0.00    +0.000 A 
ATOM      8  C   UNL     1      10.329  12.038  18.039  0.00  0.00    +0.000 A 
ATOM      9  C   UNL     1      10.545  12.307  19.385  0.00  0.00    +0.000 A 
ATOM     10  C   UNL     1      10.026  11.477  20.369  0.00  0.00    +0.000 A 
ATOM     11  C   UNL     1       9.287  10.347  20.004  0.00  0.00    +0.000 A 
BRANCH   9  12
ATOM     12  O   UNL     1      11.276  13.388  19.782  0.00  0.00    +0.000 OA
ATOM     13  H   UNL     1      11.043  14.144  19.220  0.00  0.00    +0.000 HD
ENDBRANCH   9  12
ENDBRANCH   4   6
BRANCH   1  14
ATOM     14  C   UNL     1       5.856   6.744  16.806  0.00  0.00    +0.000 C 
BRANCH  14  15
ATOM     15  N   UNL     1       4.960   6.082  17.751  0.00  0.00    +0.000 NA
ATOM     16  H   UNL     1       5.115   5.074  17.665  0.00  0.00    +0.000 HD
BRANCH  15  18
ATOM     17  C   UNL     1       3.185   7.835  17.732  0.00  0.00    +0.000 C 
ATOM     18  C   UNL     1       3.540   6.360  17.492  0.00  0.00    +0.000 C 
BRANCH  18  19
ATOM     19  C   UNL     1       2.673   5.471  18.378  0.00  0.00    +0.000 A 
ATOM     20  C   UNL     1       2.509   5.767  19.738  0.00  0.00    +0.000 A 
ATOM     21  C   UNL     1       1.723   4.948  20.554  0.00  0.00    +0.000 A 
ATOM     22  C   UNL     1       1.094   3.826  20.021  0.00  0.00    +0.000 A 
ATOM     23  C   UNL     1       1.245   3.521  18.671  0.00  0.00    +0.000 A 
ATOM     24  C   UNL     1       2.027   4.339  17.854  0.00  0.00    +0.000 A 
ENDBRANCH  18  19
ENDBRANCH  15  18
ENDBRANCH  14  15
ENDBRANCH   1  14
TORSDOF 6
ENDMDL
MODEL 7
REMARK VINA RESULT:      -7.4      4.370      6.910
REMARK  Name = 
REMARK  7 active torsions:
REMARK  status: ('A' for Active; 'I' for Inactive)
REMARK    1  A    between atoms: C_1  and  C_2
REMARK    2  A    between atoms: C_2  and  N_3
REMARK    3  A    between atoms: C_2  and  C_17
REMARK    4  A    between atoms: N_3  and  C_4
REMARK    5  A    between atoms: C_4  and  C_5
REMARK    6  A    between atoms: C_8  and  C_9
REMARK    7  A    between atoms: C_12  and  O_13
REMARK                            x       y       z     vdW  Elec       q    Type
REMARK                         _______ _______ _______ _____ _____    ______ ____
ROOT
ATOM      1  C   UNL     1       0.520   9.709  21.459  0.00  0.00    +0.000 A 
ATOM      2  C   UNL     1       0.624   9.362  22.785  0.00  0.00    +0.000 A 
ATOM      3  O   UNL     1      -0.106  10.245  23.516  0.00  0.00    +0.000 OA
ATOM      4  C   UNL     1      -0.629  11.106  22.584  0.00  0.00    +0.000 A 
ATOM      5  N   UNL     1      -0.284  10.826  21.340  0.00  0.00    +0.000 NA
ENDROOT
BRANCH   4   6
ATOM      6  C   UNL     1      -1.509  12.155  23.094  0.00  0.00    +0.000 A 
ATOM      7  C   UNL     1      -1.064  13.479  23.248  0.00  0.00    +0.000 A 
ATOM      8  C   UNL     1      -1.905  14.463  23.776  0.00  0.00    +0.000 A 
ATOM      9  C   UNL     1      -3.200  14.124  24.150  0.00  0.00    +0.000 A 
ATOM     10  C   UNL     1      -3.668  12.826  23.993  0.00  0.00    +0.000 A 
ATOM     11  C   UNL     1      -2.825  11.844  23.466  0.00  0.00    +0.000 A 
BRANCH   9  12
ATOM     12  O   UNL     1      -4.047  15.048  24.685  0.00  0.00    +0.000 OA
ATOM     13  H   UNL     1      -4.960  14.779  24.495  0.00  0.00    +0.000 HD
ENDBRANCH   9  12
ENDBRANCH   4   6
BRANCH   1  14
ATOM     14  C   UNL     1       1.115   9.029  20.275  0.00  0.00    +0.000 C 
BRANCH  14  15
ATOM     15  N   UNL     1       1.657   7.739  20.694  0.00  0.00    +0.000 NA
ATOM     16  H   UNL     1       2.265   7.910  21.498  0.00  0.00    +0.000 HD
BRANCH  15  18
ATOM     17  C   UNL     1       2.334   7.797  18.293  0.00  0.00    +0.000 C 
ATOM     18  C   UNL     1       2.444   7.075  19.645  0.00  0.00    +0.000 C 
BRANCH  18  19
ATOM     19  C   UNL     1       1.984   5.629  19.495  0.00  0.00    +0.000 A 
ATOM     20  C   UNL     1       2.006   5.003  18.241  0.00  0.00    +0.000 A 
ATOM     21  C   UNL     1       1.574   3.680  18.098  0.00  0.00    +0.000 A 
ATOM     22  C   UNL     1       1.117   2.971  19.205  0.00  0.00    +0.000 A 
ATOM     23  C   UNL     1       1.092   3.578  20.458  0.00  0.00    +0.000 A 
ATOM     24  C   UNL     1       1.524   4.897  20.602  0.00  0.00    +0.000 A 
ENDBRANCH  18  19
ENDBRANCH  15  18
ENDBRANCH  14  15
ENDBRANCH   1  14
TORSDOF 6
ENDMDL
MODEL 8
REMARK VINA RESULT:      -7.3      3.781      6.448
REMARK  Name = 
REMARK  7 active torsions:
REMARK  status: ('A' for Active; 'I' for Inactive)
REMARK    1  A    between atoms: C_1  and  C_2
REMARK    2  A    between atoms: C_2  and  N_3
REMARK    3  A    between atoms: C_2  and  C_17
REMARK    4  A    between atoms: N_3  and  C_4
REMARK    5  A    between atoms: C_4  and  C_5
REMARK    6  A    between atoms: C_8  and  C_9
REMARK    7  A    between atoms: C_12  and  O_13
REMARK                            x       y       z     vdW  Elec       q    Type
REMARK                         _______ _______ _______ _____ _____    ______ ____
ROOT
ATOM      1  C   UNL     1       6.882   7.072  17.363  0.00  0.00    +0.000 A 
ATOM      2  C   UNL     1       7.742   6.572  18.312  0.00  0.00    +0.000 A 
ATOM      3  O   UNL     1       8.505   7.595  18.777  0.00  0.00    +0.000 OA
ATOM      4  C   UNL     1       8.071   8.691  18.074  0.00  0.00    +0.000 A 
ATOM      5  N   UNL     1       7.101   8.429  17.216  0.00  0.00    +0.000 NA
ENDROOT
BRANCH   4   6
ATOM      6  C   UNL     1       8.702   9.966  18.406  0.00  0.00    +0.000 A 
ATOM      7  C   UNL     1       9.494  10.118  19.557  0.00  0.00    +0.000 A 
ATOM      8  C   UNL     1      10.058  11.355  19.884  0.00  0.00    +0.000 A 
ATOM      9  C   UNL     1       9.832  12.446  19.054  0.00  0.00    +0.000 A 
ATOM     10  C   UNL     1       9.067  12.318  17.903  0.00  0.00    +0.000 A 
ATOM     11  C   UNL     1       8.503  11.081  17.580  0.00  0.00    +0.000 A 
BRANCH   9  12
ATOM     12  O   UNL     1      10.349  13.674  19.345  0.00  0.00    +0.000 OA
ATOM     13  H   UNL     1      10.851  13.989  18.576  0.00  0.00    +0.000 HD
ENDBRANCH   9  12
ENDBRANCH   4   6
BRANCH   1  14
ATOM     14  C   UNL     1       5.833   6.349  16.591  0.00  0.00    +0.000 C 
BRANCH  14  15
ATOM     15  N   UNL     1       4.699   6.082  17.472  0.00  0.00    +0.000 NA
ATOM     16  H   UNL     1       4.817   6.662  18.307  0.00  0.00    +0.000 HD
BRANCH  15  18
ATOM     17  C   UNL     1       4.623   3.713  16.693  0.00  0.00    +0.000 C 
ATOM     18  C   UNL     1       4.612   4.676  17.890  0.00  0.00    +0.000 C 
BRANCH  18  19
ATOM     19  C   UNL     1       3.345   4.461  18.711  0.00  0.00    +0.000 A 
ATOM     20  C   UNL     1       2.319   3.635  18.231  0.00  0.00    +0.000 A 
ATOM     21  C   UNL     1       1.151   3.445  18.977  0.00  0.00    +0.000 A 
ATOM     22  C   UNL     1       0.996   4.078  20.207  0.00  0.00    +0.000 A 
ATOM     23  C   UNL     1       2.008   4.899  20.698  0.00  0.00    +0.000 A 
ATOM     24  C   UNL     1       3.175   5.087  19.957  0.00  0.00    +0.000 A 
ENDBRANCH  18  19
ENDBRANCH  15  18
ENDBRANCH  14  15
ENDBRANCH   1  14
TORSDOF 6
ENDMDL
MODEL 9
REMARK VINA RESULT:      -7.3      3.973      6.726
REMARK  Name = 
REMARK  7 active torsions:
REMARK  status: ('A' for Active; 'I' for Inactive)
REMARK    1  A    between atoms: C_1  and  C_2
REMARK    2  A    between atoms: C_2  and  N_3
REMARK    3  A    between atoms: C_2  and  C_17
REMARK    4  A    between atoms: N_3  and  C_4
REMARK    5  A    between atoms: C_4  and  C_5
REMARK    6  A    between atoms: C_8  and  C_9
REMARK    7  A    between atoms: C_12  and  O_13
REMARK                            x       y       z     vdW  Elec       q    Type
REMARK                         _______ _______ _______ _____ _____    ______ ____
ROOT
ATOM      1  C   UNL     1       6.991   7.282  17.509  0.00  0.00    +0.000 A 
ATOM      2  C   UNL     1       7.832   6.694  18.424  0.00  0.00    +0.000 A 
ATOM      3  O   UNL     1       8.671   7.647  18.906  0.00  0.00    +0.000 OA
ATOM      4  C   UNL     1       8.299   8.792  18.247  0.00  0.00    +0.000 A 
ATOM      5  N   UNL     1       7.299   8.625  17.401  0.00  0.00    +0.000 NA
ENDROOT
BRANCH   4   6
ATOM      6  C   UNL     1       9.021  10.011  18.608  0.00  0.00    +0.000 A 
ATOM      7  C   UNL     1       9.495  10.902  17.631  0.00  0.00    +0.000 A 
ATOM      8  C   UNL     1      10.221  12.043  17.989  0.00  0.00    +0.000 A 
ATOM      9  C   UNL     1      10.471  12.296  19.332  0.00  0.00    +0.000 A 
ATOM     10  C   UNL     1      10.000  11.438  20.317  0.00  0.00    +0.000 A 
ATOM     11  C   UNL     1       9.277  10.298  19.956  0.00  0.00    +0.000 A 
BRANCH   9  12
ATOM     12  O   UNL     1      11.189  13.387  19.724  0.00  0.00    +0.000 OA
ATOM     13  H   UNL     1      11.052  13.523  20.676  0.00  0.00    +0.000 HD
ENDBRANCH   9  12
ENDBRANCH   4   6
BRANCH   1  14
ATOM     14  C   UNL     1       5.882   6.657  16.735  0.00  0.00    +0.000 C 
BRANCH  14  15
ATOM     15  N   UNL     1       5.066   5.856  17.643  0.00  0.00    +0.000 NA
ATOM     16  H   UNL     1       5.327   4.876  17.505  0.00  0.00    +0.000 HD
BRANCH  15  18
ATOM     17  C   UNL     1       3.031   7.224  18.103  0.00  0.00    +0.000 C 
ATOM     18  C   UNL     1       3.624   5.994  17.398  0.00  0.00    +0.000 C 
BRANCH  18  19
ATOM     19  C   UNL     1       2.900   4.735  17.864  0.00  0.00    +0.000 A 
ATOM     20  C   UNL     1       3.155   3.501  17.250  0.00  0.00    +0.000 A 
ATOM     21  C   UNL     1       2.484   2.347  17.668  0.00  0.00    +0.000 A 
ATOM     22  C   UNL     1       1.554   2.415  18.702  0.00  0.00    +0.000 A 
ATOM     23  C   UNL     1       1.293   3.632  19.324  0.00  0.00    +0.000 A 
ATOM     24  C   UNL     1       1.963   4.784  18.909  0.00  0.00    +0.000 A 
ENDBRANCH  18  19
ENDBRANCH  15  18
ENDBRANCH  14  15
ENDBRANCH   1  14
TORSDOF 6
ENDMDL
