MODEL 1
REMARK VINA RESULT:      -8.2      0.000      0.000
REMARK  Name = 
REMARK  9 active torsions:
REMARK  status: ('A' for Active; 'I' for Inactive)
REMARK    1  A    between atoms: C_1  and  C_2
REMARK    2  A    between atoms: C_4  and  C_5
REMARK    3  A    between atoms: C_9  and  C_10
REMARK    4  A    between atoms: C_12  and  C_13
REMARK    5  A    between atoms: N_21  and  C_22
REMARK    6  A    between atoms: C_24  and  C_25
REMARK    7  A    between atoms: C_25  and  C_26
REMARK    8  A    between atoms: C_25  and  C_27
REMARK    9  A    between atoms: C_25  and  O_28
REMARK                            x       y       z     vdW  Elec       q    Type
REMARK                         _______ _______ _______ _____ _____    ______ ____
ROOT
ATOM      1  C   UNL     1       3.481  15.195  22.267  0.00  0.00    +0.000 C 
ATOM      2  C   UNL     1       2.253  14.736  21.589  0.00  0.00    +0.000 A 
ATOM      3  N   UNL     1       1.367  15.593  21.005  0.00  0.00    +0.000 NA
ATOM      4  C   UNL     1       0.446  14.793  20.500  0.00  0.00    +0.000 A 
ATOM      5  C   UNL     1      -0.794  15.225  19.813  0.00  0.00    +0.000 C 
ATOM      6  N   UNL     1       0.797  13.476  20.751  0.00  0.00    +0.000 N 
ATOM      7  C   UNL     1       0.175  12.277  20.306  0.00  0.00    +0.000 A 
ATOM      8  C   UNL     1       0.628  11.066  20.793  0.00  0.00    +0.000 A 
ATOM      9  C   UNL     1       0.041   9.910  20.311  0.00  0.00    +0.000 A 
ATOM     10  N   UNL     1      -0.930   9.976  19.363  0.00  0.00    +0.000 NA
ATOM     11  C   UNL     1      -1.314  11.204  18.930  0.00  0.00    +0.000 A 
ATOM     12  N   UNL     1      -0.813  12.362  19.391  0.00  0.00    +0.000 NA
ATOM     13  N   UNL     1       1.935  13.444  21.496  0.00  0.00    +0.000 NA
ENDROOT
BRANCH   9  14
ATOM     14  C   UNL     1       0.483   8.557  20.842  0.00  0.00    +0.000 C 
ATOM     15  C   UNL     1       1.622   8.463  21.817  0.00  0.00    +0.000 C 
ATOM     16  C   UNL     1       1.822   7.984  20.404  0.00  0.00    +0.000 C 
BRANCH  16  17
ATOM     17  C   UNL     1       1.929   6.483  20.129  0.00  0.00    +0.000 A 
ATOM     18  N   UNL     1       1.393   5.533  20.870  0.00  0.00    +0.000 NA
ATOM     19  C   UNL     1       1.710   4.348  20.234  0.00  0.00    +0.000 A 
ATOM     20  C   UNL     1       1.354   3.024  20.547  0.00  0.00    +0.000 A 
ATOM     21  C   UNL     1       1.765   1.987  19.695  0.00  0.00    +0.000 A 
ATOM     22  C   UNL     1       2.555   2.252  18.577  0.00  0.00    +0.000 A 
ATOM     23  C   UNL     1       2.947   3.558  18.266  0.00  0.00    +0.000 A 
ATOM     24  C   UNL     1       2.484   4.583  19.101  0.00  0.00    +0.000 A 
ATOM     25  N   UNL     1       2.586   5.952  19.045  0.00  0.00    +0.000 N 
ATOM     26  C   UNL     1       3.140   6.723  17.964  0.00  0.00    +0.000 C 
ENDBRANCH  16  17
ENDBRANCH   9  14
BRANCH  11  27
ATOM     27  C   UNL     1      -2.331  11.280  17.786  0.00  0.00    +0.000 C 
ATOM     28  C   UNL     1      -2.529   9.908  17.136  0.00  0.00    +0.000 C 
ATOM     29  C   UNL     1      -3.672  11.811  18.310  0.00  0.00    +0.000 C 
BRANCH  27  30
ATOM     30  O   UNL     1      -1.887  12.177  16.751  0.00  0.00    +0.000 OA
ATOM     31  H   UNL     1      -0.926  12.014  16.665  0.00  0.00    +0.000 HD
ENDBRANCH  27  30
ENDBRANCH  11  27
TORSDOF 4
ENDMDL
MODEL 2
REMARK VINA RESULT:      -8.1      3.002      8.952
REMARK  Name = 
REMARK  9 active torsions:
REMARK  status: ('A' for Active; 'I' for Inactive)
REMARK    1  A    between atoms: C_1  and  C_2
REMARK    2  A    between atoms: C_4  and  C_5
REMARK    3  A    between atoms: C_9  and  C_10
REMARK    4  A    between atoms: C_12  and  C_13
REMARK    5  A    between atoms: N_21  and  C_22
REMARK    6  A    between atoms: C_24  and  C_25
REMARK    7  A    between atoms: C_25  and  C_26
REMARK    8  A    between atoms: C_25  and  C_27
REMARK    9  A    between atoms: C_25  and  O_28
REMARK                            x       y       z     vdW  Elec       q    Type
REMARK                         _______ _______ _______ _____ _____    ______ ____
ROOT
ATOM      1  C   UNL     1       1.066   2.328  22.270  0.00  0.00    +0.000 C 
ATOM      2  C   UNL     1       2.079   2.930  21.381  0.00  0.00    +0.000 A 
ATOM      3  N   UNL     1       3.243   2.299  21.055  0.00  0.00    +0.000 NA
ATOM      4  C   UNL     1       3.838   3.148  20.237  0.00  0.00    +0.000 A 
ATOM      5  C   UNL     1       5.185   2.976  19.641  0.00  0.00    +0.000 C 
ATOM      6  N   UNL     1       3.024   4.254  20.053  0.00  0.00    +0.000 N 
ATOM      7  C   UNL     1       3.194   5.364  19.180  0.00  0.00    +0.000 A 
ATOM      8  C   UNL     1       2.310   6.422  19.262  0.00  0.00    +0.000 A 
ATOM      9  C   UNL     1       2.465   7.469  18.372  0.00  0.00    +0.000 A 
ATOM     10  N   UNL     1       3.442   7.431  17.428  0.00  0.00    +0.000 NA
ATOM     11  C   UNL     1       4.264   6.351  17.409  0.00  0.00    +0.000 A 
ATOM     12  N   UNL     1       4.192   5.326  18.273  0.00  0.00    +0.000 NA
ATOM     13  N   UNL     1       1.914   4.134  20.831  0.00  0.00    +0.000 NA
ENDROOT
BRANCH   9  14
ATOM     14  C   UNL     1       1.538   8.671  18.445  0.00  0.00    +0.000 C 
ATOM     15  C   UNL     1       1.967   9.991  17.868  0.00  0.00    +0.000 C 
ATOM     16  C   UNL     1       1.892   9.831  19.363  0.00  0.00    +0.000 C 
BRANCH  16  17
ATOM     17  C   UNL     1       0.772  10.529  20.137  0.00  0.00    +0.000 A 
ATOM     18  N   UNL     1      -0.041  11.442  19.643  0.00  0.00    +0.000 NA
ATOM     19  C   UNL     1      -0.904  11.762  20.674  0.00  0.00    +0.000 A 
ATOM     20  C   UNL     1      -2.006  12.634  20.698  0.00  0.00    +0.000 A 
ATOM     21  C   UNL     1      -2.766  12.740  21.874  0.00  0.00    +0.000 A 
ATOM     22  C   UNL     1      -2.412  12.030  23.020  0.00  0.00    +0.000 A 
ATOM     23  C   UNL     1      -1.300  11.181  23.026  0.00  0.00    +0.000 A 
ATOM     24  C   UNL     1      -0.586  11.051  21.828  0.00  0.00    +0.000 A 
ATOM     25  N   UNL     1       0.468  10.255  21.449  0.00  0.00    +0.000 N 
ATOM     26  C   UNL     1       1.062   9.200  22.226  0.00  0.00    +0.000 C 
ENDBRANCH  16  17
ENDBRANCH   9  14
BRANCH  11  27
ATOM     27  C   UNL     1       5.299   6.252  16.281  0.00  0.00    +0.000 C 
ATOM     28  C   UNL     1       6.692   6.643  16.781  0.00  0.00    +0.000 C 
ATOM     29  C   UNL     1       5.325   4.826  15.716  0.00  0.00    +0.000 C 
BRANCH  27  30
ATOM     30  O   UNL     1       4.976   7.140  15.196  0.00  0.00    +0.000 OA
ATOM     31  H   UNL     1       5.726   7.065  14.572  0.00  0.00    +0.000 HD
ENDBRANCH  27  30
ENDBRANCH  11  27
TORSDOF 4
ENDMDL
MODEL 3
REMARK VINA RESULT:      -8.0      2.035      2.083
REMARK  Name = 
REMARK  9 active torsions:
REMARK  status: ('A' for Active; 'I' for Inactive)
REMARK    1  A    between atoms: C_1  and  C_2
REMARK    2  A    between atoms: C_4  and  C_5
REMARK    3  A    between atoms: C_9  and  C_10
REMARK    4  A    between atoms: C_12  and  C_13
REMARK    5  A    between atoms: N_21  and  C_22
REMARK    6  A    between atoms: C_24  and  C_25
REMARK    7  A    between atoms: C_25  and  C_26
REMARK    8  A    between atoms: C_25  and  C_27
REMARK    9  A    between atoms: C_25  and  O_28
REMARK                            x       y       z     vdW  Elec       q    Type
REMARK                         _______ _______ _______ _____ _____    ______ ____
ROOT
ATOM      1  C   UNL     1      -1.196  15.244  24.845  0.00  0.00    +0.000 C 
ATOM      2  C   UNL     1      -1.705  14.615  23.610  0.00  0.00    +0.000 A 
ATOM      3  N   UNL     1      -2.646  15.201  22.816  0.00  0.00    +0.000 NA
ATOM      4  C   UNL     1      -2.797  14.341  21.826  0.00  0.00    +0.000 A 
ATOM      5  C   UNL     1      -3.768  14.466  20.711  0.00  0.00    +0.000 C 
ATOM      6  N   UNL     1      -1.932  13.274  22.010  0.00  0.00    +0.000 N 
ATOM      7  C   UNL     1      -1.663  12.173  21.151  0.00  0.00    +0.000 A 
ATOM      8  C   UNL     1      -0.851  11.152  21.605  0.00  0.00    +0.000 A 
ATOM      9  C   UNL     1      -0.564  10.114  20.737  0.00  0.00    +0.000 A 
ATOM     10  N   UNL     1      -1.047  10.127  19.467  0.00  0.00    +0.000 NA
ATOM     11  C   UNL     1      -1.830  11.171  19.095  0.00  0.00    +0.000 A 
ATOM     12  N   UNL     1      -2.180  12.184  19.904  0.00  0.00    +0.000 NA
ATOM     13  N   UNL     1      -1.267  13.429  23.186  0.00  0.00    +0.000 NA
ENDROOT
BRANCH   9  14
ATOM     14  C   UNL     1       0.297   8.952  21.202  0.00  0.00    +0.000 C 
ATOM     15  C   UNL     1       1.690   9.199  21.708  0.00  0.00    +0.000 C 
ATOM     16  C   UNL     1       1.500   8.535  20.371  0.00  0.00    +0.000 C 
BRANCH  16  17
ATOM     17  C   UNL     1       1.814   7.045  20.222  0.00  0.00    +0.000 A 
ATOM     18  N   UNL     1       1.427   6.098  21.054  0.00  0.00    +0.000 NA
ATOM     19  C   UNL     1       1.900   4.917  20.513  0.00  0.00    +0.000 A 
ATOM     20  C   UNL     1       1.738   3.590  20.947  0.00  0.00    +0.000 A 
ATOM     21  C   UNL     1       2.281   2.550  20.176  0.00  0.00    +0.000 A 
ATOM     22  C   UNL     1       3.011   2.823  19.020  0.00  0.00    +0.000 A 
ATOM     23  C   UNL     1       3.211   4.138  18.589  0.00  0.00    +0.000 A 
ATOM     24  C   UNL     1       2.619   5.158  19.345  0.00  0.00    +0.000 A 
ATOM     25  N   UNL     1       2.525   6.518  19.170  0.00  0.00    +0.000 N 
ATOM     26  C   UNL     1       2.952   7.260  18.015  0.00  0.00    +0.000 C 
ENDBRANCH  16  17
ENDBRANCH   9  14
BRANCH  11  27
ATOM     27  C   UNL     1      -2.289  11.245  17.634  0.00  0.00    +0.000 C 
ATOM     28  C   UNL     1      -1.970   9.943  16.894  0.00  0.00    +0.000 C 
ATOM     29  C   UNL     1      -3.795  11.529  17.570  0.00  0.00    +0.000 C 
BRANCH  27  30
ATOM     30  O   UNL     1      -1.619  12.306  16.929  0.00  0.00    +0.000 OA
ATOM     31  H   UNL     1      -2.199  12.513  16.168  0.00  0.00    +0.000 HD
ENDBRANCH  27  30
ENDBRANCH  11  27
TORSDOF 4
ENDMDL
MODEL 4
REMARK VINA RESULT:      -8.0      2.813      8.628
REMARK  Name = 
REMARK  9 active torsions:
REMARK  status: ('A' for Active; 'I' for Inactive)
REMARK    1  A    between atoms: C_1  and  C_2
REMARK    2  A    between atoms: C_4  and  C_5
REMARK    3  A    between atoms: C_9  and  C_10
REMARK    4  A    between atoms: C_12  and  C_13
REMARK    5  A    between atoms: N_21  and  C_22
REMARK    6  A    between atoms: C_24  and  C_25
REMARK    7  A    between atoms: C_25  and  C_26
REMARK    8  A    between atoms: C_25  and  C_27
REMARK    9  A    between atoms: C_25  and  O_28
REMARK                            x       y       z     vdW  Elec       q    Type
REMARK                         _______ _______ _______ _____ _____    ______ ____
ROOT
ATOM      1  C   UNL     1       7.617   7.592  17.029  0.00  0.00    +0.000 C 
ATOM      2  C   UNL     1       6.478   6.683  17.266  0.00  0.00    +0.000 A 
ATOM      3  N   UNL     1       6.412   5.428  16.738  0.00  0.00    +0.000 NA
ATOM      4  C   UNL     1       5.272   4.953  17.205  0.00  0.00    +0.000 A 
ATOM      5  C   UNL     1       4.683   3.634  16.873  0.00  0.00    +0.000 C 
ATOM      6  N   UNL     1       4.685   5.901  18.028  0.00  0.00    +0.000 N 
ATOM      7  C   UNL     1       3.517   5.796  18.834  0.00  0.00    +0.000 A 
ATOM      8  C   UNL     1       3.043   6.923  19.476  0.00  0.00    +0.000 A 
ATOM      9  C   UNL     1       1.934   6.788  20.292  0.00  0.00    +0.000 A 
ATOM     10  N   UNL     1       1.358   5.571  20.473  0.00  0.00    +0.000 NA
ATOM     11  C   UNL     1       1.889   4.511  19.813  0.00  0.00    +0.000 A 
ATOM     12  N   UNL     1       2.935   4.586  18.974  0.00  0.00    +0.000 NA
ATOM     13  N   UNL     1       5.438   7.033  18.025  0.00  0.00    +0.000 NA
ENDROOT
BRANCH   9  14
ATOM     14  C   UNL     1       1.355   8.006  20.993  0.00  0.00    +0.000 C 
ATOM     15  C   UNL     1      -0.083   8.014  21.427  0.00  0.00    +0.000 C 
ATOM     16  C   UNL     1       0.340   8.873  20.265  0.00  0.00    +0.000 C 
BRANCH  16  17
ATOM     17  C   UNL     1       0.405  10.392  20.439  0.00  0.00    +0.000 A 
ATOM     18  N   UNL     1      -0.077  11.062  21.468  0.00  0.00    +0.000 NA
ATOM     19  C   UNL     1       0.235  12.386  21.222  0.00  0.00    +0.000 A 
ATOM     20  C   UNL     1       0.014  13.531  22.006  0.00  0.00    +0.000 A 
ATOM     21  C   UNL     1       0.485  14.772  21.548  0.00  0.00    +0.000 A 
ATOM     22  C   UNL     1       1.123  14.883  20.314  0.00  0.00    +0.000 A 
ATOM     23  C   UNL     1       1.325  13.760  19.504  0.00  0.00    +0.000 A 
ATOM     24  C   UNL     1       0.892  12.524  20.003  0.00  0.00    +0.000 A 
ATOM     25  N   UNL     1       1.009  11.236  19.539  0.00  0.00    +0.000 N 
ATOM     26  C   UNL     1       1.767  10.808  18.393  0.00  0.00    +0.000 C 
ENDBRANCH  16  17
ENDBRANCH   9  14
BRANCH  11  27
ATOM     27  C   UNL     1       1.310   3.120  20.097  0.00  0.00    +0.000 C 
ATOM     28  C   UNL     1       2.018   2.052  19.259  0.00  0.00    +0.000 C 
ATOM     29  C   UNL     1       1.444   2.790  21.589  0.00  0.00    +0.000 C 
BRANCH  27  30
ATOM     30  O   UNL     1      -0.089   3.058  19.765  0.00  0.00    +0.000 OA
ATOM     31  H   UNL     1      -0.120   3.052  18.787  0.00  0.00    +0.000 HD
ENDBRANCH  27  30
ENDBRANCH  11  27
TORSDOF 4
ENDMDL
MODEL 5
REMARK VINA RESULT:      -7.7      3.370      8.444
REMARK  Name = 
REMARK  9 active torsions:
REMARK  status: ('A' for Active; 'I' for Inactive)
REMARK    1  A    between atoms: C_1  and  C_2
REMARK    2  A    between atoms: C_4  and  C_5
REMARK    3  A    between atoms: C_9  and  C_10
REMARK    4  A    between atoms: C_12  and  C_13
REMARK    5  A    between atoms: N_21  and  C_22
REMARK    6  A    between atoms: C_24  and  C_25
REMARK    7  A    between atoms: C_25  and  C_26
REMARK    8  A    between atoms: C_25  and  C_27
REMARK    9  A    between atoms: C_25  and  O_28
REMARK                            x       y       z     vdW  Elec       q    Type
REMARK                         _______ _______ _______ _____ _____    ______ ____
ROOT
ATOM      1  C   UNL     1       8.424   8.918  17.553  0.00  0.00    +0.000 C 
ATOM      2  C   UNL     1       7.496   7.776  17.432  0.00  0.00    +0.000 A 
ATOM      3  N   UNL     1       7.914   6.511  17.143  0.00  0.00    +0.000 NA
ATOM      4  C   UNL     1       6.798   5.805  17.155  0.00  0.00    +0.000 A 
ATOM      5  C   UNL     1       6.683   4.363  16.829  0.00  0.00    +0.000 C 
ATOM      6  N   UNL     1       5.735   6.633  17.481  0.00  0.00    +0.000 N 
ATOM      7  C   UNL     1       4.374   6.299  17.720  0.00  0.00    +0.000 A 
ATOM      8  C   UNL     1       3.457   7.316  17.903  0.00  0.00    +0.000 A 
ATOM      9  C   UNL     1       2.147   6.970  18.182  0.00  0.00    +0.000 A 
ATOM     10  N   UNL     1       1.793   5.663  18.301  0.00  0.00    +0.000 NA
ATOM     11  C   UNL     1       2.754   4.724  18.115  0.00  0.00    +0.000 A 
ATOM     12  N   UNL     1       4.031   4.996  17.800  0.00  0.00    +0.000 NA
ATOM     13  N   UNL     1       6.180   7.911  17.609  0.00  0.00    +0.000 NA
ENDROOT
BRANCH   9  14
ATOM     14  C   UNL     1       1.096   8.053  18.357  0.00  0.00    +0.000 C 
ATOM     15  C   UNL     1       1.088   9.250  17.449  0.00  0.00    +0.000 C 
ATOM     16  C   UNL     1       1.512   9.417  18.884  0.00  0.00    +0.000 C 
BRANCH  16  17
ATOM     17  C   UNL     1       0.586  10.146  19.860  0.00  0.00    +0.000 A 
ATOM     18  N   UNL     1      -0.238  11.125  19.542  0.00  0.00    +0.000 NA
ATOM     19  C   UNL     1      -0.893  11.450  20.714  0.00  0.00    +0.000 A 
ATOM     20  C   UNL     1      -1.916  12.384  20.954  0.00  0.00    +0.000 A 
ATOM     21  C   UNL     1      -2.459  12.484  22.245  0.00  0.00    +0.000 A 
ATOM     22  C   UNL     1      -1.964  11.705  23.291  0.00  0.00    +0.000 A 
ATOM     23  C   UNL     1      -0.925  10.793  23.080  0.00  0.00    +0.000 A 
ATOM     24  C   UNL     1      -0.433  10.673  21.773  0.00  0.00    +0.000 A 
ATOM     25  N   UNL     1       0.489   9.834  21.195  0.00  0.00    +0.000 N 
ATOM     26  C   UNL     1       1.136   8.713  21.825  0.00  0.00    +0.000 C 
ENDBRANCH  16  17
ENDBRANCH   9  14
BRANCH  11  27
ATOM     27  C   UNL     1       2.384   3.255  18.354  0.00  0.00    +0.000 C 
ATOM     28  C   UNL     1       3.472   2.541  19.160  0.00  0.00    +0.000 C 
ATOM     29  C   UNL     1       1.042   3.165  19.091  0.00  0.00    +0.000 C 
BRANCH  27  30
ATOM     30  O   UNL     1       2.243   2.543  17.112  0.00  0.00    +0.000 OA
ATOM     31  H   UNL     1       3.138   2.206  16.906  0.00  0.00    +0.000 HD
ENDBRANCH  27  30
ENDBRANCH  11  27
TORSDOF 4
ENDMDL
MODEL 6
REMARK VINA RESULT:      -7.7      3.163      9.228
REMARK  Name = 
REMARK  9 active torsions:
REMARK  status: ('A' for Active; 'I' for Inactive)
REMARK    1  A    between atoms: C_1  and  C_2
REMARK    2  A    between atoms: C_4  and  C_5
REMARK    3  A    between atoms: C_9  and  C_10
REMARK    4  A    between atoms: C_12  and  C_13
REMARK    5  A    between atoms: N_21  and  C_22
REMARK    6  A    between atoms: C_24  and  C_25
REMARK    7  A    between atoms: C_25  and  C_26
REMARK    8  A    between atoms: C_25  and  C_27
REMARK    9  A    between atoms: C_25  and  O_28
REMARK                            x       y       z     vdW  Elec       q    Type
REMARK                         _______ _______ _______ _____ _____    ______ ____
ROOT
ATOM      1  C   UNL     1       0.276   1.918  18.991  0.00  0.00    +0.000 C 
ATOM      2  C   UNL     1       1.547   2.668  18.991  0.00  0.00    +0.000 A 
ATOM      3  N   UNL     1       2.746   2.089  19.284  0.00  0.00    +0.000 NA
ATOM      4  C   UNL     1       3.611   3.078  19.146  0.00  0.00    +0.000 A 
ATOM      5  C   UNL     1       5.066   3.000  19.421  0.00  0.00    +0.000 C 
ATOM      6  N   UNL     1       2.939   4.221  18.743  0.00  0.00    +0.000 N 
ATOM      7  C   UNL     1       3.462   5.488  18.365  0.00  0.00    +0.000 A 
ATOM      8  C   UNL     1       2.587   6.529  18.123  0.00  0.00    +0.000 A 
ATOM      9  C   UNL     1       3.114   7.740  17.711  0.00  0.00    +0.000 A 
ATOM     10  N   UNL     1       4.453   7.878  17.522  0.00  0.00    +0.000 NA
ATOM     11  C   UNL     1       5.244   6.805  17.774  0.00  0.00    +0.000 A 
ATOM     12  N   UNL     1       4.797   5.619  18.217  0.00  0.00    +0.000 NA
ATOM     13  N   UNL     1       1.603   3.967  18.693  0.00  0.00    +0.000 NA
ENDROOT
BRANCH   9  14
ATOM     14  C   UNL     1       2.194   8.924  17.465  0.00  0.00    +0.000 C 
ATOM     15  C   UNL     1       2.581  10.293  17.948  0.00  0.00    +0.000 C 
ATOM     16  C   UNL     1       1.464   9.557  18.639  0.00  0.00    +0.000 C 
BRANCH  16  17
ATOM     17  C   UNL     1       0.021  10.029  18.444  0.00  0.00    +0.000 A 
ATOM     18  N   UNL     1      -0.818   9.560  17.542  0.00  0.00    +0.000 NA
ATOM     19  C   UNL     1      -2.001  10.243  17.751  0.00  0.00    +0.000 A 
ATOM     20  C   UNL     1      -3.250  10.113  17.119  0.00  0.00    +0.000 A 
ATOM     21  C   UNL     1      -4.325  10.900  17.562  0.00  0.00    +0.000 A 
ATOM     22  C   UNL     1      -4.154  11.832  18.585  0.00  0.00    +0.000 A 
ATOM     23  C   UNL     1      -2.912  12.000  19.205  0.00  0.00    +0.000 A 
ATOM     24  C   UNL     1      -1.866  11.170  18.782  0.00  0.00    +0.000 A 
ATOM     25  N   UNL     1      -0.576  10.993  19.221  0.00  0.00    +0.000 N 
ATOM     26  C   UNL     1       0.017  11.588  20.389  0.00  0.00    +0.000 C 
ENDBRANCH  16  17
ENDBRANCH   9  14
BRANCH  11  27
ATOM     27  C   UNL     1       6.740   6.923  17.461  0.00  0.00    +0.000 C 
ATOM     28  C   UNL     1       7.203   8.380  17.538  0.00  0.00    +0.000 C 
ATOM     29  C   UNL     1       7.551   6.063  18.440  0.00  0.00    +0.000 C 
BRANCH  27  30
ATOM     30  O   UNL     1       7.035   6.456  16.132  0.00  0.00    +0.000 OA
ATOM     31  H   UNL     1       7.045   7.260  15.574  0.00  0.00    +0.000 HD
ENDBRANCH  27  30
ENDBRANCH  11  27
TORSDOF 4
ENDMDL
MODEL 7
REMARK VINA RESULT:      -7.5      2.581      3.444
REMARK  Name = 
REMARK  9 active torsions:
REMARK  status: ('A' for Active; 'I' for Inactive)
REMARK    1  A    between atoms: C_1  and  C_2
REMARK    2  A    between atoms: C_4  and  C_5
REMARK    3  A    between atoms: C_9  and  C_10
REMARK    4  A    between atoms: C_12  and  C_13
REMARK    5  A    between atoms: N_21  and  C_22
REMARK    6  A    between atoms: C_24  and  C_25
REMARK    7  A    between atoms: C_25  and  C_26
REMARK    8  A    between atoms: C_25  and  C_27
REMARK    9  A    between atoms: C_25  and  O_28
REMARK                            x       y       z     vdW  Elec       q    Type
REMARK                         _______ _______ _______ _____ _____    ______ ____
ROOT
ATOM      1  C   UNL     1      -4.636  12.564  25.208  0.00  0.00    +0.000 C 
ATOM      2  C   UNL     1      -3.970  12.787  23.910  0.00  0.00    +0.000 A 
ATOM      3  N   UNL     1      -4.190  13.897  23.148  0.00  0.00    +0.000 NA
ATOM      4  C   UNL     1      -3.397  13.721  22.107  0.00  0.00    +0.000 A 
ATOM      5  C   UNL     1      -3.304  14.617  20.928  0.00  0.00    +0.000 C 
ATOM      6  N   UNL     1      -2.690  12.539  22.264  0.00  0.00    +0.000 N 
ATOM      7  C   UNL     1      -1.649  11.998  21.460  0.00  0.00    +0.000 A 
ATOM      8  C   UNL     1      -1.176  10.731  21.740  0.00  0.00    +0.000 A 
ATOM      9  C   UNL     1      -0.131  10.243  20.976  0.00  0.00    +0.000 A 
ATOM     10  N   UNL     1       0.426  11.011  20.003  0.00  0.00    +0.000 NA
ATOM     11  C   UNL     1      -0.089  12.249  19.796  0.00  0.00    +0.000 A 
ATOM     12  N   UNL     1      -1.130  12.761  20.474  0.00  0.00    +0.000 NA
ATOM     13  N   UNL     1      -3.098  11.915  23.401  0.00  0.00    +0.000 NA
ENDROOT
BRANCH   9  14
ATOM     14  C   UNL     1       0.400   8.841  21.224  0.00  0.00    +0.000 C 
ATOM     15  C   UNL     1       1.579   8.629  22.131  0.00  0.00    +0.000 C 
ATOM     16  C   UNL     1       1.748   8.441  20.647  0.00  0.00    +0.000 C 
BRANCH  16  17
ATOM     17  C   UNL     1       1.922   7.029  20.085  0.00  0.00    +0.000 A 
ATOM     18  N   UNL     1       1.565   5.916  20.697  0.00  0.00    +0.000 NA
ATOM     19  C   UNL     1       1.874   4.897  19.815  0.00  0.00    +0.000 A 
ATOM     20  C   UNL     1       1.660   3.512  19.918  0.00  0.00    +0.000 A 
ATOM     21  C   UNL     1       2.020   2.685  18.843  0.00  0.00    +0.000 A 
ATOM     22  C   UNL     1       2.623   3.215  17.703  0.00  0.00    +0.000 A 
ATOM     23  C   UNL     1       2.873   4.587  17.595  0.00  0.00    +0.000 A 
ATOM     24  C   UNL     1       2.461   5.401  18.658  0.00  0.00    +0.000 A 
ATOM     25  N   UNL     1       2.456   6.762  18.846  0.00  0.00    +0.000 N 
ATOM     26  C   UNL     1       2.796   7.760  17.868  0.00  0.00    +0.000 C 
ENDBRANCH  16  17
ENDBRANCH   9  14
BRANCH  11  27
ATOM     27  C   UNL     1       0.604  13.158  18.775  0.00  0.00    +0.000 C 
ATOM     28  C   UNL     1       0.685  14.598  19.290  0.00  0.00    +0.000 C 
ATOM     29  C   UNL     1       2.012  12.630  18.472  0.00  0.00    +0.000 C 
BRANCH  27  30
ATOM     30  O   UNL     1      -0.120  13.195  17.532  0.00  0.00    +0.000 OA
ATOM     31  H   UNL     1      -0.716  12.419  17.559  0.00  0.00    +0.000 HD
ENDBRANCH  27  30
ENDBRANCH  11  27
TORSDOF 4
ENDMDL
MODEL 8
REMARK VINA RESULT:      -7.4      2.837      8.799
REMARK  Name = 
REMARK  9 active torsions:
REMARK  status: ('A' for Active; 'I' for Inactive)
REMARK    1  A    between atoms: C_1  and  C_2
REMARK    2  A    between atoms: C_4  and  C_5
REMARK    3  A    between atoms: C_9  and  C_10
REMARK    4  A    between atoms: C_12  and  C_13
REMARK    5  A    between atoms: N_21  and  C_22
REMARK    6  A    between atoms: C_24  and  C_25
REMARK    7  A    between atoms: C_25  and  C_26
REMARK    8  A    between atoms: C_25  and  C_27
REMARK    9  A    between atoms: C_25  and  O_28
REMARK                            x       y       z     vdW  Elec       q    Type
REMARK                         _______ _______ _______ _____ _____    ______ ____
ROOT
ATOM      1  C   UNL     1       7.700   7.394  16.927  0.00  0.00    +0.000 C 
ATOM      2  C   UNL     1       6.533   6.524  17.174  0.00  0.00    +0.000 A 
ATOM      3  N   UNL     1       6.415   5.276  16.638  0.00  0.00    +0.000 NA
ATOM      4  C   UNL     1       5.266   4.838  17.120  0.00  0.00    +0.000 A 
ATOM      5  C   UNL     1       4.625   3.543  16.786  0.00  0.00    +0.000 C 
ATOM      6  N   UNL     1       4.725   5.800  17.958  0.00  0.00    +0.000 N 
ATOM      7  C   UNL     1       3.566   5.730  18.780  0.00  0.00    +0.000 A 
ATOM      8  C   UNL     1       3.141   6.868  19.437  0.00  0.00    +0.000 A 
ATOM      9  C   UNL     1       2.041   6.767  20.269  0.00  0.00    +0.000 A 
ATOM     10  N   UNL     1       1.424   5.569  20.450  0.00  0.00    +0.000 NA
ATOM     11  C   UNL     1       1.908   4.496  19.774  0.00  0.00    +0.000 A 
ATOM     12  N   UNL     1       2.944   4.540  18.921  0.00  0.00    +0.000 NA
ATOM     13  N   UNL     1       5.518   6.905  17.951  0.00  0.00    +0.000 NA
ENDROOT
BRANCH   9  14
ATOM     14  C   UNL     1       1.516   7.999  20.986  0.00  0.00    +0.000 C 
ATOM     15  C   UNL     1       0.109   8.022  21.515  0.00  0.00    +0.000 C 
ATOM     16  C   UNL     1       0.458   8.860  20.313  0.00  0.00    +0.000 C 
BRANCH  16  17
ATOM     17  C   UNL     1       0.542  10.381  20.458  0.00  0.00    +0.000 A 
ATOM     18  N   UNL     1       1.096  11.200  19.586  0.00  0.00    +0.000 NA
ATOM     19  C   UNL     1       0.911  12.468  20.104  0.00  0.00    +0.000 A 
ATOM     20  C   UNL     1       1.249  13.724  19.572  0.00  0.00    +0.000 A 
ATOM     21  C   UNL     1       0.897  14.882  20.283  0.00  0.00    +0.000 A 
ATOM     22  C   UNL     1       0.261  14.796  21.521  0.00  0.00    +0.000 A 
ATOM     23  C   UNL     1      -0.055  13.554  22.082  0.00  0.00    +0.000 A 
ATOM     24  C   UNL     1       0.261  12.413  21.333  0.00  0.00    +0.000 A 
ATOM     25  N   UNL     1       0.015  11.074  21.522  0.00  0.00    +0.000 N 
ATOM     26  C   UNL     1      -0.791  10.493  22.562  0.00  0.00    +0.000 C 
ENDBRANCH  16  17
ENDBRANCH   9  14
BRANCH  11  27
ATOM     27  C   UNL     1       1.284   3.125  20.057  0.00  0.00    +0.000 C 
ATOM     28  C   UNL     1       1.955   2.035  19.215  0.00  0.00    +0.000 C 
ATOM     29  C   UNL     1       1.411   2.787  21.548  0.00  0.00    +0.000 C 
BRANCH  27  30
ATOM     30  O   UNL     1      -0.117   3.109  19.728  0.00  0.00    +0.000 OA
ATOM     31  H   UNL     1      -0.208   3.719  18.968  0.00  0.00    +0.000 HD
ENDBRANCH  27  30
ENDBRANCH  11  27
TORSDOF 4
ENDMDL
MODEL 9
REMARK VINA RESULT:      -7.4      2.371      2.710
REMARK  Name = 
REMARK  9 active torsions:
REMARK  status: ('A' for Active; 'I' for Inactive)
REMARK    1  A    between atoms: C_1  and  C_2
REMARK    2  A    between atoms: C_4  and  C_5
REMARK    3  A    between atoms: C_9  and  C_10
REMARK    4  A    between atoms: C_12  and  C_13
REMARK    5  A    between atoms: N_21  and  C_22
REMARK    6  A    between atoms: C_24  and  C_25
REMARK    7  A    between atoms: C_25  and  C_26
REMARK    8  A    between atoms: C_25  and  C_27
REMARK    9  A    between atoms: C_25  and  O_28
REMARK                            x       y       z     vdW  Elec       q    Type
REMARK                         _______ _______ _______ _____ _____    ______ ____
ROOT
ATOM      1  C   UNL     1      -1.427  14.324  23.942  0.00  0.00    +0.000 C 
ATOM      2  C   UNL     1      -1.968  13.630  22.756  0.00  0.00    +0.000 A 
ATOM      3  N   UNL     1      -3.231  13.842  22.288  0.00  0.00    +0.000 NA
ATOM      4  C   UNL     1      -3.302  13.064  21.223  0.00  0.00    +0.000 A 
ATOM      5  C   UNL     1      -4.502  12.864  20.375  0.00  0.00    +0.000 C 
ATOM      6  N   UNL     1      -2.086  12.424  21.041  0.00  0.00    +0.000 N 
ATOM      7  C   UNL     1      -1.659  11.585  19.975  0.00  0.00    +0.000 A 
ATOM      8  C   UNL     1      -0.438  10.947  20.072  0.00  0.00    +0.000 A 
ATOM      9  C   UNL     1      -0.021  10.175  19.003  0.00  0.00    +0.000 A 
ATOM     10  N   UNL     1      -0.786  10.080  17.884  0.00  0.00    +0.000 NA
ATOM     11  C   UNL     1      -1.969  10.744  17.864  0.00  0.00    +0.000 A 
ATOM     12  N   UNL     1      -2.447  11.473  18.885  0.00  0.00    +0.000 NA
ATOM     13  N   UNL     1      -1.245  12.751  22.059  0.00  0.00    +0.000 NA
ENDROOT
BRANCH   9  14
ATOM     14  C   UNL     1       1.300   9.426  19.077  0.00  0.00    +0.000 C 
ATOM     15  C   UNL     1       2.353   9.649  18.029  0.00  0.00    +0.000 C 
ATOM     16  C   UNL     1       1.602   8.344  18.052  0.00  0.00    +0.000 C 
BRANCH  16  17
ATOM     17  C   UNL     1       2.321   7.074  18.510  0.00  0.00    +0.000 A 
ATOM     18  N   UNL     1       1.884   6.242  19.436  0.00  0.00    +0.000 NA
ATOM     19  C   UNL     1       2.824   5.231  19.494  0.00  0.00    +0.000 A 
ATOM     20  C   UNL     1       2.845   4.054  20.263  0.00  0.00    +0.000 A 
ATOM     21  C   UNL     1       3.903   3.148  20.093  0.00  0.00    +0.000 A 
ATOM     22  C   UNL     1       4.947   3.424  19.211  0.00  0.00    +0.000 A 
ATOM     23  C   UNL     1       4.961   4.605  18.460  0.00  0.00    +0.000 A 
ATOM     24  C   UNL     1       3.870   5.471  18.608  0.00  0.00    +0.000 A 
ATOM     25  N   UNL     1       3.510   6.638  17.976  0.00  0.00    +0.000 N 
ATOM     26  C   UNL     1       4.167   7.231  16.843  0.00  0.00    +0.000 C 
ENDBRANCH  16  17
ENDBRANCH   9  14
BRANCH  11  27
ATOM     27  C   UNL     1      -2.784  10.727  16.565  0.00  0.00    +0.000 C 
ATOM     28  C   UNL     1      -2.681   9.367  15.871  0.00  0.00    +0.000 C 
ATOM     29  C   UNL     1      -4.253  11.054  16.864  0.00  0.00    +0.000 C 
BRANCH  27  30
ATOM     30  O   UNL     1      -2.303  11.714  15.634  0.00  0.00    +0.000 OA
ATOM     31  H   UNL     1      -3.108  12.143  15.278  0.00  0.00    +0.000 HD
ENDBRANCH  27  30
ENDBRANCH  11  27
TORSDOF 4
ENDMDL
