MODEL 1
REMARK VINA RESULT:      -8.3      0.000      0.000
REMARK  Name = 
REMARK  5 active torsions:
REMARK  status: ('A' for Active; 'I' for Inactive)
REMARK    1  A    between atoms: C_1  and  C_2
REMARK    2  A    between atoms: C_9  and  O_10
REMARK    3  A    between atoms: O_10  and  C_11
REMARK    4  A    between atoms: C_11  and  C_12
REMARK    5  A    between atoms: C_14  and  C_15
REMARK                            x       y       z     vdW  Elec       q    Type
REMARK                         _______ _______ _______ _____ _____    ______ ____
ROOT
ATOM      1  O   UNL     1       0.889  10.238  19.880  0.00  0.00    +0.000 OA
ENDROOT
BRANCH   1  10
ATOM      2  C   UNL     1      -5.134  12.493  18.543  0.00  0.00    +0.000 C 
ATOM      3  C   UNL     1      -4.154  11.682  17.749  0.00  0.00    +0.000 A 
ATOM      4  C   UNL     1      -4.441  11.260  16.509  0.00  0.00    +0.000 A 
ATOM      5  C   UNL     1      -3.522  10.459  15.690  0.00  0.00    +0.000 A 
ATOM      6  O   UNL     1      -3.836  10.102  14.559  0.00  0.00    +0.000 OA
ATOM      7  O   UNL     1      -2.304  10.130  16.256  0.00  0.00    +0.000 OA
ATOM      8  C   UNL     1      -1.969  10.560  17.556  0.00  0.00    +0.000 A 
ATOM      9  C   UNL     1      -0.711  10.168  18.019  0.00  0.00    +0.000 A 
ATOM     10  C   UNL     1      -0.304  10.553  19.291  0.00  0.00    +0.000 A 
ATOM     11  C   UNL     1      -1.164  11.326  20.075  0.00  0.00    +0.000 A 
ATOM     12  C   UNL     1      -2.424  11.711  19.597  0.00  0.00    +0.000 A 
ATOM     13  C   UNL     1      -2.848  11.328  18.321  0.00  0.00    +0.000 A 
ENDBRANCH   1  10
BRANCH   1  14
ATOM     14  C   UNL     1       0.877   9.149  20.802  0.00  0.00    +0.000 C 
BRANCH  14  15
ATOM     15  C   UNL     1       1.576   8.029  20.141  0.00  0.00    +0.000 A 
ATOM     16  C   UNL     1       2.267   7.911  18.963  0.00  0.00    +0.000 A 
ATOM     17  C   UNL     1       2.726   6.567  18.941  0.00  0.00    +0.000 A 
ATOM     18  N   UNL     1       2.330   5.925  20.052  0.00  0.00    +0.000 NA
ATOM     19  O   UNL     1       1.604   6.839  20.793  0.00  0.00    +0.000 OA
BRANCH  17  20
ATOM     20  C   UNL     1       3.542   5.931  17.910  0.00  0.00    +0.000 A 
ATOM     21  C   UNL     1       3.397   4.566  17.619  0.00  0.00    +0.000 A 
ATOM     22  C   UNL     1       4.232   3.946  16.683  0.00  0.00    +0.000 A 
ATOM     23  C   UNL     1       5.211   4.691  16.028  0.00  0.00    +0.000 A 
ATOM     24 CL   UNL     1       6.259   3.925  14.899  0.00  0.00    +0.000 Cl
ATOM     25  C   UNL     1       5.351   6.051  16.285  0.00  0.00    +0.000 A 
ATOM     26  C   UNL     1       4.518   6.669  17.221  0.00  0.00    +0.000 A 
ENDBRANCH  17  20
ENDBRANCH  14  15
ENDBRANCH   1  14
TORSDOF 4
ENDMDL
MODEL 2
REMARK VINA RESULT:      -8.2      4.417      9.141
REMARK  Name = 
REMARK  5 active torsions:
REMARK  status: ('A' for Active; 'I' for Inactive)
REMARK    1  A    between atoms: C_1  and  C_2
REMARK    2  A    between atoms: C_9  and  O_10
REMARK    3  A    between atoms: O_10  and  C_11
REMARK    4  A    between atoms: C_11  and  C_12
REMARK    5  A    between atoms: C_14  and  C_15
REMARK                            x       y       z     vdW  Elec       q    Type
REMARK                         _______ _______ _______ _____ _____    ______ ____
ROOT
ATOM      1  O   UNL     1       2.889   8.380  18.419  0.00  0.00    +0.000 OA
ENDROOT
BRANCH   1  10
ATOM      2  C   UNL     1       3.241   1.834  17.988  0.00  0.00    +0.000 C 
ATOM      3  C   UNL     1       2.758   2.757  19.068  0.00  0.00    +0.000 A 
ATOM      4  C   UNL     1       2.267   2.282  20.222  0.00  0.00    +0.000 A 
ATOM      5  C   UNL     1       1.775   3.139  21.309  0.00  0.00    +0.000 A 
ATOM      6  O   UNL     1       1.338   2.650  22.345  0.00  0.00    +0.000 OA
ATOM      7  O   UNL     1       1.826   4.504  21.101  0.00  0.00    +0.000 OA
ATOM      8  C   UNL     1       2.338   5.037  19.901  0.00  0.00    +0.000 A 
ATOM      9  C   UNL     1       2.341   6.430  19.807  0.00  0.00    +0.000 A 
ATOM     10  C   UNL     1       2.832   7.035  18.656  0.00  0.00    +0.000 A 
ATOM     11  C   UNL     1       3.315   6.231  17.620  0.00  0.00    +0.000 A 
ATOM     12  C   UNL     1       3.306   4.833  17.728  0.00  0.00    +0.000 A 
ATOM     13  C   UNL     1       2.810   4.213  18.878  0.00  0.00    +0.000 A 
ENDBRANCH   1  10
BRANCH   1  14
ATOM     14  C   UNL     1       1.841   8.931  17.622  0.00  0.00    +0.000 C 
BRANCH  14  15
ATOM     15  C   UNL     1       1.122   9.893  18.479  0.00  0.00    +0.000 A 
ATOM     16  C   UNL     1       0.207   9.756  19.492  0.00  0.00    +0.000 A 
ATOM     17  C   UNL     1      -0.059  11.082  19.926  0.00  0.00    +0.000 A 
ATOM     18  N   UNL     1       0.663  11.958  19.209  0.00  0.00    +0.000 NA
ATOM     19  O   UNL     1       1.391  11.212  18.301  0.00  0.00    +0.000 OA
BRANCH  17  20
ATOM     20  C   UNL     1      -0.948  11.493  21.010  0.00  0.00    +0.000 A 
ATOM     21  C   UNL     1      -0.772  10.999  22.312  0.00  0.00    +0.000 A 
ATOM     22  C   UNL     1      -1.671  11.339  23.329  0.00  0.00    +0.000 A 
ATOM     23  C   UNL     1      -2.745  12.182  23.050  0.00  0.00    +0.000 A 
ATOM     24 CL   UNL     1      -3.868  12.578  24.292  0.00  0.00    +0.000 Cl
ATOM     25  C   UNL     1      -2.919  12.702  21.772  0.00  0.00    +0.000 A 
ATOM     26  C   UNL     1      -2.023  12.361  20.756  0.00  0.00    +0.000 A 
ENDBRANCH  17  20
ENDBRANCH  14  15
ENDBRANCH   1  14
TORSDOF 4
ENDMDL
MODEL 3
REMARK VINA RESULT:      -8.1      5.248      7.889
REMARK  Name = 
REMARK  5 active torsions:
REMARK  status: ('A' for Active; 'I' for Inactive)
REMARK    1  A    between atoms: C_1  and  C_2
REMARK    2  A    between atoms: C_9  and  O_10
REMARK    3  A    between atoms: O_10  and  C_11
REMARK    4  A    between atoms: C_11  and  C_12
REMARK    5  A    between atoms: C_14  and  C_15
REMARK                            x       y       z     vdW  Elec       q    Type
REMARK                         _______ _______ _______ _____ _____    ______ ____
ROOT
ATOM      1  O   UNL     1       5.297   5.858  16.019  0.00  0.00    +0.000 OA
ENDROOT
BRANCH   1  10
ATOM      2  C   UNL     1       1.195   3.665  20.658  0.00  0.00    +0.000 C 
ATOM      3  C   UNL     1       1.639   5.043  20.263  0.00  0.00    +0.000 A 
ATOM      4  C   UNL     1       1.177   6.131  20.894  0.00  0.00    +0.000 A 
ATOM      5  C   UNL     1       1.572   7.502  20.545  0.00  0.00    +0.000 A 
ATOM      6  O   UNL     1       1.119   8.463  21.158  0.00  0.00    +0.000 OA
ATOM      7  O   UNL     1       2.465   7.649  19.500  0.00  0.00    +0.000 OA
ATOM      8  C   UNL     1       2.973   6.525  18.817  0.00  0.00    +0.000 A 
ATOM      9  C   UNL     1       3.870   6.798  17.782  0.00  0.00    +0.000 A 
ATOM     10  C   UNL     1       4.418   5.744  17.059  0.00  0.00    +0.000 A 
ATOM     11  C   UNL     1       4.059   4.435  17.390  0.00  0.00    +0.000 A 
ATOM     12  C   UNL     1       3.157   4.177  18.432  0.00  0.00    +0.000 A 
ATOM     13  C   UNL     1       2.596   5.227  19.163  0.00  0.00    +0.000 A 
ENDBRANCH   1  10
BRANCH   1  14
ATOM     14  C   UNL     1       6.625   5.390  16.253  0.00  0.00    +0.000 C 
BRANCH  14  15
ATOM     15  C   UNL     1       7.293   6.416  17.079  0.00  0.00    +0.000 A 
ATOM     16  C   UNL     1       7.520   7.758  16.916  0.00  0.00    +0.000 A 
ATOM     17  C   UNL     1       8.185   8.163  18.104  0.00  0.00    +0.000 A 
ATOM     18  N   UNL     1       8.339   7.115  18.929  0.00  0.00    +0.000 NA
ATOM     19  O   UNL     1       7.790   6.024  18.280  0.00  0.00    +0.000 OA
BRANCH  17  20
ATOM     20  C   UNL     1       8.626   9.511  18.452  0.00  0.00    +0.000 A 
ATOM     21  C   UNL     1       9.235   9.773  19.689  0.00  0.00    +0.000 A 
ATOM     22  C   UNL     1       9.588  11.078  20.046  0.00  0.00    +0.000 A 
ATOM     23  C   UNL     1       9.342  12.128  19.163  0.00  0.00    +0.000 A 
ATOM     24 CL   UNL     1       9.749  13.739  19.610  0.00  0.00    +0.000 Cl
ATOM     25  C   UNL     1       8.764  11.884  17.921  0.00  0.00    +0.000 A 
ATOM     26  C   UNL     1       8.410  10.580  17.566  0.00  0.00    +0.000 A 
ENDBRANCH  17  20
ENDBRANCH  14  15
ENDBRANCH   1  14
TORSDOF 4
ENDMDL
MODEL 4
REMARK VINA RESULT:      -8.1      5.176      9.659
REMARK  Name = 
REMARK  5 active torsions:
REMARK  status: ('A' for Active; 'I' for Inactive)
REMARK    1  A    between atoms: C_1  and  C_2
REMARK    2  A    between atoms: C_9  and  O_10
REMARK    3  A    between atoms: O_10  and  C_11
REMARK    4  A    between atoms: C_11  and  C_12
REMARK    5  A    between atoms: C_14  and  C_15
REMARK                            x       y       z     vdW  Elec       q    Type
REMARK                         _______ _______ _______ _____ _____    ______ ____
ROOT
ATOM      1  O   UNL     1       1.605   7.834  20.839  0.00  0.00    +0.000 OA
ENDROOT
BRANCH   1  10
ATOM      2  C   UNL     1       3.382   2.110  18.151  0.00  0.00    +0.000 C 
ATOM      3  C   UNL     1       3.671   3.536  17.787  0.00  0.00    +0.000 A 
ATOM      4  C   UNL     1       4.439   3.844  16.732  0.00  0.00    +0.000 A 
ATOM      5  C   UNL     1       4.760   5.222  16.335  0.00  0.00    +0.000 A 
ATOM      6  O   UNL     1       5.467   5.446  15.358  0.00  0.00    +0.000 OA
ATOM      7  O   UNL     1       4.234   6.236  17.114  0.00  0.00    +0.000 OA
ATOM      8  C   UNL     1       3.420   5.946  18.228  0.00  0.00    +0.000 A 
ATOM      9  C   UNL     1       2.945   7.053  18.935  0.00  0.00    +0.000 A 
ATOM     10  C   UNL     1       2.134   6.853  20.047  0.00  0.00    +0.000 A 
ATOM     11  C   UNL     1       1.811   5.548  20.427  0.00  0.00    +0.000 A 
ATOM     12  C   UNL     1       2.296   4.447  19.707  0.00  0.00    +0.000 A 
ATOM     13  C   UNL     1       3.116   4.634  18.590  0.00  0.00    +0.000 A 
ENDBRANCH   1  10
BRANCH   1  14
ATOM     14  C   UNL     1       1.057   8.968  20.167  0.00  0.00    +0.000 C 
BRANCH  14  15
ATOM     15  C   UNL     1       0.412   9.800  21.202  0.00  0.00    +0.000 A 
ATOM     16  C   UNL     1      -0.327  10.955  21.160  0.00  0.00    +0.000 A 
ATOM     17  C   UNL     1      -0.684  11.210  22.510  0.00  0.00    +0.000 A 
ATOM     18  N   UNL     1      -0.185  10.253  23.310  0.00  0.00    +0.000 NA
ATOM     19  O   UNL     1       0.506   9.380  22.490  0.00  0.00    +0.000 OA
BRANCH  17  20
ATOM     20  C   UNL     1      -1.501  12.311  23.014  0.00  0.00    +0.000 A 
ATOM     21  C   UNL     1      -0.973  13.606  23.127  0.00  0.00    +0.000 A 
ATOM     22  C   UNL     1      -1.737  14.639  23.679  0.00  0.00    +0.000 A 
ATOM     23  C   UNL     1      -3.037  14.385  24.113  0.00  0.00    +0.000 A 
ATOM     24 CL   UNL     1      -3.968  15.647  24.819  0.00  0.00    +0.000 Cl
ATOM     25  C   UNL     1      -3.585  13.113  23.984  0.00  0.00    +0.000 A 
ATOM     26  C   UNL     1      -2.821  12.080  23.434  0.00  0.00    +0.000 A 
ENDBRANCH  17  20
ENDBRANCH  14  15
ENDBRANCH   1  14
TORSDOF 4
ENDMDL
MODEL 5
REMARK VINA RESULT:      -8.1      7.317      8.782
REMARK  Name = 
REMARK  5 active torsions:
REMARK  status: ('A' for Active; 'I' for Inactive)
REMARK    1  A    between atoms: C_1  and  C_2
REMARK    2  A    between atoms: C_9  and  O_10
REMARK    3  A    between atoms: O_10  and  C_11
REMARK    4  A    between atoms: C_11  and  C_12
REMARK    5  A    between atoms: C_14  and  C_15
REMARK                            x       y       z     vdW  Elec       q    Type
REMARK                         _______ _______ _______ _____ _____    ______ ____
ROOT
ATOM      1  O   UNL     1       5.958   5.649  16.877  0.00  0.00    +0.000 OA
ENDROOT
BRANCH   1  10
ATOM      2  C   UNL     1       2.235   3.724  21.935  0.00  0.00    +0.000 C 
ATOM      3  C   UNL     1       2.133   3.499  20.456  0.00  0.00    +0.000 A 
ATOM      4  C   UNL     1       1.139   2.770  19.928  0.00  0.00    +0.000 A 
ATOM      5  C   UNL     1       0.996   2.512  18.489  0.00  0.00    +0.000 A 
ATOM      6  O   UNL     1       0.064   1.840  18.061  0.00  0.00    +0.000 OA
ATOM      7  O   UNL     1       1.956   3.057  17.657  0.00  0.00    +0.000 OA
ATOM      8  C   UNL     1       3.013   3.830  18.178  0.00  0.00    +0.000 A 
ATOM      9  C   UNL     1       3.919   4.329  17.241  0.00  0.00    +0.000 A 
ATOM     10  C   UNL     1       4.990   5.103  17.673  0.00  0.00    +0.000 A 
ATOM     11  C   UNL     1       5.130   5.366  19.038  0.00  0.00    +0.000 A 
ATOM     12  C   UNL     1       4.212   4.858  19.968  0.00  0.00    +0.000 A 
ATOM     13  C   UNL     1       3.134   4.075  19.547  0.00  0.00    +0.000 A 
ENDBRANCH   1  10
BRANCH   1  14
ATOM     14  C   UNL     1       7.281   5.677  17.411  0.00  0.00    +0.000 C 
BRANCH  14  15
ATOM     15  C   UNL     1       7.611   7.096  17.647  0.00  0.00    +0.000 A 
ATOM     16  C   UNL     1       8.514   7.734  18.459  0.00  0.00    +0.000 A 
ATOM     17  C   UNL     1       8.348   9.115  18.177  0.00  0.00    +0.000 A 
ATOM     18  N   UNL     1       7.397   9.287  17.244  0.00  0.00    +0.000 NA
ATOM     19  O   UNL     1       6.933   8.024  16.924  0.00  0.00    +0.000 OA
BRANCH  17  20
ATOM     20  C   UNL     1       9.094  10.230  18.755  0.00  0.00    +0.000 A 
ATOM     21  C   UNL     1       9.124  10.434  20.143  0.00  0.00    +0.000 A 
ATOM     22  C   UNL     1       9.779  11.545  20.685  0.00  0.00    +0.000 A 
ATOM     23  C   UNL     1      10.416  12.452  19.841  0.00  0.00    +0.000 A 
ATOM     24 CL   UNL     1      11.198  13.835  20.502  0.00  0.00    +0.000 Cl
ATOM     25  C   UNL     1      10.420  12.251  18.464  0.00  0.00    +0.000 A 
ATOM     26  C   UNL     1       9.763  11.143  17.924  0.00  0.00    +0.000 A 
ENDBRANCH  17  20
ENDBRANCH  14  15
ENDBRANCH   1  14
TORSDOF 4
ENDMDL
MODEL 6
REMARK VINA RESULT:      -8.0      5.795      8.140
REMARK  Name = 
REMARK  5 active torsions:
REMARK  status: ('A' for Active; 'I' for Inactive)
REMARK    1  A    between atoms: C_1  and  C_2
REMARK    2  A    between atoms: C_9  and  O_10
REMARK    3  A    between atoms: O_10  and  C_11
REMARK    4  A    between atoms: C_11  and  C_12
REMARK    5  A    between atoms: C_14  and  C_15
REMARK                            x       y       z     vdW  Elec       q    Type
REMARK                         _______ _______ _______ _____ _____    ______ ____
ROOT
ATOM      1  O   UNL     1       5.442   5.400  15.943  0.00  0.00    +0.000 OA
ENDROOT
BRANCH   1  10
ATOM      2  C   UNL     1       1.387   7.198  20.788  0.00  0.00    +0.000 C 
ATOM      3  C   UNL     1       1.911   5.864  20.344  0.00  0.00    +0.000 A 
ATOM      4  C   UNL     1       1.571   4.735  20.982  0.00  0.00    +0.000 A 
ATOM      5  C   UNL     1       2.060   3.405  20.595  0.00  0.00    +0.000 A 
ATOM      6  O   UNL     1       1.713   2.404  21.213  0.00  0.00    +0.000 OA
ATOM      7  O   UNL     1       2.921   3.344  19.515  0.00  0.00    +0.000 OA
ATOM      8  C   UNL     1       3.297   4.512  18.821  0.00  0.00    +0.000 A 
ATOM      9  C   UNL     1       4.169   4.325  17.747  0.00  0.00    +0.000 A 
ATOM     10  C   UNL     1       4.587   5.427  17.009  0.00  0.00    +0.000 A 
ATOM     11  C   UNL     1       4.119   6.696  17.359  0.00  0.00    +0.000 A 
ATOM     12  C   UNL     1       3.243   6.868  18.441  0.00  0.00    +0.000 A 
ATOM     13  C   UNL     1       2.820   5.769  19.194  0.00  0.00    +0.000 A 
ENDBRANCH   1  10
BRANCH   1  14
ATOM     14  C   UNL     1       6.797   5.049  16.222  0.00  0.00    +0.000 C 
BRANCH  14  15
ATOM     15  C   UNL     1       7.359   6.148  17.031  0.00  0.00    +0.000 A 
ATOM     16  C   UNL     1       7.548   7.487  16.804  0.00  0.00    +0.000 A 
ATOM     17  C   UNL     1       8.101   7.988  18.012  0.00  0.00    +0.000 A 
ATOM     18  N   UNL     1       8.230   6.997  18.909  0.00  0.00    +0.000 NA
ATOM     19  O   UNL     1       7.774   5.848  18.289  0.00  0.00    +0.000 OA
BRANCH  17  20
ATOM     20  C   UNL     1       8.463   9.372  18.309  0.00  0.00    +0.000 A 
ATOM     21  C   UNL     1       8.012  10.424  17.498  0.00  0.00    +0.000 A 
ATOM     22  C   UNL     1       8.422  11.738  17.744  0.00  0.00    +0.000 A 
ATOM     23  C   UNL     1       9.279  12.008  18.810  0.00  0.00    +0.000 A 
ATOM     24 CL   UNL     1       9.809  13.620  19.098  0.00  0.00    +0.000 Cl
ATOM     25  C   UNL     1       9.715  10.981  19.641  0.00  0.00    +0.000 A 
ATOM     26  C   UNL     1       9.306   9.668  19.392  0.00  0.00    +0.000 A 
ENDBRANCH  17  20
ENDBRANCH  14  15
ENDBRANCH   1  14
TORSDOF 4
ENDMDL
MODEL 7
REMARK VINA RESULT:      -8.0      4.458      9.337
REMARK  Name = 
REMARK  5 active torsions:
REMARK  status: ('A' for Active; 'I' for Inactive)
REMARK    1  A    between atoms: C_1  and  C_2
REMARK    2  A    between atoms: C_9  and  O_10
REMARK    3  A    between atoms: O_10  and  C_11
REMARK    4  A    between atoms: C_11  and  C_12
REMARK    5  A    between atoms: C_14  and  C_15
REMARK                            x       y       z     vdW  Elec       q    Type
REMARK                         _______ _______ _______ _____ _____    ______ ____
ROOT
ATOM      1  O   UNL     1       5.365   4.639  18.789  0.00  0.00    +0.000 OA
ENDROOT
BRANCH   1  10
ATOM      2  C   UNL     1       5.397   2.942  12.443  0.00  0.00    +0.000 C 
ATOM      3  C   UNL     1       6.244   3.884  13.246  0.00  0.00    +0.000 A 
ATOM      4  C   UNL     1       7.247   4.573  12.684  0.00  0.00    +0.000 A 
ATOM      5  C   UNL     1       8.110   5.502  13.424  0.00  0.00    +0.000 A 
ATOM      6  O   UNL     1       9.013   6.109  12.857  0.00  0.00    +0.000 OA
ATOM      7  O   UNL     1       7.857   5.650  14.775  0.00  0.00    +0.000 OA
ATOM      8  C   UNL     1       6.809   4.943  15.398  0.00  0.00    +0.000 A 
ATOM      9  C   UNL     1       6.648   5.176  16.765  0.00  0.00    +0.000 A 
ATOM     10  C   UNL     1       5.635   4.518  17.454  0.00  0.00    +0.000 A 
ATOM     11  C   UNL     1       4.799   3.641  16.758  0.00  0.00    +0.000 A 
ATOM     12  C   UNL     1       4.972   3.418  15.385  0.00  0.00    +0.000 A 
ATOM     13  C   UNL     1       5.990   4.069  14.682  0.00  0.00    +0.000 A 
ENDBRANCH   1  10
BRANCH   1  14
ATOM     14  C   UNL     1       4.118   4.107  19.236  0.00  0.00    +0.000 C 
BRANCH  14  15
ATOM     15  C   UNL     1       3.277   5.261  19.609  0.00  0.00    +0.000 A 
ATOM     16  C   UNL     1       3.071   6.498  19.054  0.00  0.00    +0.000 A 
ATOM     17  C   UNL     1       2.102   7.117  19.888  0.00  0.00    +0.000 A 
ATOM     18  N   UNL     1       1.750   6.286  20.884  0.00  0.00    +0.000 NA
ATOM     19  O   UNL     1       2.493   5.133  20.711  0.00  0.00    +0.000 OA
BRANCH  17  20
ATOM     20  C   UNL     1       1.510   8.441  19.720  0.00  0.00    +0.000 A 
ATOM     21  C   UNL     1       1.537   9.089  18.476  0.00  0.00    +0.000 A 
ATOM     22  C   UNL     1       1.035  10.388  18.340  0.00  0.00    +0.000 A 
ATOM     23  C   UNL     1       0.493  11.041  19.446  0.00  0.00    +0.000 A 
ATOM     24 CL   UNL     1      -0.099  12.648  19.288  0.00  0.00    +0.000 Cl
ATOM     25  C   UNL     1       0.434  10.403  20.681  0.00  0.00    +0.000 A 
ATOM     26  C   UNL     1       0.938   9.107  20.817  0.00  0.00    +0.000 A 
ENDBRANCH  17  20
ENDBRANCH  14  15
ENDBRANCH   1  14
TORSDOF 4
ENDMDL
MODEL 8
REMARK VINA RESULT:      -8.0      4.416      9.567
REMARK  Name = 
REMARK  5 active torsions:
REMARK  status: ('A' for Active; 'I' for Inactive)
REMARK    1  A    between atoms: C_1  and  C_2
REMARK    2  A    between atoms: C_9  and  O_10
REMARK    3  A    between atoms: O_10  and  C_11
REMARK    4  A    between atoms: C_11  and  C_12
REMARK    5  A    between atoms: C_14  and  C_15
REMARK                            x       y       z     vdW  Elec       q    Type
REMARK                         _______ _______ _______ _____ _____    ______ ____
ROOT
ATOM      1  O   UNL     1       4.887   5.423  18.614  0.00  0.00    +0.000 OA
ENDROOT
BRANCH   1  10
ATOM      2  C   UNL     1       5.340   3.071  12.498  0.00  0.00    +0.000 C 
ATOM      3  C   UNL     1       6.196   4.015  13.289  0.00  0.00    +0.000 A 
ATOM      4  C   UNL     1       7.309   4.551  12.767  0.00  0.00    +0.000 A 
ATOM      5  C   UNL     1       8.186   5.475  13.498  0.00  0.00    +0.000 A 
ATOM      6  O   UNL     1       9.191   5.938  12.970  0.00  0.00    +0.000 OA
ATOM      7  O   UNL     1       7.825   5.785  14.796  0.00  0.00    +0.000 OA
ATOM      8  C   UNL     1       6.660   5.242  15.374  0.00  0.00    +0.000 A 
ATOM      9  C   UNL     1       6.398   5.631  16.689  0.00  0.00    +0.000 A 
ATOM     10  C   UNL     1       5.267   5.139  17.332  0.00  0.00    +0.000 A 
ATOM     11  C   UNL     1       4.417   4.270  16.643  0.00  0.00    +0.000 A 
ATOM     12  C   UNL     1       4.694   3.889  15.322  0.00  0.00    +0.000 A 
ATOM     13  C   UNL     1       5.830   4.371  14.666  0.00  0.00    +0.000 A 
ENDBRANCH   1  10
BRANCH   1  14
ATOM     14  C   UNL     1       3.567   5.029  18.989  0.00  0.00    +0.000 C 
BRANCH  14  15
ATOM     15  C   UNL     1       2.817   6.272  19.256  0.00  0.00    +0.000 A 
ATOM     16  C   UNL     1       2.121   6.740  20.342  0.00  0.00    +0.000 A 
ATOM     17  C   UNL     1       1.669   8.030  19.957  0.00  0.00    +0.000 A 
ATOM     18  N   UNL     1       2.079   8.312  18.710  0.00  0.00    +0.000 NA
ATOM     19  O   UNL     1       2.787   7.207  18.273  0.00  0.00    +0.000 OA
BRANCH  17  20
ATOM     20  C   UNL     1       0.900   8.973  20.766  0.00  0.00    +0.000 A 
ATOM     21  C   UNL     1       0.698   8.748  22.136  0.00  0.00    +0.000 A 
ATOM     22  C   UNL     1      -0.101   9.615  22.889  0.00  0.00    +0.000 A 
ATOM     23  C   UNL     1      -0.694  10.718  22.276  0.00  0.00    +0.000 A 
ATOM     24 CL   UNL     1      -1.700  11.770  23.193  0.00  0.00    +0.000 Cl
ATOM     25  C   UNL     1      -0.482  10.971  20.925  0.00  0.00    +0.000 A 
ATOM     26  C   UNL     1       0.314  10.103  20.173  0.00  0.00    +0.000 A 
ENDBRANCH  17  20
ENDBRANCH  14  15
ENDBRANCH   1  14
TORSDOF 4
ENDMDL
MODEL 9
REMARK VINA RESULT:      -7.9      7.242      9.777
REMARK  Name = 
REMARK  5 active torsions:
REMARK  status: ('A' for Active; 'I' for Inactive)
REMARK    1  A    between atoms: C_1  and  C_2
REMARK    2  A    between atoms: C_9  and  O_10
REMARK    3  A    between atoms: O_10  and  C_11
REMARK    4  A    between atoms: C_11  and  C_12
REMARK    5  A    between atoms: C_14  and  C_15
REMARK                            x       y       z     vdW  Elec       q    Type
REMARK                         _______ _______ _______ _____ _____    ______ ____
ROOT
ATOM      1  O   UNL     1       8.890   8.726  18.748  0.00  0.00    +0.000 OA
ENDROOT
BRANCH   1  10
ATOM      2  C   UNL     1      10.231  14.605  21.352  0.00  0.00    +0.000 C 
ATOM      3  C   UNL     1      10.289  14.079  19.949  0.00  0.00    +0.000 A 
ATOM      4  C   UNL     1      10.663  14.861  18.926  0.00  0.00    +0.000 A 
ATOM      5  C   UNL     1      10.731  14.400  17.533  0.00  0.00    +0.000 A 
ATOM      6  O   UNL     1      11.084  15.159  16.637  0.00  0.00    +0.000 OA
ATOM      7  O   UNL     1      10.378  13.086  17.291  0.00  0.00    +0.000 OA
ATOM      8  C   UNL     1       9.982  12.236  18.344  0.00  0.00    +0.000 A 
ATOM      9  C   UNL     1       9.651  10.930  17.977  0.00  0.00    +0.000 A 
ATOM     10  C   UNL     1       9.252  10.027  18.957  0.00  0.00    +0.000 A 
ATOM     11  C   UNL     1       9.195  10.450  20.287  0.00  0.00    +0.000 A 
ATOM     12  C   UNL     1       9.531  11.765  20.640  0.00  0.00    +0.000 A 
ATOM     13  C   UNL     1       9.929  12.683  19.664  0.00  0.00    +0.000 A 
ENDBRANCH   1  10
BRANCH   1  14
ATOM     14  C   UNL     1       7.989   8.481  17.669  0.00  0.00    +0.000 C 
BRANCH  14  15
ATOM     15  C   UNL     1       7.210   7.281  18.034  0.00  0.00    +0.000 A 
ATOM     16  C   UNL     1       5.891   6.933  17.894  0.00  0.00    +0.000 A 
ATOM     17  C   UNL     1       5.802   5.617  18.421  0.00  0.00    +0.000 A 
ATOM     18  N   UNL     1       7.008   5.206  18.846  0.00  0.00    +0.000 NA
ATOM     19  O   UNL     1       7.882   6.252  18.612  0.00  0.00    +0.000 OA
BRANCH  17  20
ATOM     20  C   UNL     1       4.614   4.770  18.484  0.00  0.00    +0.000 A 
ATOM     21  C   UNL     1       4.360   3.811  17.492  0.00  0.00    +0.000 A 
ATOM     22  C   UNL     1       3.184   3.054  17.518  0.00  0.00    +0.000 A 
ATOM     23  C   UNL     1       2.259   3.248  18.543  0.00  0.00    +0.000 A 
ATOM     24 CL   UNL     1       0.797   2.341  18.562  0.00  0.00    +0.000 Cl
ATOM     25  C   UNL     1       2.506   4.177  19.549  0.00  0.00    +0.000 A 
ATOM     26  C   UNL     1       3.681   4.933  19.521  0.00  0.00    +0.000 A 
ENDBRANCH  17  20
ENDBRANCH  14  15
ENDBRANCH   1  14
TORSDOF 4
ENDMDL
