MODEL 1
REMARK VINA RESULT:      -6.6      0.000      0.000
REMARK  Name = 
REMARK  6 active torsions:
REMARK  status: ('A' for Active; 'I' for Inactive)
REMARK    1  A    between atoms: C_1  and  O_2
REMARK    2  A    between atoms: O_2  and  C_3
REMARK    3  A    between atoms: C_6  and  N_7
REMARK    4  A    between atoms: C_8  and  C_9
REMARK    5  A    between atoms: C_12  and  O_13
REMARK    6  A    between atoms: C_14  and  O_15
REMARK                            x       y       z     vdW  Elec       q    Type
REMARK                         _______ _______ _______ _____ _____    ______ ____
ROOT
ATOM      1  N   UNL     1       8.952   9.795  18.440  0.00  0.00    +0.000 NA
ATOM      2  C   UNL     1       8.241   9.140  17.579  0.00  0.00    +0.000 C 
ENDROOT
BRANCH   1   6
ATOM      3  C   UNL     1      10.469  13.618  17.482  0.00  0.00    +0.000 A 
ATOM      4  C   UNL     1      11.314  12.529  17.690  0.00  0.00    +0.000 A 
ATOM      5  C   UNL     1      10.785  11.275  18.007  0.00  0.00    +0.000 A 
ATOM      6  C   UNL     1       9.407  11.089  18.139  0.00  0.00    +0.000 A 
ATOM      7  C   UNL     1       8.565  12.183  17.914  0.00  0.00    +0.000 A 
ATOM      8  C   UNL     1       9.091  13.443  17.600  0.00  0.00    +0.000 A 
BRANCH   3  10
ATOM      9  C   UNL     1      10.471  15.975  17.707  0.00  0.00    +0.000 C 
ATOM     10  O   UNL     1      11.099  14.801  17.205  0.00  0.00    +0.000 OA
ENDBRANCH   3  10
ENDBRANCH   1   6
BRANCH   2  11
ATOM     11  C   UNL     1       7.725   7.791  17.886  0.00  0.00    +0.000 A 
ATOM     12  C   UNL     1       6.768   7.195  17.051  0.00  0.00    +0.000 A 
ATOM     13  C   UNL     1       6.292   5.911  17.329  0.00  0.00    +0.000 A 
ATOM     14  C   UNL     1       6.776   5.241  18.443  0.00  0.00    +0.000 A 
ATOM     15  C   UNL     1       7.722   5.840  19.274  0.00  0.00    +0.000 A 
ATOM     16  C   UNL     1       8.210   7.113  19.006  0.00  0.00    +0.000 A 
BRANCH  14  17
ATOM     17  O   UNL     1       6.350   3.982  18.768  0.00  0.00    +0.000 OA
ATOM     18  H   UNL     1       7.081   3.520  19.209  0.00  0.00    +0.000 HD
ENDBRANCH  14  17
BRANCH  15  19
ATOM     19  O   UNL     1       8.181   5.169  20.372  0.00  0.00    +0.000 OA
ATOM     20  H   UNL     1       8.491   5.871  20.979  0.00  0.00    +0.000 HD
ENDBRANCH  15  19
ENDBRANCH   2  11
TORSDOF 5
ENDMDL
MODEL 2
REMARK VINA RESULT:      -6.6      2.080      7.799
REMARK  Name = 
REMARK  6 active torsions:
REMARK  status: ('A' for Active; 'I' for Inactive)
REMARK    1  A    between atoms: C_1  and  O_2
REMARK    2  A    between atoms: O_2  and  C_3
REMARK    3  A    between atoms: C_6  and  N_7
REMARK    4  A    between atoms: C_8  and  C_9
REMARK    5  A    between atoms: C_12  and  O_13
REMARK    6  A    between atoms: C_14  and  O_15
REMARK                            x       y       z     vdW  Elec       q    Type
REMARK                         _______ _______ _______ _____ _____    ______ ____
ROOT
ATOM      1  N   UNL     1       8.547   8.112  18.535  0.00  0.00    +0.000 NA
ATOM      2  C   UNL     1       8.398   9.363  18.238  0.00  0.00    +0.000 C 
ENDROOT
BRANCH   1   6
ATOM      3  C   UNL     1       5.795   5.163  17.285  0.00  0.00    +0.000 A 
ATOM      4  C   UNL     1       6.801   4.877  18.206  0.00  0.00    +0.000 A 
ATOM      5  C   UNL     1       7.699   5.873  18.602  0.00  0.00    +0.000 A 
ATOM      6  C   UNL     1       7.620   7.163  18.073  0.00  0.00    +0.000 A 
ATOM      7  C   UNL     1       6.599   7.446  17.161  0.00  0.00    +0.000 A 
ATOM      8  C   UNL     1       5.698   6.450  16.758  0.00  0.00    +0.000 A 
BRANCH   3  10
ATOM      9  C   UNL     1       3.681   4.120  17.503  0.00  0.00    +0.000 C 
ATOM     10  O   UNL     1       4.992   4.107  16.951  0.00  0.00    +0.000 OA
ENDBRANCH   3  10
ENDBRANCH   1   6
BRANCH   2  11
ATOM     11  C   UNL     1       9.377  10.374  18.686  0.00  0.00    +0.000 A 
ATOM     12  C   UNL     1       9.395  10.793  20.026  0.00  0.00    +0.000 A 
ATOM     13  C   UNL     1      10.332  11.736  20.456  0.00  0.00    +0.000 A 
ATOM     14  C   UNL     1      11.237  12.252  19.540  0.00  0.00    +0.000 A 
ATOM     15  C   UNL     1      11.210  11.838  18.209  0.00  0.00    +0.000 A 
ATOM     16  C   UNL     1      10.289  10.896  17.768  0.00  0.00    +0.000 A 
BRANCH  14  17
ATOM     17  O   UNL     1      12.179  13.177  19.901  0.00  0.00    +0.000 OA
ATOM     18  H   UNL     1      12.695  12.811  20.637  0.00  0.00    +0.000 HD
ENDBRANCH  14  17
BRANCH  15  19
ATOM     19  O   UNL     1      12.103  12.363  17.318  0.00  0.00    +0.000 OA
ATOM     20  H   UNL     1      11.548  12.809  16.647  0.00  0.00    +0.000 HD
ENDBRANCH  15  19
ENDBRANCH   2  11
TORSDOF 5
ENDMDL
MODEL 3
REMARK VINA RESULT:      -6.5      7.285      7.911
REMARK  Name = 
REMARK  6 active torsions:
REMARK  status: ('A' for Active; 'I' for Inactive)
REMARK    1  A    between atoms: C_1  and  O_2
REMARK    2  A    between atoms: O_2  and  C_3
REMARK    3  A    between atoms: C_6  and  N_7
REMARK    4  A    between atoms: C_8  and  C_9
REMARK    5  A    between atoms: C_12  and  O_13
REMARK    6  A    between atoms: C_14  and  O_15
REMARK                            x       y       z     vdW  Elec       q    Type
REMARK                         _______ _______ _______ _____ _____    ______ ____
ROOT
ATOM      1  N   UNL     1       2.622   6.645  18.745  0.00  0.00    +0.000 NA
ATOM      2  C   UNL     1       1.941   5.585  19.042  0.00  0.00    +0.000 C 
ENDROOT
BRANCH   1   6
ATOM      3  C   UNL     1       0.983  10.452  19.558  0.00  0.00    +0.000 A 
ATOM      4  C   UNL     1       1.003   9.446  20.522  0.00  0.00    +0.000 A 
ATOM      5  C   UNL     1       1.551   8.194  20.226  0.00  0.00    +0.000 A 
ATOM      6  C   UNL     1       2.072   7.920  18.959  0.00  0.00    +0.000 A 
ATOM      7  C   UNL     1       2.062   8.938  18.002  0.00  0.00    +0.000 A 
ATOM      8  C   UNL     1       1.510  10.193  18.293  0.00  0.00    +0.000 A 
BRANCH   3  10
ATOM      9  C   UNL     1      -1.012  11.706  19.780  0.00  0.00    +0.000 C 
ATOM     10  O   UNL     1       0.398  11.624  19.950  0.00  0.00    +0.000 OA
ENDBRANCH   3  10
ENDBRANCH   1   6
BRANCH   2  11
ATOM     11  C   UNL     1       2.511   4.237  18.856  0.00  0.00    +0.000 A 
ATOM     12  C   UNL     1       1.971   3.369  17.892  0.00  0.00    +0.000 A 
ATOM     13  C   UNL     1       2.521   2.099  17.702  0.00  0.00    +0.000 A 
ATOM     14  C   UNL     1       3.600   1.709  18.480  0.00  0.00    +0.000 A 
ATOM     15  C   UNL     1       4.128   2.572  19.441  0.00  0.00    +0.000 A 
ATOM     16  C   UNL     1       3.598   3.840  19.637  0.00  0.00    +0.000 A 
BRANCH  14  17
ATOM     17  O   UNL     1       4.183   0.479  18.340  0.00  0.00    +0.000 OA
ATOM     18  H   UNL     1       5.060   0.603  17.942  0.00  0.00    +0.000 HD
ENDBRANCH  14  17
BRANCH  15  19
ATOM     19  O   UNL     1       5.187   2.168  20.205  0.00  0.00    +0.000 OA
ATOM     20  H   UNL     1       5.502   2.985  20.642  0.00  0.00    +0.000 HD
ENDBRANCH  15  19
ENDBRANCH   2  11
TORSDOF 5
ENDMDL
MODEL 4
REMARK VINA RESULT:      -6.5      2.126      7.840
REMARK  Name = 
REMARK  6 active torsions:
REMARK  status: ('A' for Active; 'I' for Inactive)
REMARK    1  A    between atoms: C_1  and  O_2
REMARK    2  A    between atoms: O_2  and  C_3
REMARK    3  A    between atoms: C_6  and  N_7
REMARK    4  A    between atoms: C_8  and  C_9
REMARK    5  A    between atoms: C_12  and  O_13
REMARK    6  A    between atoms: C_14  and  O_15
REMARK                            x       y       z     vdW  Elec       q    Type
REMARK                         _______ _______ _______ _____ _____    ______ ____
ROOT
ATOM      1  N   UNL     1       8.642   8.087  18.615  0.00  0.00    +0.000 NA
ATOM      2  C   UNL     1       8.424   9.339  18.369  0.00  0.00    +0.000 C 
ENDROOT
BRANCH   1   6
ATOM      3  C   UNL     1       5.831   5.259  17.224  0.00  0.00    +0.000 A 
ATOM      4  C   UNL     1       5.864   6.560  16.726  0.00  0.00    +0.000 A 
ATOM      5  C   UNL     1       6.804   7.476  17.205  0.00  0.00    +0.000 A 
ATOM      6  C   UNL     1       7.716   7.116  18.201  0.00  0.00    +0.000 A 
ATOM      7  C   UNL     1       7.686   5.805  18.685  0.00  0.00    +0.000 A 
ATOM      8  C   UNL     1       6.743   4.884  18.210  0.00  0.00    +0.000 A 
BRANCH   3  10
ATOM      9  C   UNL     1       3.995   3.824  17.645  0.00  0.00    +0.000 C 
ATOM     10  O   UNL     1       4.852   4.459  16.702  0.00  0.00    +0.000 OA
ENDBRANCH   3  10
ENDBRANCH   1   6
BRANCH   2  11
ATOM     11  C   UNL     1       9.399  10.374  18.767  0.00  0.00    +0.000 A 
ATOM     12  C   UNL     1       9.428  10.844  20.090  0.00  0.00    +0.000 A 
ATOM     13  C   UNL     1      10.361  11.810  20.474  0.00  0.00    +0.000 A 
ATOM     14  C   UNL     1      11.252  12.298  19.529  0.00  0.00    +0.000 A 
ATOM     15  C   UNL     1      11.215  11.833  18.215  0.00  0.00    +0.000 A 
ATOM     16  C   UNL     1      10.298  10.868  17.820  0.00  0.00    +0.000 A 
BRANCH  14  17
ATOM     17  O   UNL     1      12.190  13.244  19.843  0.00  0.00    +0.000 OA
ATOM     18  H   UNL     1      12.886  12.816  20.369  0.00  0.00    +0.000 HD
ENDBRANCH  14  17
BRANCH  15  19
ATOM     19  O   UNL     1      12.094  12.331  17.295  0.00  0.00    +0.000 OA
ATOM     20  H   UNL     1      12.276  11.579  16.696  0.00  0.00    +0.000 HD
ENDBRANCH  15  19
ENDBRANCH   2  11
TORSDOF 5
ENDMDL
MODEL 5
REMARK VINA RESULT:      -6.5      0.898      1.697
REMARK  Name = 
REMARK  6 active torsions:
REMARK  status: ('A' for Active; 'I' for Inactive)
REMARK    1  A    between atoms: C_1  and  O_2
REMARK    2  A    between atoms: O_2  and  C_3
REMARK    3  A    between atoms: C_6  and  N_7
REMARK    4  A    between atoms: C_8  and  C_9
REMARK    5  A    between atoms: C_12  and  O_13
REMARK    6  A    between atoms: C_14  and  O_15
REMARK                            x       y       z     vdW  Elec       q    Type
REMARK                         _______ _______ _______ _____ _____    ______ ____
ROOT
ATOM      1  N   UNL     1       8.736   9.533  18.590  0.00  0.00    +0.000 NA
ATOM      2  C   UNL     1       8.076   8.918  17.660  0.00  0.00    +0.000 C 
ENDROOT
BRANCH   1   6
ATOM      3  C   UNL     1      10.310  13.399  17.950  0.00  0.00    +0.000 A 
ATOM      4  C   UNL     1      11.079  12.383  18.514  0.00  0.00    +0.000 A 
ATOM      5  C   UNL     1      10.533  11.112  18.716  0.00  0.00    +0.000 A 
ATOM      6  C   UNL     1       9.205  10.839  18.374  0.00  0.00    +0.000 A 
ATOM      7  C   UNL     1       8.445  11.859  17.795  0.00  0.00    +0.000 A 
ATOM      8  C   UNL     1       8.988  13.135  17.595  0.00  0.00    +0.000 A 
BRANCH   3  10
ATOM      9  C   UNL     1      10.093  15.748  17.751  0.00  0.00    +0.000 C 
ATOM     10  O   UNL     1      10.940  14.607  17.826  0.00  0.00    +0.000 OA
ENDBRANCH   3  10
ENDBRANCH   1   6
BRANCH   2  11
ATOM     11  C   UNL     1       7.546   7.558  17.876  0.00  0.00    +0.000 A 
ATOM     12  C   UNL     1       8.164   6.697  18.796  0.00  0.00    +0.000 A 
ATOM     13  C   UNL     1       7.652   5.415  19.015  0.00  0.00    +0.000 A 
ATOM     14  C   UNL     1       6.532   5.008  18.307  0.00  0.00    +0.000 A 
ATOM     15  C   UNL     1       5.925   5.864  17.388  0.00  0.00    +0.000 A 
ATOM     16  C   UNL     1       6.418   7.144  17.165  0.00  0.00    +0.000 A 
BRANCH  14  17
ATOM     17  O   UNL     1       5.983   3.766  18.477  0.00  0.00    +0.000 OA
ATOM     18  H   UNL     1       5.228   3.683  17.873  0.00  0.00    +0.000 HD
ENDBRANCH  14  17
BRANCH  15  19
ATOM     19  O   UNL     1       4.827   5.443  16.692  0.00  0.00    +0.000 OA
ATOM     20  H   UNL     1       4.558   6.221  16.163  0.00  0.00    +0.000 HD
ENDBRANCH  15  19
ENDBRANCH   2  11
TORSDOF 5
ENDMDL
MODEL 6
REMARK VINA RESULT:      -6.5      7.219      7.683
REMARK  Name = 
REMARK  6 active torsions:
REMARK  status: ('A' for Active; 'I' for Inactive)
REMARK    1  A    between atoms: C_1  and  O_2
REMARK    2  A    between atoms: O_2  and  C_3
REMARK    3  A    between atoms: C_6  and  N_7
REMARK    4  A    between atoms: C_8  and  C_9
REMARK    5  A    between atoms: C_12  and  O_13
REMARK    6  A    between atoms: C_14  and  O_15
REMARK                            x       y       z     vdW  Elec       q    Type
REMARK                         _______ _______ _______ _____ _____    ______ ____
ROOT
ATOM      1  N   UNL     1       2.406   6.720  18.775  0.00  0.00    +0.000 NA
ATOM      2  C   UNL     1       2.102   5.692  19.501  0.00  0.00    +0.000 C 
ENDROOT
BRANCH   1   6
ATOM      3  C   UNL     1       0.989  10.594  19.682  0.00  0.00    +0.000 A 
ATOM      4  C   UNL     1       1.469  10.271  18.414  0.00  0.00    +0.000 A 
ATOM      5  C   UNL     1       1.933   8.981  18.141  0.00  0.00    +0.000 A 
ATOM      6  C   UNL     1       1.943   7.997  19.133  0.00  0.00    +0.000 A 
ATOM      7  C   UNL     1       1.446   8.323  20.398  0.00  0.00    +0.000 A 
ATOM      8  C   UNL     1       0.983   9.617  20.677  0.00  0.00    +0.000 A 
BRANCH   3  10
ATOM      9  C   UNL     1       1.579  12.799  20.311  0.00  0.00    +0.000 C 
ATOM     10  O   UNL     1       0.588  11.892  19.842  0.00  0.00    +0.000 OA
ENDBRANCH   3  10
ENDBRANCH   1   6
BRANCH   2  11
ATOM     11  C   UNL     1       2.604   4.345  19.162  0.00  0.00    +0.000 A 
ATOM     12  C   UNL     1       2.007   3.610  18.126  0.00  0.00    +0.000 A 
ATOM     13  C   UNL     1       2.492   2.343  17.792  0.00  0.00    +0.000 A 
ATOM     14  C   UNL     1       3.565   1.825  18.502  0.00  0.00    +0.000 A 
ATOM     15  C   UNL     1       4.150   2.556  19.535  0.00  0.00    +0.000 A 
ATOM     16  C   UNL     1       3.684   3.820  19.873  0.00  0.00    +0.000 A 
BRANCH  14  17
ATOM     17  O   UNL     1       4.086   0.590  18.221  0.00  0.00    +0.000 OA
ATOM     18  H   UNL     1       5.052   0.646  18.298  0.00  0.00    +0.000 HD
ENDBRANCH  14  17
BRANCH  15  19
ATOM     19  O   UNL     1       5.201   2.026  20.229  0.00  0.00    +0.000 OA
ATOM     20  H   UNL     1       5.443   1.219  19.732  0.00  0.00    +0.000 HD
ENDBRANCH  15  19
ENDBRANCH   2  11
TORSDOF 5
ENDMDL
MODEL 7
REMARK VINA RESULT:      -6.5      1.496      1.876
REMARK  Name = 
REMARK  6 active torsions:
REMARK  status: ('A' for Active; 'I' for Inactive)
REMARK    1  A    between atoms: C_1  and  O_2
REMARK    2  A    between atoms: O_2  and  C_3
REMARK    3  A    between atoms: C_6  and  N_7
REMARK    4  A    between atoms: C_8  and  C_9
REMARK    5  A    between atoms: C_12  and  O_13
REMARK    6  A    between atoms: C_14  and  O_15
REMARK                            x       y       z     vdW  Elec       q    Type
REMARK                         _______ _______ _______ _____ _____    ______ ____
ROOT
ATOM      1  N   UNL     1       8.618   8.937  18.629  0.00  0.00    +0.000 NA
ATOM      2  C   UNL     1       7.648   8.765  17.789  0.00  0.00    +0.000 C 
ENDROOT
BRANCH   1   6
ATOM      3  C   UNL     1       9.962  12.883  19.307  0.00  0.00    +0.000 A 
ATOM      4  C   UNL     1       9.423  12.496  18.081  0.00  0.00    +0.000 A 
ATOM      5  C   UNL     1       8.987  11.183  17.883  0.00  0.00    +0.000 A 
ATOM      6  C   UNL     1       9.097  10.229  18.898  0.00  0.00    +0.000 A 
ATOM      7  C   UNL     1       9.624  10.628  20.130  0.00  0.00    +0.000 A 
ATOM      8  C   UNL     1      10.066  11.943  20.332  0.00  0.00    +0.000 A 
BRANCH   3  10
ATOM      9  C   UNL     1      10.334  14.920  18.161  0.00  0.00    +0.000 C 
ATOM     10  O   UNL     1      10.380  14.183  19.377  0.00  0.00    +0.000 OA
ENDBRANCH   3  10
ENDBRANCH   1   6
BRANCH   2  11
ATOM     11  C   UNL     1       7.108   7.419  17.515  0.00  0.00    +0.000 A 
ATOM     12  C   UNL     1       5.867   7.274  16.873  0.00  0.00    +0.000 A 
ATOM     13  C   UNL     1       5.363   6.001  16.595  0.00  0.00    +0.000 A 
ATOM     14  C   UNL     1       6.103   4.888  16.967  0.00  0.00    +0.000 A 
ATOM     15  C   UNL     1       7.331   5.037  17.611  0.00  0.00    +0.000 A 
ATOM     16  C   UNL     1       7.849   6.296  17.887  0.00  0.00    +0.000 A 
BRANCH  14  17
ATOM     17  O   UNL     1       5.663   3.615  16.722  0.00  0.00    +0.000 OA
ATOM     18  H   UNL     1       4.964   3.661  16.049  0.00  0.00    +0.000 HD
ENDBRANCH  14  17
BRANCH  15  19
ATOM     19  O   UNL     1       8.043   3.930  17.978  0.00  0.00    +0.000 OA
ATOM     20  H   UNL     1       7.507   3.176  17.658  0.00  0.00    +0.000 HD
ENDBRANCH  15  19
ENDBRANCH   2  11
TORSDOF 5
ENDMDL
MODEL 8
REMARK VINA RESULT:      -6.5      2.098      7.698
REMARK  Name = 
REMARK  6 active torsions:
REMARK  status: ('A' for Active; 'I' for Inactive)
REMARK    1  A    between atoms: C_1  and  O_2
REMARK    2  A    between atoms: O_2  and  C_3
REMARK    3  A    between atoms: C_6  and  N_7
REMARK    4  A    between atoms: C_8  and  C_9
REMARK    5  A    between atoms: C_12  and  O_13
REMARK    6  A    between atoms: C_14  and  O_15
REMARK                            x       y       z     vdW  Elec       q    Type
REMARK                         _______ _______ _______ _____ _____    ______ ____
ROOT
ATOM      1  N   UNL     1       8.456   8.096  18.552  0.00  0.00    +0.000 NA
ATOM      2  C   UNL     1       8.317   9.323  18.162  0.00  0.00    +0.000 C 
ENDROOT
BRANCH   1   6
ATOM      3  C   UNL     1       5.964   4.990  17.144  0.00  0.00    +0.000 A 
ATOM      4  C   UNL     1       6.920   4.766  18.133  0.00  0.00    +0.000 A 
ATOM      5  C   UNL     1       7.733   5.813  18.580  0.00  0.00    +0.000 A 
ATOM      6  C   UNL     1       7.617   7.095  18.036  0.00  0.00    +0.000 A 
ATOM      7  C   UNL     1       6.646   7.315  17.056  0.00  0.00    +0.000 A 
ATOM      8  C   UNL     1       5.832   6.268  16.602  0.00  0.00    +0.000 A 
BRANCH   3  10
ATOM      9  C   UNL     1       4.003   3.695  17.430  0.00  0.00    +0.000 C 
ATOM     10  O   UNL     1       5.247   3.889  16.766  0.00  0.00    +0.000 OA
ENDBRANCH   3  10
ENDBRANCH   1   6
BRANCH   2  11
ATOM     11  C   UNL     1       9.207  10.387  18.667  0.00  0.00    +0.000 A 
ATOM     12  C   UNL     1      10.020  11.108  17.777  0.00  0.00    +0.000 A 
ATOM     13  C   UNL     1      10.850  12.128  18.249  0.00  0.00    +0.000 A 
ATOM     14  C   UNL     1      10.860  12.412  19.607  0.00  0.00    +0.000 A 
ATOM     15  C   UNL     1      10.057  11.689  20.488  0.00  0.00    +0.000 A 
ATOM     16  C   UNL     1       9.221  10.677  20.032  0.00  0.00    +0.000 A 
BRANCH  14  17
ATOM     17  O   UNL     1      11.651  13.399  20.130  0.00  0.00    +0.000 OA
ATOM     18  H   UNL     1      11.975  13.100  20.995  0.00  0.00    +0.000 HD
ENDBRANCH  14  17
BRANCH  15  19
ATOM     19  O   UNL     1      10.086  11.976  21.823  0.00  0.00    +0.000 OA
ATOM     20  H   UNL     1       9.158  12.182  22.052  0.00  0.00    +0.000 HD
ENDBRANCH  15  19
ENDBRANCH   2  11
TORSDOF 5
ENDMDL
MODEL 9
REMARK VINA RESULT:      -6.5      0.561      1.197
REMARK  Name = 
REMARK  6 active torsions:
REMARK  status: ('A' for Active; 'I' for Inactive)
REMARK    1  A    between atoms: C_1  and  O_2
REMARK    2  A    between atoms: O_2  and  C_3
REMARK    3  A    between atoms: C_6  and  N_7
REMARK    4  A    between atoms: C_8  and  C_9
REMARK    5  A    between atoms: C_12  and  O_13
REMARK    6  A    between atoms: C_14  and  O_15
REMARK                            x       y       z     vdW  Elec       q    Type
REMARK                         _______ _______ _______ _____ _____    ______ ____
ROOT
ATOM      1  N   UNL     1       9.104   9.860  18.722  0.00  0.00    +0.000 NA
ATOM      2  C   UNL     1       8.404   9.270  17.807  0.00  0.00    +0.000 C 
ENDROOT
BRANCH   1   6
ATOM      3  C   UNL     1      10.306  13.860  18.098  0.00  0.00    +0.000 A 
ATOM      4  C   UNL     1       9.088  13.381  17.618  0.00  0.00    +0.000 A 
ATOM      5  C   UNL     1       8.715  12.052  17.838  0.00  0.00    +0.000 A 
ATOM      6  C   UNL     1       9.558  11.174  18.524  0.00  0.00    +0.000 A 
ATOM      7  C   UNL     1      10.771  11.666  19.016  0.00  0.00    +0.000 A 
ATOM      8  C   UNL     1      11.150  12.997  18.794  0.00  0.00    +0.000 A 
BRANCH   3  10
ATOM      9  C   UNL     1       9.462  16.051  17.795  0.00  0.00    +0.000 C 
ATOM     10  O   UNL     1      10.577  15.167  17.799  0.00  0.00    +0.000 OA
ENDBRANCH   3  10
ENDBRANCH   1   6
BRANCH   2  11
ATOM     11  C   UNL     1       7.889   7.901  18.006  0.00  0.00    +0.000 A 
ATOM     12  C   UNL     1       7.016   7.332  17.066  0.00  0.00    +0.000 A 
ATOM     13  C   UNL     1       6.542   6.029  17.243  0.00  0.00    +0.000 A 
ATOM     14  C   UNL     1       6.944   5.313  18.360  0.00  0.00    +0.000 A 
ATOM     15  C   UNL     1       7.806   5.885  19.295  0.00  0.00    +0.000 A 
ATOM     16  C   UNL     1       8.291   7.176  19.129  0.00  0.00    +0.000 A 
BRANCH  14  17
ATOM     17  O   UNL     1       6.515   4.034  18.589  0.00  0.00    +0.000 OA
ATOM     18  H   UNL     1       6.015   3.739  17.810  0.00  0.00    +0.000 HD
ENDBRANCH  14  17
BRANCH  15  19
ATOM     19  O   UNL     1       8.185   5.168  20.395  0.00  0.00    +0.000 OA
ATOM     20  H   UNL     1       8.866   5.722  20.828  0.00  0.00    +0.000 HD
ENDBRANCH  15  19
ENDBRANCH   2  11
TORSDOF 5
ENDMDL
