MODEL 1
REMARK VINA RESULT:      -7.0      0.000      0.000
REMARK  Name = 
REMARK  3 active torsions:
REMARK  status: ('A' for Active; 'I' for Inactive)
REMARK    1  A    between atoms: N_4  and  C_5
REMARK    2  A    between atoms: C_5  and  C_6
REMARK    3  A    between atoms: N_8  and  C_9
REMARK                            x       y       z     vdW  Elec       q    Type
REMARK                         _______ _______ _______ _____ _____    ______ ____
ROOT
ATOM      1  C   UNL     1       6.392   5.034  18.742  0.00  0.00    +0.000 C 
ATOM      2  O   UNL     1       6.767   5.330  19.875  0.00  0.00    +0.000 OA
ATOM      3  N   UNL     1       5.087   4.780  18.351  0.00  0.00    +0.000 N 
ATOM      4  H   UNL     1       4.978   4.258  17.482  0.00  0.00    +0.000 HD
ENDROOT
BRANCH   3   5
ATOM      5  C   UNL     1       3.927   4.983  19.134  0.00  0.00    +0.000 A 
ATOM      6  C   UNL     1       3.254   6.208  19.200  0.00  0.00    +0.000 A 
ATOM      7  C   UNL     1       2.129   6.365  20.016  0.00  0.00    +0.000 A 
ATOM      8  C   UNL     1       1.661   5.294  20.771  0.00  0.00    +0.000 A 
ATOM      9  C   UNL     1       2.311   4.064  20.688  0.00  0.00    +0.000 A 
ATOM     10 CL   UNL     1       1.732   2.738  21.623  0.00  0.00    +0.000 Cl
ATOM     11  C   UNL     1       3.431   3.900  19.866  0.00  0.00    +0.000 A 
ENDBRANCH   3   5
BRANCH   1  12
ATOM     12  C   UNL     1       7.416   4.793  17.634  0.00  0.00    +0.000 C 
BRANCH  12  16
ATOM     13  N   UNL     1       6.335   3.677  14.367  0.00  0.00    +0.000 N 
ATOM     14  C   UNL     1       6.947   4.479  15.267  0.00  0.00    +0.000 C 
ATOM     15  O   UNL     1       7.565   5.483  14.942  0.00  0.00    +0.000 OA
ATOM     16  N   UNL     1       6.826   4.035  16.547  0.00  0.00    +0.000 N 
ATOM     17  H   UNL     1       6.378   3.945  13.393  0.00  0.00    +0.000 HD
ATOM     18  H   UNL     1       5.717   2.927  14.633  0.00  0.00    +0.000 HD
ATOM     19  H   UNL     1       6.036   3.448  16.770  0.00  0.00    +0.000 HD
ENDBRANCH  12  16
ENDBRANCH   1  12
TORSDOF 3
ENDMDL
MODEL 2
REMARK VINA RESULT:      -6.9      1.706      1.726
REMARK  Name = 
REMARK  3 active torsions:
REMARK  status: ('A' for Active; 'I' for Inactive)
REMARK    1  A    between atoms: N_4  and  C_5
REMARK    2  A    between atoms: C_5  and  C_6
REMARK    3  A    between atoms: N_8  and  C_9
REMARK                            x       y       z     vdW  Elec       q    Type
REMARK                         _______ _______ _______ _____ _____    ______ ____
ROOT
ATOM      1  C   UNL     1       5.990   4.757  18.070  0.00  0.00    +0.000 C 
ATOM      2  O   UNL     1       5.705   5.849  18.556  0.00  0.00    +0.000 OA
ATOM      3  N   UNL     1       5.180   3.631  18.052  0.00  0.00    +0.000 N 
ATOM      4  H   UNL     1       5.659   2.743  17.899  0.00  0.00    +0.000 HD
ENDROOT
BRANCH   3   5
ATOM      5  C   UNL     1       3.820   3.576  18.432  0.00  0.00    +0.000 A 
ATOM      6  C   UNL     1       2.774   3.947  17.580  0.00  0.00    +0.000 A 
ATOM      7  C   UNL     1       1.445   3.905  18.016  0.00  0.00    +0.000 A 
ATOM      8  C   UNL     1       1.149   3.485  19.309  0.00  0.00    +0.000 A 
ATOM      9  C   UNL     1       2.185   3.088  20.152  0.00  0.00    +0.000 A 
ATOM     10 CL   UNL     1       1.819   2.567  21.753  0.00  0.00    +0.000 Cl
ATOM     11  C   UNL     1       3.514   3.119  19.718  0.00  0.00    +0.000 A 
ENDBRANCH   3   5
BRANCH   1  12
ATOM     12  C   UNL     1       7.392   4.505  17.515  0.00  0.00    +0.000 C 
BRANCH  12  16
ATOM     13  N   UNL     1       7.239   5.327  13.995  0.00  0.00    +0.000 N 
ATOM     14  C   UNL     1       6.986   4.619  15.118  0.00  0.00    +0.000 C 
ATOM     15  O   UNL     1       6.286   3.615  15.121  0.00  0.00    +0.000 OA
ATOM     16  N   UNL     1       7.558   5.155  16.230  0.00  0.00    +0.000 N 
ATOM     17  H   UNL     1       6.849   4.986  13.127  0.00  0.00    +0.000 HD
ATOM     18  H   UNL     1       7.915   6.073  13.959  0.00  0.00    +0.000 HD
ATOM     19  H   UNL     1       8.379   5.730  16.105  0.00  0.00    +0.000 HD
ENDBRANCH  12  16
ENDBRANCH   1  12
TORSDOF 3
ENDMDL
MODEL 3
REMARK VINA RESULT:      -6.8      1.667      1.696
REMARK  Name = 
REMARK  3 active torsions:
REMARK  status: ('A' for Active; 'I' for Inactive)
REMARK    1  A    between atoms: N_4  and  C_5
REMARK    2  A    between atoms: C_5  and  C_6
REMARK    3  A    between atoms: N_8  and  C_9
REMARK                            x       y       z     vdW  Elec       q    Type
REMARK                         _______ _______ _______ _____ _____    ______ ____
ROOT
ATOM      1  C   UNL     1       5.971   4.677  18.638  0.00  0.00    +0.000 C 
ATOM      2  O   UNL     1       5.675   5.627  19.360  0.00  0.00    +0.000 OA
ATOM      3  N   UNL     1       5.149   3.610  18.311  0.00  0.00    +0.000 N 
ATOM      4  H   UNL     1       5.623   2.773  17.972  0.00  0.00    +0.000 HD
ENDROOT
BRANCH   3   5
ATOM      5  C   UNL     1       3.770   3.499  18.601  0.00  0.00    +0.000 A 
ATOM      6  C   UNL     1       2.768   3.805  17.674  0.00  0.00    +0.000 A 
ATOM      7  C   UNL     1       1.416   3.710  18.021  0.00  0.00    +0.000 A 
ATOM      8  C   UNL     1       1.053   3.301  19.301  0.00  0.00    +0.000 A 
ATOM      9  C   UNL     1       2.046   2.968  20.219  0.00  0.00    +0.000 A 
ATOM     10 CL   UNL     1       1.597   2.462  21.803  0.00  0.00    +0.000 Cl
ATOM     11  C   UNL     1       3.399   3.053  19.873  0.00  0.00    +0.000 A 
ENDBRANCH   3   5
BRANCH   1  12
ATOM     12  C   UNL     1       7.396   4.532  18.107  0.00  0.00    +0.000 C 
BRANCH  12  16
ATOM     13  N   UNL     1       7.402   5.158  14.544  0.00  0.00    +0.000 N 
ATOM     14  C   UNL     1       7.424   5.466  15.860  0.00  0.00    +0.000 C 
ATOM     15  O   UNL     1       7.494   6.617  16.268  0.00  0.00    +0.000 OA
ATOM     16  N   UNL     1       7.392   4.370  16.666  0.00  0.00    +0.000 N 
ATOM     17  H   UNL     1       7.419   5.923  13.883  0.00  0.00    +0.000 HD
ATOM     18  H   UNL     1       7.212   4.230  14.202  0.00  0.00    +0.000 HD
ATOM     19  H   UNL     1       6.978   3.526  16.297  0.00  0.00    +0.000 HD
ENDBRANCH  12  16
ENDBRANCH   1  12
TORSDOF 3
ENDMDL
MODEL 4
REMARK VINA RESULT:      -6.7      2.210      3.309
REMARK  Name = 
REMARK  3 active torsions:
REMARK  status: ('A' for Active; 'I' for Inactive)
REMARK    1  A    between atoms: N_4  and  C_5
REMARK    2  A    between atoms: C_5  and  C_6
REMARK    3  A    between atoms: N_8  and  C_9
REMARK                            x       y       z     vdW  Elec       q    Type
REMARK                         _______ _______ _______ _____ _____    ______ ____
ROOT
ATOM      1  C   UNL     1       5.738   4.252  16.902  0.00  0.00    +0.000 C 
ATOM      2  O   UNL     1       5.064   4.553  15.919  0.00  0.00    +0.000 OA
ATOM      3  N   UNL     1       5.257   3.766  18.108  0.00  0.00    +0.000 N 
ATOM      4  H   UNL     1       5.886   3.857  18.905  0.00  0.00    +0.000 HD
ENDROOT
BRANCH   3   5
ATOM      5  C   UNL     1       3.929   3.363  18.375  0.00  0.00    +0.000 A 
ATOM      6  C   UNL     1       3.339   2.237  17.789  0.00  0.00    +0.000 A 
ATOM      7  C   UNL     1       2.010   1.901  18.062  0.00  0.00    +0.000 A 
ATOM      8  C   UNL     1       1.256   2.685  18.930  0.00  0.00    +0.000 A 
ATOM      9  C   UNL     1       1.846   3.791  19.537  0.00  0.00    +0.000 A 
ATOM     10 CL   UNL     1       0.915   4.763  20.612  0.00  0.00    +0.000 Cl
ATOM     11  C   UNL     1       3.179   4.127  19.275  0.00  0.00    +0.000 A 
ENDBRANCH   3   5
BRANCH   1  12
ATOM     12  C   UNL     1       7.244   4.516  16.910  0.00  0.00    +0.000 C 
BRANCH  12  16
ATOM     13  N   UNL     1       8.485   5.383  20.195  0.00  0.00    +0.000 N 
ATOM     14  C   UNL     1       7.983   5.600  18.959  0.00  0.00    +0.000 C 
ATOM     15  O   UNL     1       7.729   6.720  18.538  0.00  0.00    +0.000 OA
ATOM     16  N   UNL     1       7.767   4.453  18.260  0.00  0.00    +0.000 N 
ATOM     17  H   UNL     1       8.676   6.190  20.773  0.00  0.00    +0.000 HD
ATOM     18  H   UNL     1       8.819   4.483  20.500  0.00  0.00    +0.000 HD
ATOM     19  H   UNL     1       8.317   3.642  18.505  0.00  0.00    +0.000 HD
ENDBRANCH  12  16
ENDBRANCH   1  12
TORSDOF 3
ENDMDL
MODEL 5
REMARK VINA RESULT:      -6.7      2.284      3.004
REMARK  Name = 
REMARK  3 active torsions:
REMARK  status: ('A' for Active; 'I' for Inactive)
REMARK    1  A    between atoms: N_4  and  C_5
REMARK    2  A    between atoms: C_5  and  C_6
REMARK    3  A    between atoms: N_8  and  C_9
REMARK                            x       y       z     vdW  Elec       q    Type
REMARK                         _______ _______ _______ _____ _____    ______ ____
ROOT
ATOM      1  C   UNL     1       5.357   4.524  17.306  0.00  0.00    +0.000 C 
ATOM      2  O   UNL     1       4.680   5.410  16.789  0.00  0.00    +0.000 OA
ATOM      3  N   UNL     1       4.910   3.570  18.206  0.00  0.00    +0.000 N 
ATOM      4  H   UNL     1       5.631   3.116  18.766  0.00  0.00    +0.000 HD
ENDROOT
BRANCH   3   5
ATOM      5  C   UNL     1       3.564   3.328  18.565  0.00  0.00    +0.000 A 
ATOM      6  C   UNL     1       2.512   3.350  17.643  0.00  0.00    +0.000 A 
ATOM      7  C   UNL     1       1.193   3.136  18.056  0.00  0.00    +0.000 A 
ATOM      8  C   UNL     1       0.913   2.890  19.397  0.00  0.00    +0.000 A 
ATOM      9  C   UNL     1       1.960   2.839  20.314  0.00  0.00    +0.000 A 
ATOM     10 CL   UNL     1       1.615   2.535  21.975  0.00  0.00    +0.000 Cl
ATOM     11  C   UNL     1       3.282   3.043  19.905  0.00  0.00    +0.000 A 
ENDBRANCH   3   5
BRANCH   1  12
ATOM     12  C   UNL     1       6.866   4.476  17.069  0.00  0.00    +0.000 C 
BRANCH  12  16
ATOM     13  N   UNL     1       8.596   5.345  20.125  0.00  0.00    +0.000 N 
ATOM     14  C   UNL     1       7.923   5.562  18.972  0.00  0.00    +0.000 C 
ATOM     15  O   UNL     1       7.636   6.684  18.578  0.00  0.00    +0.000 OA
ATOM     16  N   UNL     1       7.581   4.414  18.329  0.00  0.00    +0.000 N 
ATOM     17  H   UNL     1       8.888   6.153  20.657  0.00  0.00    +0.000 HD
ATOM     18  H   UNL     1       8.950   4.440  20.390  0.00  0.00    +0.000 HD
ATOM     19  H   UNL     1       8.142   3.592  18.501  0.00  0.00    +0.000 HD
ENDBRANCH  12  16
ENDBRANCH   1  12
TORSDOF 3
ENDMDL
MODEL 6
REMARK VINA RESULT:      -6.6      2.209      3.163
REMARK  Name = 
REMARK  3 active torsions:
REMARK  status: ('A' for Active; 'I' for Inactive)
REMARK    1  A    between atoms: N_4  and  C_5
REMARK    2  A    between atoms: C_5  and  C_6
REMARK    3  A    between atoms: N_8  and  C_9
REMARK                            x       y       z     vdW  Elec       q    Type
REMARK                         _______ _______ _______ _____ _____    ______ ____
ROOT
ATOM      1  C   UNL     1       5.706   4.260  16.586  0.00  0.00    +0.000 C 
ATOM      2  O   UNL     1       4.922   4.432  15.655  0.00  0.00    +0.000 OA
ATOM      3  N   UNL     1       5.375   3.872  17.875  0.00  0.00    +0.000 N 
ATOM      4  H   UNL     1       6.074   4.071  18.591  0.00  0.00    +0.000 HD
ENDROOT
BRANCH   3   5
ATOM      5  C   UNL     1       4.105   3.435  18.314  0.00  0.00    +0.000 A 
ATOM      6  C   UNL     1       3.541   2.215  17.925  0.00  0.00    +0.000 A 
ATOM      7  C   UNL     1       2.266   1.843  18.362  0.00  0.00    +0.000 A 
ATOM      8  C   UNL     1       1.543   2.687  19.201  0.00  0.00    +0.000 A 
ATOM      9  C   UNL     1       2.112   3.889  19.614  0.00  0.00    +0.000 A 
ATOM     10 CL   UNL     1       1.218   4.934  20.652  0.00  0.00    +0.000 Cl
ATOM     11  C   UNL     1       3.391   4.261  19.187  0.00  0.00    +0.000 A 
ENDBRANCH   3   5
BRANCH   1  12
ATOM     12  C   UNL     1       7.187   4.597  16.413  0.00  0.00    +0.000 C 
BRANCH  12  16
ATOM     13  N   UNL     1       7.649   8.078  17.282  0.00  0.00    +0.000 N 
ATOM     14  C   UNL     1       7.482   6.754  17.499  0.00  0.00    +0.000 C 
ATOM     15  O   UNL     1       7.455   6.268  18.622  0.00  0.00    +0.000 OA
ATOM     16  N   UNL     1       7.383   6.032  16.351  0.00  0.00    +0.000 N 
ATOM     17  H   UNL     1       7.727   8.680  18.090  0.00  0.00    +0.000 HD
ATOM     18  H   UNL     1       7.542   8.501  16.374  0.00  0.00    +0.000 HD
ATOM     19  H   UNL     1       7.054   6.507  15.523  0.00  0.00    +0.000 HD
ENDBRANCH  12  16
ENDBRANCH   1  12
TORSDOF 3
ENDMDL
MODEL 7
REMARK VINA RESULT:      -6.6      1.176      1.185
REMARK  Name = 
REMARK  3 active torsions:
REMARK  status: ('A' for Active; 'I' for Inactive)
REMARK    1  A    between atoms: N_4  and  C_5
REMARK    2  A    between atoms: C_5  and  C_6
REMARK    3  A    between atoms: N_8  and  C_9
REMARK                            x       y       z     vdW  Elec       q    Type
REMARK                         _______ _______ _______ _____ _____    ______ ____
ROOT
ATOM      1  C   UNL     1       6.142   4.696  18.289  0.00  0.00    +0.000 C 
ATOM      2  O   UNL     1       6.490   4.748  19.467  0.00  0.00    +0.000 OA
ATOM      3  N   UNL     1       4.848   4.519  17.824  0.00  0.00    +0.000 N 
ATOM      4  H   UNL     1       4.763   4.193  16.861  0.00  0.00    +0.000 HD
ENDROOT
BRANCH   3   5
ATOM      5  C   UNL     1       3.671   4.540  18.606  0.00  0.00    +0.000 A 
ATOM      6  C   UNL     1       3.408   5.524  19.565  0.00  0.00    +0.000 A 
ATOM      7  C   UNL     1       2.241   5.480  20.336  0.00  0.00    +0.000 A 
ATOM      8  C   UNL     1       1.321   4.453  20.149  0.00  0.00    +0.000 A 
ATOM      9  C   UNL     1       1.564   3.487  19.177  0.00  0.00    +0.000 A 
ATOM     10 CL   UNL     1       0.426   2.215  18.946  0.00  0.00    +0.000 Cl
ATOM     11  C   UNL     1       2.725   3.531  18.397  0.00  0.00    +0.000 A 
ENDBRANCH   3   5
BRANCH   1  12
ATOM     12  C   UNL     1       7.191   4.706  17.178  0.00  0.00    +0.000 C 
BRANCH  12  16
ATOM     13  N   UNL     1       6.432   3.688  13.791  0.00  0.00    +0.000 N 
ATOM     14  C   UNL     1       6.946   4.466  14.769  0.00  0.00    +0.000 C 
ATOM     15  O   UNL     1       7.577   5.488  14.536  0.00  0.00    +0.000 OA
ATOM     16  N   UNL     1       6.715   3.979  16.018  0.00  0.00    +0.000 N 
ATOM     17  H   UNL     1       6.561   3.989  12.834  0.00  0.00    +0.000 HD
ATOM     18  H   UNL     1       5.804   2.922  13.974  0.00  0.00    +0.000 HD
ATOM     19  H   UNL     1       5.916   3.375  16.147  0.00  0.00    +0.000 HD
ENDBRANCH  12  16
ENDBRANCH   1  12
TORSDOF 3
ENDMDL
MODEL 8
REMARK VINA RESULT:      -6.5      1.575      1.638
REMARK  Name = 
REMARK  3 active torsions:
REMARK  status: ('A' for Active; 'I' for Inactive)
REMARK    1  A    between atoms: N_4  and  C_5
REMARK    2  A    between atoms: C_5  and  C_6
REMARK    3  A    between atoms: N_8  and  C_9
REMARK                            x       y       z     vdW  Elec       q    Type
REMARK                         _______ _______ _______ _____ _____    ______ ____
ROOT
ATOM      1  C   UNL     1       5.644   5.621  18.527  0.00  0.00    +0.000 C 
ATOM      2  O   UNL     1       6.076   4.759  19.290  0.00  0.00    +0.000 OA
ATOM      3  N   UNL     1       4.309   5.890  18.266  0.00  0.00    +0.000 N 
ATOM      4  H   UNL     1       4.121   6.402  17.405  0.00  0.00    +0.000 HD
ENDROOT
BRANCH   3   5
ATOM      5  C   UNL     1       3.199   5.347  18.952  0.00  0.00    +0.000 A 
ATOM      6  C   UNL     1       2.650   5.931  20.099  0.00  0.00    +0.000 A 
ATOM      7  C   UNL     1       1.571   5.335  20.760  0.00  0.00    +0.000 A 
ATOM      8  C   UNL     1       1.025   4.150  20.275  0.00  0.00    +0.000 A 
ATOM      9  C   UNL     1       1.550   3.580  19.118  0.00  0.00    +0.000 A 
ATOM     10 CL   UNL     1       0.874   2.113  18.518  0.00  0.00    +0.000 Cl
ATOM     11  C   UNL     1       2.623   4.177  18.448  0.00  0.00    +0.000 A 
ENDBRANCH   3   5
BRANCH   1  12
ATOM     12  C   UNL     1       6.608   6.435  17.665  0.00  0.00    +0.000 C 
BRANCH  12  16
ATOM     13  N   UNL     1       6.772   5.047  14.329  0.00  0.00    +0.000 N 
ATOM     14  C   UNL     1       7.073   5.167  15.642  0.00  0.00    +0.000 C 
ATOM     15  O   UNL     1       7.863   4.424  16.208  0.00  0.00    +0.000 OA
ATOM     16  N   UNL     1       6.388   6.168  16.258  0.00  0.00    +0.000 N 
ATOM     17  H   UNL     1       7.246   4.325  13.803  0.00  0.00    +0.000 HD
ATOM     18  H   UNL     1       6.228   5.730  13.827  0.00  0.00    +0.000 HD
ATOM     19  H   UNL     1       6.060   6.934  15.688  0.00  0.00    +0.000 HD
ENDBRANCH  12  16
ENDBRANCH   1  12
TORSDOF 3
ENDMDL
MODEL 9
REMARK VINA RESULT:      -6.5      2.076      2.490
REMARK  Name = 
REMARK  3 active torsions:
REMARK  status: ('A' for Active; 'I' for Inactive)
REMARK    1  A    between atoms: N_4  and  C_5
REMARK    2  A    between atoms: C_5  and  C_6
REMARK    3  A    between atoms: N_8  and  C_9
REMARK                            x       y       z     vdW  Elec       q    Type
REMARK                         _______ _______ _______ _____ _____    ______ ____
ROOT
ATOM      1  C   UNL     1       4.662   6.051  17.713  0.00  0.00    +0.000 C 
ATOM      2  O   UNL     1       3.609   6.680  17.643  0.00  0.00    +0.000 OA
ATOM      3  N   UNL     1       4.814   4.754  18.178  0.00  0.00    +0.000 N 
ATOM      4  H   UNL     1       5.758   4.491  18.459  0.00  0.00    +0.000 HD
ENDROOT
BRANCH   3   5
ATOM      5  C   UNL     1       3.770   3.854  18.495  0.00  0.00    +0.000 A 
ATOM      6  C   UNL     1       3.151   3.037  17.542  0.00  0.00    +0.000 A 
ATOM      7  C   UNL     1       2.100   2.187  17.902  0.00  0.00    +0.000 A 
ATOM      8  C   UNL     1       1.662   2.141  19.222  0.00  0.00    +0.000 A 
ATOM      9  C   UNL     1       2.293   2.931  20.179  0.00  0.00    +0.000 A 
ATOM     10 CL   UNL     1       1.751   2.875  21.813  0.00  0.00    +0.000 Cl
ATOM     11  C   UNL     1       3.351   3.776  19.826  0.00  0.00    +0.000 A 
ENDBRANCH   3   5
BRANCH   1  12
ATOM     12  C   UNL     1       5.988   6.735  17.380  0.00  0.00    +0.000 C 
BRANCH  12  16
ATOM     13  N   UNL     1       7.521   5.198  14.486  0.00  0.00    +0.000 N 
ATOM     14  C   UNL     1       7.212   5.356  15.792  0.00  0.00    +0.000 C 
ATOM     15  O   UNL     1       7.609   4.591  16.661  0.00  0.00    +0.000 OA
ATOM     16  N   UNL     1       6.400   6.422  16.025  0.00  0.00    +0.000 N 
ATOM     17  H   UNL     1       8.125   4.428  14.236  0.00  0.00    +0.000 HD
ATOM     18  H   UNL     1       7.310   5.892  13.786  0.00  0.00    +0.000 HD
ATOM     19  H   UNL     1       6.418   7.182  15.361  0.00  0.00    +0.000 HD
ENDBRANCH  12  16
ENDBRANCH   1  12
TORSDOF 3
ENDMDL
