MODEL 1
REMARK VINA RESULT:      -8.3      0.000      0.000
REMARK  Name = 
REMARK  11 active torsions:
REMARK  status: ('A' for Active; 'I' for Inactive)
REMARK    1  A    between atoms: C_1  and  O_2
REMARK    2  A    between atoms: O_2  and  C_3
REMARK    3  A    between atoms: C_6  and  N_7
REMARK    4  A    between atoms: C_8  and  C_10
REMARK    5  A    between atoms: C_10  and  C_11
REMARK    6  A    between atoms: C_10  and  N_18
REMARK    7  A    between atoms: C_11  and  C_12
REMARK    8  A    between atoms: N_18  and  S_19
REMARK    9  A    between atoms: S_19  and  C_22
REMARK   10  A    between atoms: C_32  and  O_33
REMARK   11  A    between atoms: O_33  and  C_34
REMARK                            x       y       z     vdW  Elec       q    Type
REMARK                         _______ _______ _______ _____ _____    ______ ____
ROOT
ATOM      1  C   UNL     1       1.644   7.416  19.675  0.00  0.00    +0.000 C 
ENDROOT
BRANCH   1   3
ATOM      2  N   UNL     1       3.542   6.317  18.542  0.00  0.00    +0.000 N 
ATOM      3  C   UNL     1       2.588   7.315  18.443  0.00  0.00    +0.000 C 
ATOM      4  O   UNL     1       2.501   8.095  17.494  0.00  0.00    +0.000 OA
ATOM      5  H   UNL     1       3.976   6.188  19.446  0.00  0.00    +0.000 HD
BRANCH   2   9
ATOM      6  C   UNL     1       5.554   4.812  15.143  0.00  0.00    +0.000 A 
ATOM      7  C   UNL     1       5.503   6.192  15.372  0.00  0.00    +0.000 A 
ATOM      8  C   UNL     1       4.909   6.715  16.531  0.00  0.00    +0.000 A 
ATOM      9  C   UNL     1       4.319   5.853  17.462  0.00  0.00    +0.000 A 
ATOM     10  C   UNL     1       4.386   4.461  17.242  0.00  0.00    +0.000 A 
ATOM     11  C   UNL     1       5.019   3.947  16.100  0.00  0.00    +0.000 A 
BRANCH   6  13
ATOM     12  C   UNL     1       7.421   5.001  13.668  0.00  0.00    +0.000 C 
ATOM     13  O   UNL     1       6.148   4.434  13.968  0.00  0.00    +0.000 OA
ENDBRANCH   6  13
BRANCH  10  14
ATOM     14  O   UNL     1       3.829   3.695  18.240  0.00  0.00    +0.000 OA
ATOM     15  C   UNL     1       3.613   2.321  17.952  0.00  0.00    +0.000 C 
ENDBRANCH  10  14
ENDBRANCH   2   9
ENDBRANCH   1   3
BRANCH   1  16
ATOM     16  N   UNL     1       1.565   8.828  20.126  0.00  0.00    +0.000 NA
ATOM     17  H   UNL     1       1.485   9.528  19.385  0.00  0.00    +0.000 HD
BRANCH  16  18
ATOM     18  S   UNL     1       0.558   9.246  21.404  0.00  0.00    +0.000 S 
ATOM     19  O   UNL     1      -0.436   8.199  21.514  0.00  0.00    +0.000 OA
ATOM     20  O   UNL     1       1.390   9.581  22.539  0.00  0.00    +0.000 OA
BRANCH  18  21
ATOM     21  C   UNL     1      -0.260  10.742  20.923  0.00  0.00    +0.000 A 
ATOM     22  C   UNL     1      -0.443  11.717  21.924  0.00  0.00    +0.000 A 
ATOM     23  C   UNL     1      -1.288  12.794  21.705  0.00  0.00    +0.000 A 
ATOM     24  C   UNL     1      -1.984  12.871  20.507  0.00  0.00    +0.000 A 
ATOM     25  C   UNL     1      -1.808  11.892  19.513  0.00  0.00    +0.000 A 
ATOM     26  C   UNL     1      -2.583  11.940  18.346  0.00  0.00    +0.000 A 
ATOM     27  C   UNL     1      -2.400  10.990  17.352  0.00  0.00    +0.000 A 
ATOM     28  C   UNL     1      -1.415  10.046  17.543  0.00  0.00    +0.000 A 
ATOM     29  N   UNL     1      -0.674   9.951  18.670  0.00  0.00    +0.000 NA
ATOM     30  C   UNL     1      -0.890  10.827  19.680  0.00  0.00    +0.000 A 
ENDBRANCH  18  21
ENDBRANCH  16  18
ENDBRANCH   1  16
BRANCH   1  31
ATOM     31  C   UNL     1       2.177   6.526  20.832  0.00  0.00    +0.000 C 
BRANCH  31  32
ATOM     32  C   UNL     1       1.860   5.033  20.798  0.00  0.00    +0.000 A 
ATOM     33  C   UNL     1       2.582   4.157  21.630  0.00  0.00    +0.000 A 
ATOM     34  C   UNL     1       2.351   2.775  21.602  0.00  0.00    +0.000 A 
ATOM     35  C   UNL     1       1.381   2.244  20.759  0.00  0.00    +0.000 A 
ATOM     36  C   UNL     1       0.608   3.100  19.982  0.00  0.00    +0.000 A 
ATOM     37  C   UNL     1       0.836   4.480  20.017  0.00  0.00    +0.000 A 
ENDBRANCH  31  32
ENDBRANCH   1  31
TORSDOF 9
ENDMDL
MODEL 2
REMARK VINA RESULT:      -8.1      0.713      1.064
REMARK  Name = 
REMARK  11 active torsions:
REMARK  status: ('A' for Active; 'I' for Inactive)
REMARK    1  A    between atoms: C_1  and  O_2
REMARK    2  A    between atoms: O_2  and  C_3
REMARK    3  A    between atoms: C_6  and  N_7
REMARK    4  A    between atoms: C_8  and  C_10
REMARK    5  A    between atoms: C_10  and  C_11
REMARK    6  A    between atoms: C_10  and  N_18
REMARK    7  A    between atoms: C_11  and  C_12
REMARK    8  A    between atoms: N_18  and  S_19
REMARK    9  A    between atoms: S_19  and  C_22
REMARK   10  A    between atoms: C_32  and  O_33
REMARK   11  A    between atoms: O_33  and  C_34
REMARK                            x       y       z     vdW  Elec       q    Type
REMARK                         _______ _______ _______ _____ _____    ______ ____
ROOT
ATOM      1  C   UNL     1       1.736   7.406  19.678  0.00  0.00    +0.000 C 
ENDROOT
BRANCH   1   3
ATOM      2  N   UNL     1       3.778   6.430  18.691  0.00  0.00    +0.000 N 
ATOM      3  C   UNL     1       2.790   7.386  18.534  0.00  0.00    +0.000 C 
ATOM      4  O   UNL     1       2.751   8.192  17.603  0.00  0.00    +0.000 OA
ATOM      5  H   UNL     1       4.135   6.292  19.626  0.00  0.00    +0.000 HD
BRANCH   2   9
ATOM      6  C   UNL     1       6.235   4.947  15.588  0.00  0.00    +0.000 A 
ATOM      7  C   UNL     1       5.482   6.110  15.390  0.00  0.00    +0.000 A 
ATOM      8  C   UNL     1       4.718   6.667  16.427  0.00  0.00    +0.000 A 
ATOM      9  C   UNL     1       4.669   6.036  17.674  0.00  0.00    +0.000 A 
ATOM     10  C   UNL     1       5.442   4.873  17.882  0.00  0.00    +0.000 A 
ATOM     11  C   UNL     1       6.235   4.348  16.849  0.00  0.00    +0.000 A 
BRANCH   6  13
ATOM     12  C   UNL     1       6.180   3.818  13.485  0.00  0.00    +0.000 C 
ATOM     13  O   UNL     1       6.924   4.500  14.492  0.00  0.00    +0.000 OA
ENDBRANCH   6  13
BRANCH  10  14
ATOM     14  O   UNL     1       5.372   4.359  19.156  0.00  0.00    +0.000 OA
ATOM     15  C   UNL     1       4.770   3.080  19.300  0.00  0.00    +0.000 C 
ENDBRANCH  10  14
ENDBRANCH   2   9
ENDBRANCH   1   3
BRANCH   1  16
ATOM     16  N   UNL     1       1.570   8.795  20.176  0.00  0.00    +0.000 NA
ATOM     17  H   UNL     1       1.454   9.514  19.459  0.00  0.00    +0.000 HD
BRANCH  16  18
ATOM     18  S   UNL     1       0.527   9.108  21.457  0.00  0.00    +0.000 S 
ATOM     19  O   UNL     1      -0.453   8.042  21.468  0.00  0.00    +0.000 OA
ATOM     20  O   UNL     1       1.329   9.372  22.632  0.00  0.00    +0.000 OA
BRANCH  18  21
ATOM     21  C   UNL     1      -0.301  10.624  21.064  0.00  0.00    +0.000 A 
ATOM     22  C   UNL     1      -0.513  11.526  22.125  0.00  0.00    +0.000 A 
ATOM     23  C   UNL     1      -1.368  12.605  21.964  0.00  0.00    +0.000 A 
ATOM     24  C   UNL     1      -2.044  12.756  20.762  0.00  0.00    +0.000 A 
ATOM     25  C   UNL     1      -1.839  11.849  19.708  0.00  0.00    +0.000 A 
ATOM     26  C   UNL     1      -2.594  11.967  18.533  0.00  0.00    +0.000 A 
ATOM     27  C   UNL     1      -2.382  11.090  17.479  0.00  0.00    +0.000 A 
ATOM     28  C   UNL     1      -1.389  10.147  17.624  0.00  0.00    +0.000 A 
ATOM     29  N   UNL     1      -0.666   9.983  18.754  0.00  0.00    +0.000 NA
ATOM     30  C   UNL     1      -0.910  10.785  19.818  0.00  0.00    +0.000 A 
ENDBRANCH  18  21
ENDBRANCH  16  18
ENDBRANCH   1  16
BRANCH   1  31
ATOM     31  C   UNL     1       2.193   6.483  20.842  0.00  0.00    +0.000 C 
BRANCH  31  32
ATOM     32  C   UNL     1       1.875   4.993  20.748  0.00  0.00    +0.000 A 
ATOM     33  C   UNL     1       1.170   4.509  19.630  0.00  0.00    +0.000 A 
ATOM     34  C   UNL     1       0.822   3.157  19.522  0.00  0.00    +0.000 A 
ATOM     35  C   UNL     1       1.189   2.257  20.518  0.00  0.00    +0.000 A 
ATOM     36  C   UNL     1       1.947   2.703  21.595  0.00  0.00    +0.000 A 
ATOM     37  C   UNL     1       2.299   4.053  21.696  0.00  0.00    +0.000 A 
ENDBRANCH  31  32
ENDBRANCH   1  31
TORSDOF 9
ENDMDL
MODEL 3
REMARK VINA RESULT:      -7.8      1.726      2.628
REMARK  Name = 
REMARK  11 active torsions:
REMARK  status: ('A' for Active; 'I' for Inactive)
REMARK    1  A    between atoms: C_1  and  O_2
REMARK    2  A    between atoms: O_2  and  C_3
REMARK    3  A    between atoms: C_6  and  N_7
REMARK    4  A    between atoms: C_8  and  C_10
REMARK    5  A    between atoms: C_10  and  C_11
REMARK    6  A    between atoms: C_10  and  N_18
REMARK    7  A    between atoms: C_11  and  C_12
REMARK    8  A    between atoms: N_18  and  S_19
REMARK    9  A    between atoms: S_19  and  C_22
REMARK   10  A    between atoms: C_32  and  O_33
REMARK   11  A    between atoms: O_33  and  C_34
REMARK                            x       y       z     vdW  Elec       q    Type
REMARK                         _______ _______ _______ _____ _____    ______ ____
ROOT
ATOM      1  C   UNL     1       1.834   6.847  20.147  0.00  0.00    +0.000 C 
ENDROOT
BRANCH   1   3
ATOM      2  N   UNL     1       3.978   6.295  19.054  0.00  0.00    +0.000 N 
ATOM      3  C   UNL     1       2.767   6.949  18.907  0.00  0.00    +0.000 C 
ATOM      4  O   UNL     1       2.451   7.600  17.910  0.00  0.00    +0.000 OA
ATOM      5  H   UNL     1       4.428   6.365  19.956  0.00  0.00    +0.000 HD
BRANCH   2   9
ATOM      6  C   UNL     1       6.606   5.088  15.972  0.00  0.00    +0.000 A 
ATOM      7  C   UNL     1       5.327   5.563  15.655  0.00  0.00    +0.000 A 
ATOM      8  C   UNL     1       4.463   6.041  16.652  0.00  0.00    +0.000 A 
ATOM      9  C   UNL     1       4.860   6.013  17.993  0.00  0.00    +0.000 A 
ATOM     10  C   UNL     1       6.156   5.552  18.312  0.00  0.00    +0.000 A 
ATOM     11  C   UNL     1       7.027   5.114  17.302  0.00  0.00    +0.000 A 
BRANCH   6  13
ATOM     12  C   UNL     1       6.630   4.244  13.738  0.00  0.00    +0.000 C 
ATOM     13  O   UNL     1       7.343   4.637  14.909  0.00  0.00    +0.000 OA
ENDBRANCH   6  13
BRANCH  10  14
ATOM     14  O   UNL     1       6.474   5.615  19.649  0.00  0.00    +0.000 OA
ATOM     15  C   UNL     1       7.854   5.560  19.984  0.00  0.00    +0.000 C 
ENDBRANCH  10  14
ENDBRANCH   2   9
ENDBRANCH   1   3
BRANCH   1  16
ATOM     16  N   UNL     1       2.030   8.035  21.015  0.00  0.00    +0.000 NA
ATOM     17  H   UNL     1       2.674   8.745  20.660  0.00  0.00    +0.000 HD
BRANCH  16  18
ATOM     18  S   UNL     1       0.703   8.786  21.722  0.00  0.00    +0.000 S 
ATOM     19  O   UNL     1      -0.411   7.868  21.602  0.00  0.00    +0.000 OA
ATOM     20  O   UNL     1       1.105   9.275  23.023  0.00  0.00    +0.000 OA
BRANCH  18  21
ATOM     21  C   UNL     1       0.356  10.215  20.734  0.00  0.00    +0.000 A 
ATOM     22  C   UNL     1       1.022  10.308  19.496  0.00  0.00    +0.000 A 
ATOM     23  C   UNL     1       1.010  11.498  18.784  0.00  0.00    +0.000 A 
ATOM     24  C   UNL     1       0.374  12.604  19.330  0.00  0.00    +0.000 A 
ATOM     25  C   UNL     1      -0.281  12.512  20.570  0.00  0.00    +0.000 A 
ATOM     26  C   UNL     1      -0.843  13.659  21.146  0.00  0.00    +0.000 A 
ATOM     27  C   UNL     1      -1.510  13.573  22.359  0.00  0.00    +0.000 A 
ATOM     28  C   UNL     1      -1.627  12.327  22.936  0.00  0.00    +0.000 A 
ATOM     29  N   UNL     1      -1.068  11.207  22.426  0.00  0.00    +0.000 NA
ATOM     30  C   UNL     1      -0.353  11.287  21.279  0.00  0.00    +0.000 A 
ENDBRANCH  18  21
ENDBRANCH  16  18
ENDBRANCH   1  16
BRANCH   1  31
ATOM     31  C   UNL     1       2.151   5.554  20.950  0.00  0.00    +0.000 C 
BRANCH  31  32
ATOM     32  C   UNL     1       2.065   4.215  20.223  0.00  0.00    +0.000 A 
ATOM     33  C   UNL     1       0.834   3.807  19.676  0.00  0.00    +0.000 A 
ATOM     34  C   UNL     1       0.700   2.568  19.036  0.00  0.00    +0.000 A 
ATOM     35  C   UNL     1       1.796   1.721  18.911  0.00  0.00    +0.000 A 
ATOM     36  C   UNL     1       3.037   2.137  19.381  0.00  0.00    +0.000 A 
ATOM     37  C   UNL     1       3.169   3.378  20.014  0.00  0.00    +0.000 A 
ENDBRANCH  31  32
ENDBRANCH   1  31
TORSDOF 9
ENDMDL
MODEL 4
REMARK VINA RESULT:      -7.8      1.469      2.050
REMARK  Name = 
REMARK  11 active torsions:
REMARK  status: ('A' for Active; 'I' for Inactive)
REMARK    1  A    between atoms: C_1  and  O_2
REMARK    2  A    between atoms: O_2  and  C_3
REMARK    3  A    between atoms: C_6  and  N_7
REMARK    4  A    between atoms: C_8  and  C_10
REMARK    5  A    between atoms: C_10  and  C_11
REMARK    6  A    between atoms: C_10  and  N_18
REMARK    7  A    between atoms: C_11  and  C_12
REMARK    8  A    between atoms: N_18  and  S_19
REMARK    9  A    between atoms: S_19  and  C_22
REMARK   10  A    between atoms: C_32  and  O_33
REMARK   11  A    between atoms: O_33  and  C_34
REMARK                            x       y       z     vdW  Elec       q    Type
REMARK                         _______ _______ _______ _____ _____    ______ ____
ROOT
ATOM      1  C   UNL     1       1.871   7.366  19.711  0.00  0.00    +0.000 C 
ENDROOT
BRANCH   1   3
ATOM      2  N   UNL     1       3.895   6.289  18.795  0.00  0.00    +0.000 N 
ATOM      3  C   UNL     1       2.898   7.217  18.552  0.00  0.00    +0.000 C 
ATOM      4  O   UNL     1       2.832   7.909  17.535  0.00  0.00    +0.000 OA
ATOM      5  H   UNL     1       4.275   6.261  19.731  0.00  0.00    +0.000 HD
BRANCH   2   9
ATOM      6  C   UNL     1       6.230   4.834  15.587  0.00  0.00    +0.000 A 
ATOM      7  C   UNL     1       6.584   6.028  16.225  0.00  0.00    +0.000 A 
ATOM      8  C   UNL     1       5.872   6.495  17.341  0.00  0.00    +0.000 A 
ATOM      9  C   UNL     1       4.764   5.782  17.809  0.00  0.00    +0.000 A 
ATOM     10  C   UNL     1       4.416   4.568  17.179  0.00  0.00    +0.000 A 
ATOM     11  C   UNL     1       5.162   4.090  16.089  0.00  0.00    +0.000 A 
BRANCH   6  13
ATOM     12  C   UNL     1       6.330   3.915  13.385  0.00  0.00    +0.000 C 
ATOM     13  O   UNL     1       6.997   4.499  14.502  0.00  0.00    +0.000 OA
ENDBRANCH   6  13
BRANCH  10  14
ATOM     14  O   UNL     1       3.348   3.912  17.746  0.00  0.00    +0.000 OA
ATOM     15  C   UNL     1       3.456   2.502  17.876  0.00  0.00    +0.000 C 
ENDBRANCH  10  14
ENDBRANCH   2   9
ENDBRANCH   1   3
BRANCH   1  16
ATOM     16  N   UNL     1       1.842   8.777  20.171  0.00  0.00    +0.000 NA
ATOM     17  H   UNL     1       2.104   9.478  19.473  0.00  0.00    +0.000 HD
BRANCH  16  18
ATOM     18  S   UNL     1       0.538   9.341  21.069  0.00  0.00    +0.000 S 
ATOM     19  O   UNL     1      -0.439   8.273  21.103  0.00  0.00    +0.000 OA
ATOM     20  O   UNL     1       1.051   9.897  22.302  0.00  0.00    +0.000 OA
BRANCH  18  21
ATOM     21  C   UNL     1      -0.147  10.695  20.154  0.00  0.00    +0.000 A 
ATOM     22  C   UNL     1      -1.276  10.418  19.359  0.00  0.00    +0.000 A 
ATOM     23  C   UNL     1      -1.716  11.343  18.424  0.00  0.00    +0.000 A 
ATOM     24  C   UNL     1      -1.001  12.519  18.252  0.00  0.00    +0.000 A 
ATOM     25  C   UNL     1       0.132  12.789  19.039  0.00  0.00    +0.000 A 
ATOM     26  C   UNL     1       0.890  13.942  18.793  0.00  0.00    +0.000 A 
ATOM     27  C   UNL     1       1.997  14.227  19.579  0.00  0.00    +0.000 A 
ATOM     28  C   UNL     1       2.283  13.365  20.615  0.00  0.00    +0.000 A 
ATOM     29  N   UNL     1       1.593  12.228  20.860  0.00  0.00    +0.000 NA
ATOM     30  C   UNL     1       0.554  11.899  20.057  0.00  0.00    +0.000 A 
ENDBRANCH  18  21
ENDBRANCH  16  18
ENDBRANCH   1  16
BRANCH   1  31
ATOM     31  C   UNL     1       2.263   6.438  20.895  0.00  0.00    +0.000 C 
BRANCH  31  32
ATOM     32  C   UNL     1       1.886   4.961  20.809  0.00  0.00    +0.000 A 
ATOM     33  C   UNL     1       2.571   4.029  21.610  0.00  0.00    +0.000 A 
ATOM     34  C   UNL     1       2.285   2.659  21.534  0.00  0.00    +0.000 A 
ATOM     35  C   UNL     1       1.296   2.197  20.671  0.00  0.00    +0.000 A 
ATOM     36  C   UNL     1       0.561   3.109  19.924  0.00  0.00    +0.000 A 
ATOM     37  C   UNL     1       0.843   4.477  20.008  0.00  0.00    +0.000 A 
ENDBRANCH  31  32
ENDBRANCH   1  31
TORSDOF 9
ENDMDL
MODEL 5
REMARK VINA RESULT:      -7.8      1.655      2.123
REMARK  Name = 
REMARK  11 active torsions:
REMARK  status: ('A' for Active; 'I' for Inactive)
REMARK    1  A    between atoms: C_1  and  O_2
REMARK    2  A    between atoms: O_2  and  C_3
REMARK    3  A    between atoms: C_6  and  N_7
REMARK    4  A    between atoms: C_8  and  C_10
REMARK    5  A    between atoms: C_10  and  C_11
REMARK    6  A    between atoms: C_10  and  N_18
REMARK    7  A    between atoms: C_11  and  C_12
REMARK    8  A    between atoms: N_18  and  S_19
REMARK    9  A    between atoms: S_19  and  C_22
REMARK   10  A    between atoms: C_32  and  O_33
REMARK   11  A    between atoms: O_33  and  C_34
REMARK                            x       y       z     vdW  Elec       q    Type
REMARK                         _______ _______ _______ _____ _____    ______ ____
ROOT
ATOM      1  C   UNL     1       1.689   7.511  19.503  0.00  0.00    +0.000 C 
ENDROOT
BRANCH   1   3
ATOM      2  N   UNL     1       3.694   6.353  18.645  0.00  0.00    +0.000 N 
ATOM      3  C   UNL     1       2.772   7.355  18.396  0.00  0.00    +0.000 C 
ATOM      4  O   UNL     1       2.810   8.100  17.416  0.00  0.00    +0.000 OA
ATOM      5  H   UNL     1       4.015   6.254  19.598  0.00  0.00    +0.000 HD
BRANCH   2   9
ATOM      6  C   UNL     1       6.091   4.832  15.515  0.00  0.00    +0.000 A 
ATOM      7  C   UNL     1       6.338   6.111  16.026  0.00  0.00    +0.000 A 
ATOM      8  C   UNL     1       5.607   6.611  17.116  0.00  0.00    +0.000 A 
ATOM      9  C   UNL     1       4.587   5.841  17.684  0.00  0.00    +0.000 A 
ATOM     10  C   UNL     1       4.350   4.544  17.181  0.00  0.00    +0.000 A 
ATOM     11  C   UNL     1       5.114   4.038  16.118  0.00  0.00    +0.000 A 
BRANCH   6  13
ATOM     12  C   UNL     1       6.213   3.802  13.364  0.00  0.00    +0.000 C 
ATOM     13  O   UNL     1       6.863   4.470  14.442  0.00  0.00    +0.000 OA
ENDBRANCH   6  13
BRANCH  10  14
ATOM     14  O   UNL     1       3.366   3.844  17.841  0.00  0.00    +0.000 OA
ATOM     15  C   UNL     1       3.460   2.427  17.818  0.00  0.00    +0.000 C 
ENDBRANCH  10  14
ENDBRANCH   2   9
ENDBRANCH   1   3
BRANCH   1  16
ATOM     16  N   UNL     1       1.534   8.947  19.846  0.00  0.00    +0.000 NA
ATOM     17  H   UNL     1       2.023   9.606  19.236  0.00  0.00    +0.000 HD
BRANCH  16  18
ATOM     18  S   UNL     1       0.017   9.559  20.231  0.00  0.00    +0.000 S 
ATOM     19  O   UNL     1      -0.730   9.635  18.993  0.00  0.00    +0.000 OA
ATOM     20  O   UNL     1      -0.501   8.800  21.348  0.00  0.00    +0.000 OA
BRANCH  18  21
ATOM     21  C   UNL     1       0.282  11.207  20.825  0.00  0.00    +0.000 A 
ATOM     22  C   UNL     1      -0.457  11.602  21.958  0.00  0.00    +0.000 A 
ATOM     23  C   UNL     1      -0.505  12.936  22.331  0.00  0.00    +0.000 A 
ATOM     24  C   UNL     1       0.145  13.878  21.547  0.00  0.00    +0.000 A 
ATOM     25  C   UNL     1       0.874  13.485  20.411  0.00  0.00    +0.000 A 
ATOM     26  C   UNL     1       1.452  14.457  19.585  0.00  0.00    +0.000 A 
ATOM     27  C   UNL     1       2.191  14.076  18.475  0.00  0.00    +0.000 A 
ATOM     28  C   UNL     1       2.360  12.727  18.253  0.00  0.00    +0.000 A 
ATOM     29  N   UNL     1       1.790  11.763  19.010  0.00  0.00    +0.000 NA
ATOM     30  C   UNL     1       1.006  12.120  20.055  0.00  0.00    +0.000 A 
ENDBRANCH  18  21
ENDBRANCH  16  18
ENDBRANCH   1  16
BRANCH   1  31
ATOM     31  C   UNL     1       2.100   6.711  20.770  0.00  0.00    +0.000 C 
BRANCH  31  32
ATOM     32  C   UNL     1       1.858   5.204  20.781  0.00  0.00    +0.000 A 
ATOM     33  C   UNL     1       0.828   4.667  19.987  0.00  0.00    +0.000 A 
ATOM     34  C   UNL     1       0.546   3.295  19.997  0.00  0.00    +0.000 A 
ATOM     35  C   UNL     1       1.299   2.430  20.784  0.00  0.00    +0.000 A 
ATOM     36  C   UNL     1       2.367   2.931  21.520  0.00  0.00    +0.000 A 
ATOM     37  C   UNL     1       2.651   4.301  21.502  0.00  0.00    +0.000 A 
ENDBRANCH  31  32
ENDBRANCH   1  31
TORSDOF 9
ENDMDL
MODEL 6
REMARK VINA RESULT:      -7.8      1.127      2.046
REMARK  Name = 
REMARK  11 active torsions:
REMARK  status: ('A' for Active; 'I' for Inactive)
REMARK    1  A    between atoms: C_1  and  O_2
REMARK    2  A    between atoms: O_2  and  C_3
REMARK    3  A    between atoms: C_6  and  N_7
REMARK    4  A    between atoms: C_8  and  C_10
REMARK    5  A    between atoms: C_10  and  C_11
REMARK    6  A    between atoms: C_10  and  N_18
REMARK    7  A    between atoms: C_11  and  C_12
REMARK    8  A    between atoms: N_18  and  S_19
REMARK    9  A    between atoms: S_19  and  C_22
REMARK   10  A    between atoms: C_32  and  O_33
REMARK   11  A    between atoms: O_33  and  C_34
REMARK                            x       y       z     vdW  Elec       q    Type
REMARK                         _______ _______ _______ _____ _____    ______ ____
ROOT
ATOM      1  C   UNL     1       1.896   7.376  19.489  0.00  0.00    +0.000 C 
ENDROOT
BRANCH   1   3
ATOM      2  N   UNL     1       3.994   6.332  18.713  0.00  0.00    +0.000 N 
ATOM      3  C   UNL     1       3.025   7.277  18.424  0.00  0.00    +0.000 C 
ATOM      4  O   UNL     1       3.055   8.018  17.440  0.00  0.00    +0.000 OA
ATOM      5  H   UNL     1       4.285   6.256  19.678  0.00  0.00    +0.000 HD
BRANCH   2   9
ATOM      6  C   UNL     1       6.633   5.059  15.667  0.00  0.00    +0.000 A 
ATOM      7  C   UNL     1       6.986   6.130  16.496  0.00  0.00    +0.000 A 
ATOM      8  C   UNL     1       6.164   6.525  17.564  0.00  0.00    +0.000 A 
ATOM      9  C   UNL     1       4.950   5.868  17.788  0.00  0.00    +0.000 A 
ATOM     10  C   UNL     1       4.601   4.776  16.965  0.00  0.00    +0.000 A 
ATOM     11  C   UNL     1       5.451   4.364  15.926  0.00  0.00    +0.000 A 
BRANCH   6  13
ATOM     12  C   UNL     1       6.966   4.468  13.378  0.00  0.00    +0.000 C 
ATOM     13  O   UNL     1       7.514   4.787  14.655  0.00  0.00    +0.000 OA
ENDBRANCH   6  13
BRANCH  10  14
ATOM     14  O   UNL     1       3.417   4.160  17.299  0.00  0.00    +0.000 OA
ATOM     15  C   UNL     1       3.490   2.795  17.687  0.00  0.00    +0.000 C 
ENDBRANCH  10  14
ENDBRANCH   2   9
ENDBRANCH   1   3
BRANCH   1  16
ATOM     16  N   UNL     1       1.717   8.794  19.893  0.00  0.00    +0.000 NA
ATOM     17  H   UNL     1       1.652   9.469  19.128  0.00  0.00    +0.000 HD
BRANCH  16  18
ATOM     18  S   UNL     1       0.606   9.192  21.089  0.00  0.00    +0.000 S 
ATOM     19  O   UNL     1      -0.219   8.021  21.301  0.00  0.00    +0.000 OA
ATOM     20  O   UNL     1       1.330   9.782  22.194  0.00  0.00    +0.000 OA
BRANCH  18  21
ATOM     21  C   UNL     1      -0.412  10.476  20.414  0.00  0.00    +0.000 A 
ATOM     22  C   UNL     1      -0.318  10.698  19.026  0.00  0.00    +0.000 A 
ATOM     23  C   UNL     1      -0.876  11.834  18.461  0.00  0.00    +0.000 A 
ATOM     24  C   UNL     1      -1.484  12.768  19.286  0.00  0.00    +0.000 A 
ATOM     25  C   UNL     1      -1.567  12.551  20.673  0.00  0.00    +0.000 A 
ATOM     26  C   UNL     1      -2.108  13.543  21.501  0.00  0.00    +0.000 A 
ATOM     27  C   UNL     1      -2.214  13.328  22.866  0.00  0.00    +0.000 A 
ATOM     28  C   UNL     1      -1.811  12.103  23.353  0.00  0.00    +0.000 A 
ATOM     29  N   UNL     1      -1.255  11.137  22.588  0.00  0.00    +0.000 NA
ATOM     30  C   UNL     1      -1.078  11.360  21.265  0.00  0.00    +0.000 A 
ENDBRANCH  18  21
ENDBRANCH  16  18
ENDBRANCH   1  16
BRANCH   1  31
ATOM     31  C   UNL     1       2.258   6.519  20.734  0.00  0.00    +0.000 C 
BRANCH  31  32
ATOM     32  C   UNL     1       1.912   5.032  20.711  0.00  0.00    +0.000 A 
ATOM     33  C   UNL     1       2.547   4.164  21.618  0.00  0.00    +0.000 A 
ATOM     34  C   UNL     1       2.290   2.787  21.605  0.00  0.00    +0.000 A 
ATOM     35  C   UNL     1       1.379   2.253  20.700  0.00  0.00    +0.000 A 
ATOM     36  C   UNL     1       0.689   3.104  19.844  0.00  0.00    +0.000 A 
ATOM     37  C   UNL     1       0.943   4.479  19.864  0.00  0.00    +0.000 A 
ENDBRANCH  31  32
ENDBRANCH   1  31
TORSDOF 9
ENDMDL
MODEL 7
REMARK VINA RESULT:      -7.7      1.894      2.590
REMARK  Name = 
REMARK  11 active torsions:
REMARK  status: ('A' for Active; 'I' for Inactive)
REMARK    1  A    between atoms: C_1  and  O_2
REMARK    2  A    between atoms: O_2  and  C_3
REMARK    3  A    between atoms: C_6  and  N_7
REMARK    4  A    between atoms: C_8  and  C_10
REMARK    5  A    between atoms: C_10  and  C_11
REMARK    6  A    between atoms: C_10  and  N_18
REMARK    7  A    between atoms: C_11  and  C_12
REMARK    8  A    between atoms: N_18  and  S_19
REMARK    9  A    between atoms: S_19  and  C_22
REMARK   10  A    between atoms: C_32  and  O_33
REMARK   11  A    between atoms: O_33  and  C_34
REMARK                            x       y       z     vdW  Elec       q    Type
REMARK                         _______ _______ _______ _____ _____    ______ ____
ROOT
ATOM      1  C   UNL     1       2.028   7.071  19.260  0.00  0.00    +0.000 C 
ENDROOT
BRANCH   1   3
ATOM      2  N   UNL     1       3.229   5.757  17.549  0.00  0.00    +0.000 N 
ATOM      3  C   UNL     1       3.364   6.485  18.719  0.00  0.00    +0.000 C 
ATOM      4  O   UNL     1       4.427   6.632  19.322  0.00  0.00    +0.000 OA
ATOM      5  H   UNL     1       2.419   5.159  17.474  0.00  0.00    +0.000 HD
BRANCH   2   9
ATOM      6  C   UNL     1       6.212   4.419  14.871  0.00  0.00    +0.000 A 
ATOM      7  C   UNL     1       5.914   5.784  14.961  0.00  0.00    +0.000 A 
ATOM      8  C   UNL     1       4.983   6.263  15.895  0.00  0.00    +0.000 A 
ATOM      9  C   UNL     1       4.307   5.368  16.730  0.00  0.00    +0.000 A 
ATOM     10  C   UNL     1       4.620   3.994  16.654  0.00  0.00    +0.000 A 
ATOM     11  C   UNL     1       5.583   3.530  15.743  0.00  0.00    +0.000 A 
BRANCH   6  13
ATOM     12  C   UNL     1       6.622   3.731  12.621  0.00  0.00    +0.000 C 
ATOM     13  O   UNL     1       7.126   4.081  13.908  0.00  0.00    +0.000 OA
ENDBRANCH   6  13
BRANCH  10  14
ATOM     14  O   UNL     1       3.945   3.201  17.553  0.00  0.00    +0.000 OA
ATOM     15  C   UNL     1       4.567   2.985  18.811  0.00  0.00    +0.000 C 
ENDBRANCH  10  14
ENDBRANCH   2   9
ENDBRANCH   1   3
BRANCH   1  16
ATOM     16  N   UNL     1       2.165   8.539  19.436  0.00  0.00    +0.000 NA
ATOM     17  H   UNL     1       3.103   8.874  19.668  0.00  0.00    +0.000 HD
BRANCH  16  18
ATOM     18  S   UNL     1       1.452   9.587  18.332  0.00  0.00    +0.000 S 
ATOM     19  O   UNL     1       2.528  10.197  17.580  0.00  0.00    +0.000 OA
ATOM     20  O   UNL     1       0.401   8.867  17.646  0.00  0.00    +0.000 OA
BRANCH  18  21
ATOM     21  C   UNL     1       0.656  10.848  19.288  0.00  0.00    +0.000 A 
ATOM     22  C   UNL     1       0.828  12.178  18.856  0.00  0.00    +0.000 A 
ATOM     23  C   UNL     1       0.461  13.233  19.677  0.00  0.00    +0.000 A 
ATOM     24  C   UNL     1      -0.034  12.959  20.944  0.00  0.00    +0.000 A 
ATOM     25  C   UNL     1      -0.195  11.632  21.378  0.00  0.00    +0.000 A 
ATOM     26  C   UNL     1      -0.615  11.376  22.690  0.00  0.00    +0.000 A 
ATOM     27  C   UNL     1      -0.798  10.070  23.120  0.00  0.00    +0.000 A 
ATOM     28  C   UNL     1      -0.593   9.062  22.203  0.00  0.00    +0.000 A 
ATOM     29  N   UNL     1      -0.157   9.271  20.941  0.00  0.00    +0.000 NA
ATOM     30  C   UNL     1       0.095  10.536  20.529  0.00  0.00    +0.000 A 
ENDBRANCH  18  21
ENDBRANCH  16  18
ENDBRANCH   1  16
BRANCH   1  31
ATOM     31  C   UNL     1       1.666   6.412  20.620  0.00  0.00    +0.000 C 
BRANCH  31  32
ATOM     32  C   UNL     1       1.663   4.887  20.704  0.00  0.00    +0.000 A 
ATOM     33  C   UNL     1       0.935   4.148  19.753  0.00  0.00    +0.000 A 
ATOM     34  C   UNL     1       0.873   2.749  19.817  0.00  0.00    +0.000 A 
ATOM     35  C   UNL     1       1.551   2.062  20.818  0.00  0.00    +0.000 A 
ATOM     36  C   UNL     1       2.333   2.771  21.723  0.00  0.00    +0.000 A 
ATOM     37  C   UNL     1       2.400   4.166  21.653  0.00  0.00    +0.000 A 
ENDBRANCH  31  32
ENDBRANCH   1  31
TORSDOF 9
ENDMDL
MODEL 8
REMARK VINA RESULT:      -7.6      1.783      4.809
REMARK  Name = 
REMARK  11 active torsions:
REMARK  status: ('A' for Active; 'I' for Inactive)
REMARK    1  A    between atoms: C_1  and  O_2
REMARK    2  A    between atoms: O_2  and  C_3
REMARK    3  A    between atoms: C_6  and  N_7
REMARK    4  A    between atoms: C_8  and  C_10
REMARK    5  A    between atoms: C_10  and  C_11
REMARK    6  A    between atoms: C_10  and  N_18
REMARK    7  A    between atoms: C_11  and  C_12
REMARK    8  A    between atoms: N_18  and  S_19
REMARK    9  A    between atoms: S_19  and  C_22
REMARK   10  A    between atoms: C_32  and  O_33
REMARK   11  A    between atoms: O_33  and  C_34
REMARK                            x       y       z     vdW  Elec       q    Type
REMARK                         _______ _______ _______ _____ _____    ______ ____
ROOT
ATOM      1  C   UNL     1       0.980  10.112  19.356  0.00  0.00    +0.000 C 
ENDROOT
BRANCH   1   3
ATOM      2  N   UNL     1       2.400   8.094  19.301  0.00  0.00    +0.000 N 
ATOM      3  C   UNL     1       1.747   9.039  18.530  0.00  0.00    +0.000 C 
ATOM      4  O   UNL     1       1.790   9.077  17.300  0.00  0.00    +0.000 OA
ATOM      5  H   UNL     1       2.862   8.424  20.137  0.00  0.00    +0.000 HD
BRANCH   2   9
ATOM      6  C   UNL     1       3.633   4.409  17.636  0.00  0.00    +0.000 A 
ATOM      7  C   UNL     1       4.171   5.609  17.156  0.00  0.00    +0.000 A 
ATOM      8  C   UNL     1       3.838   6.841  17.741  0.00  0.00    +0.000 A 
ATOM      9  C   UNL     1       2.923   6.886  18.798  0.00  0.00    +0.000 A 
ATOM     10  C   UNL     1       2.393   5.675  19.296  0.00  0.00    +0.000 A 
ATOM     11  C   UNL     1       2.766   4.446  18.729  0.00  0.00    +0.000 A 
BRANCH   6  13
ATOM     12  C   UNL     1       3.787   2.027  17.603  0.00  0.00    +0.000 C 
ATOM     13  O   UNL     1       4.028   3.281  16.968  0.00  0.00    +0.000 OA
ENDBRANCH   6  13
BRANCH  10  14
ATOM     14  O   UNL     1       1.547   5.819  20.371  0.00  0.00    +0.000 OA
ATOM     15  C   UNL     1       1.002   4.629  20.922  0.00  0.00    +0.000 C 
ENDBRANCH  10  14
ENDBRANCH   2   9
ENDBRANCH   1   3
BRANCH   1  16
ATOM     16  N   UNL     1      -0.024   9.446  20.225  0.00  0.00    +0.000 NA
ATOM     17  H   UNL     1      -0.296   8.501  19.946  0.00  0.00    +0.000 HD
BRANCH  16  18
ATOM     18  S   UNL     1       0.136   9.513  21.896  0.00  0.00    +0.000 S 
ATOM     19  O   UNL     1      -0.668   8.437  22.437  0.00  0.00    +0.000 OA
ATOM     20  O   UNL     1       1.546   9.595  22.208  0.00  0.00    +0.000 OA
BRANCH  18  21
ATOM     21  C   UNL     1      -0.580  11.053  22.402  0.00  0.00    +0.000 A 
ATOM     22  C   UNL     1      -1.822  10.990  23.065  0.00  0.00    +0.000 A 
ATOM     23  C   UNL     1      -2.566  12.142  23.264  0.00  0.00    +0.000 A 
ATOM     24  C   UNL     1      -2.094  13.345  22.761  0.00  0.00    +0.000 A 
ATOM     25  C   UNL     1      -0.860  13.405  22.090  0.00  0.00    +0.000 A 
ATOM     26  C   UNL     1      -0.439  14.612  21.515  0.00  0.00    +0.000 A 
ATOM     27  C   UNL     1       0.787  14.684  20.871  0.00  0.00    +0.000 A 
ATOM     28  C   UNL     1       1.571  13.552  20.861  0.00  0.00    +0.000 A 
ATOM     29  N   UNL     1       1.183  12.364  21.377  0.00  0.00    +0.000 NA
ATOM     30  C   UNL     1      -0.041  12.258  21.945  0.00  0.00    +0.000 A 
ENDBRANCH  18  21
ENDBRANCH  16  18
ENDBRANCH   1  16
BRANCH   1  31
ATOM     31  C   UNL     1       0.267  11.111  18.404  0.00  0.00    +0.000 C 
BRANCH  31  32
ATOM     32  C   UNL     1      -1.234  10.946  18.178  0.00  0.00    +0.000 A 
ATOM     33  C   UNL     1      -2.128  11.811  18.836  0.00  0.00    +0.000 A 
ATOM     34  C   UNL     1      -3.514  11.670  18.689  0.00  0.00    +0.000 A 
ATOM     35  C   UNL     1      -4.034  10.676  17.865  0.00  0.00    +0.000 A 
ATOM     36  C   UNL     1      -3.166   9.858  17.151  0.00  0.00    +0.000 A 
ATOM     37  C   UNL     1      -1.782  10.006  17.295  0.00  0.00    +0.000 A 
ENDBRANCH  31  32
ENDBRANCH   1  31
TORSDOF 9
ENDMDL
MODEL 9
REMARK VINA RESULT:      -7.6      1.854      2.698
REMARK  Name = 
REMARK  11 active torsions:
REMARK  status: ('A' for Active; 'I' for Inactive)
REMARK    1  A    between atoms: C_1  and  O_2
REMARK    2  A    between atoms: O_2  and  C_3
REMARK    3  A    between atoms: C_6  and  N_7
REMARK    4  A    between atoms: C_8  and  C_10
REMARK    5  A    between atoms: C_10  and  C_11
REMARK    6  A    between atoms: C_10  and  N_18
REMARK    7  A    between atoms: C_11  and  C_12
REMARK    8  A    between atoms: N_18  and  S_19
REMARK    9  A    between atoms: S_19  and  C_22
REMARK   10  A    between atoms: C_32  and  O_33
REMARK   11  A    between atoms: O_33  and  C_34
REMARK                            x       y       z     vdW  Elec       q    Type
REMARK                         _______ _______ _______ _____ _____    ______ ____
ROOT
ATOM      1  C   UNL     1       1.772   6.503  20.051  0.00  0.00    +0.000 C 
ENDROOT
BRANCH   1   3
ATOM      2  N   UNL     1       3.953   6.509  18.895  0.00  0.00    +0.000 N 
ATOM      3  C   UNL     1       2.582   6.446  18.724  0.00  0.00    +0.000 C 
ATOM      4  O   UNL     1       2.025   6.394  17.626  0.00  0.00    +0.000 OA
ATOM      5  H   UNL     1       4.297   7.148  19.598  0.00  0.00    +0.000 HD
BRANCH   2   9
ATOM      6  C   UNL     1       6.707   5.230  15.956  0.00  0.00    +0.000 A 
ATOM      7  C   UNL     1       5.515   5.854  15.572  0.00  0.00    +0.000 A 
ATOM      8  C   UNL     1       4.618   6.357  16.528  0.00  0.00    +0.000 A 
ATOM      9  C   UNL     1       4.893   6.203  17.891  0.00  0.00    +0.000 A 
ATOM     10  C   UNL     1       6.104   5.590  18.279  0.00  0.00    +0.000 A 
ATOM     11  C   UNL     1       7.012   5.128  17.313  0.00  0.00    +0.000 A 
BRANCH   6  13
ATOM     12  C   UNL     1       6.880   4.680  13.639  0.00  0.00    +0.000 C 
ATOM     13  O   UNL     1       7.486   4.771  14.926  0.00  0.00    +0.000 OA
ENDBRANCH   6  13
BRANCH  10  14
ATOM     14  O   UNL     1       6.309   5.536  19.638  0.00  0.00    +0.000 OA
ATOM     15  C   UNL     1       7.658   5.522  20.084  0.00  0.00    +0.000 C 
ENDBRANCH  10  14
ENDBRANCH   2   9
ENDBRANCH   1   3
BRANCH   1  16
ATOM     16  N   UNL     1       2.209   7.676  20.849  0.00  0.00    +0.000 NA
ATOM     17  H   UNL     1       2.966   8.231  20.446  0.00  0.00    +0.000 HD
BRANCH  16  18
ATOM     18  S   UNL     1       1.065   8.700  21.532  0.00  0.00    +0.000 S 
ATOM     19  O   UNL     1      -0.185   7.969  21.564  0.00  0.00    +0.000 OA
ATOM     20  O   UNL     1       1.622   9.243  22.752  0.00  0.00    +0.000 OA
BRANCH  18  21
ATOM     21  C   UNL     1       0.886  10.061  20.413  0.00  0.00    +0.000 A 
ATOM     22  C   UNL     1       1.469   9.917  19.138  0.00  0.00    +0.000 A 
ATOM     23  C   UNL     1       1.599  11.015  18.302  0.00  0.00    +0.000 A 
ATOM     24  C   UNL     1       1.191  12.261  18.756  0.00  0.00    +0.000 A 
ATOM     25  C   UNL     1       0.620  12.405  20.032  0.00  0.00    +0.000 A 
ATOM     26  C   UNL     1       0.293  13.682  20.507  0.00  0.00    +0.000 A 
ATOM     27  C   UNL     1      -0.292  13.830  21.756  0.00  0.00    +0.000 A 
ATOM     28  C   UNL     1      -0.568  12.686  22.472  0.00  0.00    +0.000 A 
ATOM     29  N   UNL     1      -0.236  11.442  22.059  0.00  0.00    +0.000 NA
ATOM     30  C   UNL     1       0.400  11.287  20.874  0.00  0.00    +0.000 A 
ENDBRANCH  18  21
ENDBRANCH  16  18
ENDBRANCH   1  16
BRANCH   1  31
ATOM     31  C   UNL     1       1.993   5.200  20.869  0.00  0.00    +0.000 C 
BRANCH  31  32
ATOM     32  C   UNL     1       2.298   3.913  20.107  0.00  0.00    +0.000 A 
ATOM     33  C   UNL     1       3.588   3.356  20.186  0.00  0.00    +0.000 A 
ATOM     34  C   UNL     1       3.922   2.199  19.471  0.00  0.00    +0.000 A 
ATOM     35  C   UNL     1       2.970   1.563  18.681  0.00  0.00    +0.000 A 
ATOM     36  C   UNL     1       1.672   2.058  18.646  0.00  0.00    +0.000 A 
ATOM     37  C   UNL     1       1.338   3.210  19.366  0.00  0.00    +0.000 A 
ENDBRANCH  31  32
ENDBRANCH   1  31
TORSDOF 9
ENDMDL
