MODEL 1
REMARK VINA RESULT:      -8.6      0.000      0.000
REMARK  Name = 
REMARK  8 active torsions:
REMARK  status: ('A' for Active; 'I' for Inactive)
REMARK    1  A    between atoms: C_2  and  C_4
REMARK    2  A    between atoms: C_7  and  N_8
REMARK    3  A    between atoms: C_9  and  C_11
REMARK    4  A    between atoms: C_11  and  O_12
REMARK    5  A    between atoms: C_11  and  C_13
REMARK    6  A    between atoms: C_17  and  C_18
REMARK    7  A    between atoms: C_21  and  O_22
REMARK    8  A    between atoms: O_22  and  C_23
REMARK                            x       y       z     vdW  Elec       q    Type
REMARK                         _______ _______ _______ _____ _____    ______ ____
ROOT
ATOM      1  C   UNL     1       1.740   8.510  20.558  0.00  0.00    +0.000 C 
ENDROOT
BRANCH   1   2
ATOM      2  C   UNL     1       1.907   7.081  20.089  0.00  0.00    +0.000 A 
ATOM      3  C   UNL     1       1.371   5.996  20.794  0.00  0.00    +0.000 A 
ATOM      4  C   UNL     1       1.659   4.690  20.410  0.00  0.00    +0.000 A 
ATOM      5  C   UNL     1       2.508   4.453  19.327  0.00  0.00    +0.000 A 
ATOM      6  C   UNL     1       3.074   5.507  18.587  0.00  0.00    +0.000 A 
ATOM      7  C   UNL     1       2.742   6.817  18.983  0.00  0.00    +0.000 A 
BRANCH   6   8
ATOM      8  C   UNL     1       4.015   5.246  17.470  0.00  0.00    +0.000 A 
ATOM      9  C   UNL     1       4.439   3.946  17.153  0.00  0.00    +0.000 A 
ATOM     10  C   UNL     1       5.346   3.706  16.116  0.00  0.00    +0.000 A 
ATOM     11  C   UNL     1       5.837   4.756  15.343  0.00  0.00    +0.000 A 
ATOM     12  C   UNL     1       5.460   6.056  15.657  0.00  0.00    +0.000 A 
ATOM     13  C   UNL     1       4.553   6.293  16.700  0.00  0.00    +0.000 A 
BRANCH  11  14
ATOM     14  O   UNL     1       6.717   4.392  14.373  0.00  0.00    +0.000 OA
BRANCH  14  15
ATOM     15  C   UNL     1       6.222   3.875  13.145  0.00  0.00    +0.000 C 
ATOM     16  F   UNL     1       6.347   2.538  13.010  0.00  0.00    +0.000 F 
ATOM     17  F   UNL     1       4.918   4.204  13.019  0.00  0.00    +0.000 F 
ATOM     18  F   UNL     1       6.903   4.458  12.132  0.00  0.00    +0.000 F 
ENDBRANCH  14  15
ENDBRANCH  11  14
ENDBRANCH   6   8
ENDBRANCH   1   2
BRANCH   1  20
ATOM     19  N   UNL     1       0.082   9.802  19.271  0.00  0.00    +0.000 N 
ATOM     20  C   UNL     1       0.310   9.058  20.422  0.00  0.00    +0.000 C 
ATOM     21  O   UNL     1      -0.531   8.788  21.281  0.00  0.00    +0.000 OA
ATOM     22  H   UNL     1       0.807   9.801  18.563  0.00  0.00    +0.000 HD
BRANCH  19  26
ATOM     23  C   UNL     1      -3.631  11.523  18.241  0.00  0.00    +0.000 A 
ATOM     24  C   UNL     1      -2.860  12.106  19.244  0.00  0.00    +0.000 A 
ATOM     25  C   UNL     1      -1.624  11.555  19.586  0.00  0.00    +0.000 A 
ATOM     26  C   UNL     1      -1.140  10.422  18.926  0.00  0.00    +0.000 A 
ATOM     27  C   UNL     1      -1.893   9.871  17.882  0.00  0.00    +0.000 A 
ATOM     28  C   UNL     1      -3.145  10.408  17.550  0.00  0.00    +0.000 A 
BRANCH  23  30
ATOM     29  N   UNL     1      -5.445  13.031  18.690  0.00  0.00    +0.000 NA
ATOM     30  C   UNL     1      -4.965  12.103  17.929  0.00  0.00    +0.000 C 
ATOM     31  N   UNL     1      -5.688  11.636  16.870  0.00  0.00    +0.000 N 
ATOM     32  H   UNL     1      -6.350  13.344  18.335  0.00  0.00    +0.000 HD
ATOM     33  H   UNL     1      -6.684  11.817  16.917  0.00  0.00    +0.000 HD
ATOM     34  H   UNL     1      -5.503  10.670  16.616  0.00  0.00    +0.000 HD
ENDBRANCH  23  30
ENDBRANCH  19  26
ENDBRANCH   1  20
BRANCH   1  35
ATOM     35  O   UNL     1       2.123   8.528  21.933  0.00  0.00    +0.000 OA
ATOM     36  H   UNL     1       2.772   9.256  22.008  0.00  0.00    +0.000 HD
ENDBRANCH   1  35
TORSDOF 8
ENDMDL
MODEL 2
REMARK VINA RESULT:      -8.5      3.020      4.897
REMARK  Name = 
REMARK  8 active torsions:
REMARK  status: ('A' for Active; 'I' for Inactive)
REMARK    1  A    between atoms: C_2  and  C_4
REMARK    2  A    between atoms: C_7  and  N_8
REMARK    3  A    between atoms: C_9  and  C_11
REMARK    4  A    between atoms: C_11  and  O_12
REMARK    5  A    between atoms: C_11  and  C_13
REMARK    6  A    between atoms: C_17  and  C_18
REMARK    7  A    between atoms: C_21  and  O_22
REMARK    8  A    between atoms: O_22  and  C_23
REMARK                            x       y       z     vdW  Elec       q    Type
REMARK                         _______ _______ _______ _____ _____    ______ ____
ROOT
ATOM      1  C   UNL     1      -1.193  12.361  20.471  0.00  0.00    +0.000 C 
ENDROOT
BRANCH   1   2
ATOM      2  C   UNL     1      -0.729  11.095  21.156  0.00  0.00    +0.000 A 
ATOM      3  C   UNL     1      -0.885  10.890  22.532  0.00  0.00    +0.000 A 
ATOM      4  C   UNL     1      -0.324   9.777  23.151  0.00  0.00    +0.000 A 
ATOM      5  C   UNL     1       0.421   8.865  22.401  0.00  0.00    +0.000 A 
ATOM      6  C   UNL     1       0.610   9.025  21.017  0.00  0.00    +0.000 A 
ATOM      7  C   UNL     1       0.007  10.147  20.415  0.00  0.00    +0.000 A 
BRANCH   6   8
ATOM      8  C   UNL     1       1.445   8.078  20.238  0.00  0.00    +0.000 A 
ATOM      9  C   UNL     1       1.893   8.385  18.943  0.00  0.00    +0.000 A 
ATOM     10  C   UNL     1       2.659   7.479  18.202  0.00  0.00    +0.000 A 
ATOM     11  C   UNL     1       3.027   6.248  18.743  0.00  0.00    +0.000 A 
ATOM     12  C   UNL     1       2.568   5.906  20.008  0.00  0.00    +0.000 A 
ATOM     13  C   UNL     1       1.797   6.815  20.747  0.00  0.00    +0.000 A 
BRANCH  11  14
ATOM     14  O   UNL     1       3.763   5.456  17.919  0.00  0.00    +0.000 OA
BRANCH  14  15
ATOM     15  C   UNL     1       3.247   4.191  17.530  0.00  0.00    +0.000 C 
ATOM     16  F   UNL     1       3.473   3.198  18.415  0.00  0.00    +0.000 F 
ATOM     17  F   UNL     1       1.917   4.297  17.327  0.00  0.00    +0.000 F 
ATOM     18  F   UNL     1       3.824   3.838  16.359  0.00  0.00    +0.000 F 
ENDBRANCH  14  15
ENDBRANCH  11  14
ENDBRANCH   6   8
ENDBRANCH   1   2
BRANCH   1  20
ATOM     19  N   UNL     1      -2.375  11.277  18.599  0.00  0.00    +0.000 N 
ATOM     20  C   UNL     1      -1.414  12.216  18.956  0.00  0.00    +0.000 C 
ATOM     21  O   UNL     1      -0.787  12.934  18.176  0.00  0.00    +0.000 OA
ATOM     22  H   UNL     1      -2.940  10.883  19.340  0.00  0.00    +0.000 HD
BRANCH  19  26
ATOM     23  C   UNL     1      -3.479  10.160  14.681  0.00  0.00    +0.000 A 
ATOM     24  C   UNL     1      -4.154  11.203  15.313  0.00  0.00    +0.000 A 
ATOM     25  C   UNL     1      -3.790  11.591  16.603  0.00  0.00    +0.000 A 
ATOM     26  C   UNL     1      -2.746  10.950  17.275  0.00  0.00    +0.000 A 
ATOM     27  C   UNL     1      -2.034   9.940  16.616  0.00  0.00    +0.000 A 
ATOM     28  C   UNL     1      -2.410   9.531  15.329  0.00  0.00    +0.000 A 
BRANCH  23  30
ATOM     29  N   UNL     1      -3.045   9.647  12.376  0.00  0.00    +0.000 NA
ATOM     30  C   UNL     1      -3.918   9.736  13.325  0.00  0.00    +0.000 C 
ATOM     31  N   UNL     1      -5.235   9.475  13.078  0.00  0.00    +0.000 N 
ATOM     32  H   UNL     1      -3.490   9.322  11.517  0.00  0.00    +0.000 HD
ATOM     33  H   UNL     1      -5.506   9.528  12.103  0.00  0.00    +0.000 HD
ATOM     34  H   UNL     1      -5.890   9.976  13.670  0.00  0.00    +0.000 HD
ENDBRANCH  23  30
ENDBRANCH  19  26
ENDBRANCH   1  20
BRANCH   1  35
ATOM     35  O   UNL     1      -2.425  12.726  21.093  0.00  0.00    +0.000 OA
ATOM     36  H   UNL     1      -3.112  12.221  20.613  0.00  0.00    +0.000 HD
ENDBRANCH   1  35
TORSDOF 8
ENDMDL
MODEL 3
REMARK VINA RESULT:      -8.4      2.562      3.201
REMARK  Name = 
REMARK  8 active torsions:
REMARK  status: ('A' for Active; 'I' for Inactive)
REMARK    1  A    between atoms: C_2  and  C_4
REMARK    2  A    between atoms: C_7  and  N_8
REMARK    3  A    between atoms: C_9  and  C_11
REMARK    4  A    between atoms: C_11  and  O_12
REMARK    5  A    between atoms: C_11  and  C_13
REMARK    6  A    between atoms: C_17  and  C_18
REMARK    7  A    between atoms: C_21  and  O_22
REMARK    8  A    between atoms: O_22  and  C_23
REMARK                            x       y       z     vdW  Elec       q    Type
REMARK                         _______ _______ _______ _____ _____    ______ ____
ROOT
ATOM      1  C   UNL     1       1.107  10.247  18.434  0.00  0.00    +0.000 C 
ENDROOT
BRANCH   1   2
ATOM      2  C   UNL     1       1.544   8.869  18.879  0.00  0.00    +0.000 A 
ATOM      3  C   UNL     1       1.324   8.399  20.179  0.00  0.00    +0.000 A 
ATOM      4  C   UNL     1       1.859   7.183  20.593  0.00  0.00    +0.000 A 
ATOM      5  C   UNL     1       2.642   6.431  19.715  0.00  0.00    +0.000 A 
ATOM      6  C   UNL     1       2.895   6.859  18.400  0.00  0.00    +0.000 A 
ATOM      7  C   UNL     1       2.318   8.080  18.002  0.00  0.00    +0.000 A 
BRANCH   6   8
ATOM      8  C   UNL     1       3.770   6.078  17.491  0.00  0.00    +0.000 A 
ATOM      9  C   UNL     1       3.669   4.681  17.391  0.00  0.00    +0.000 A 
ATOM     10  C   UNL     1       4.513   3.946  16.552  0.00  0.00    +0.000 A 
ATOM     11  C   UNL     1       5.467   4.587  15.764  0.00  0.00    +0.000 A 
ATOM     12  C   UNL     1       5.611   5.964  15.869  0.00  0.00    +0.000 A 
ATOM     13  C   UNL     1       4.766   6.698  16.714  0.00  0.00    +0.000 A 
BRANCH  11  14
ATOM     14  O   UNL     1       6.229   3.760  15.000  0.00  0.00    +0.000 OA
BRANCH  14  15
ATOM     15  C   UNL     1       6.160   3.863  13.584  0.00  0.00    +0.000 C 
ATOM     16  F   UNL     1       6.502   2.738  12.923  0.00  0.00    +0.000 F 
ATOM     17  F   UNL     1       4.906   4.213  13.226  0.00  0.00    +0.000 F 
ATOM     18  F   UNL     1       7.000   4.846  13.188  0.00  0.00    +0.000 F 
ENDBRANCH  14  15
ENDBRANCH  11  14
ENDBRANCH   6   8
ENDBRANCH   1   2
BRANCH   1  20
ATOM     19  N   UNL     1      -0.730  10.954  19.916  0.00  0.00    +0.000 N 
ATOM     20  C   UNL     1       0.602  11.149  19.572  0.00  0.00    +0.000 C 
ATOM     21  O   UNL     1       1.378  11.932  20.121  0.00  0.00    +0.000 OA
ATOM     22  H   UNL     1      -1.207  10.160  19.507  0.00  0.00    +0.000 HD
BRANCH  19  26
ATOM     23  C   UNL     1      -2.941  13.068  22.825  0.00  0.00    +0.000 A 
ATOM     24  C   UNL     1      -2.019  12.104  23.230  0.00  0.00    +0.000 A 
ATOM     25  C   UNL     1      -1.273  11.407  22.280  0.00  0.00    +0.000 A 
ATOM     26  C   UNL     1      -1.430  11.668  20.915  0.00  0.00    +0.000 A 
ATOM     27  C   UNL     1      -2.317  12.675  20.515  0.00  0.00    +0.000 A 
ATOM     28  C   UNL     1      -3.085  13.362  21.465  0.00  0.00    +0.000 A 
BRANCH  23  30
ATOM     29  N   UNL     1      -4.023  15.019  23.713  0.00  0.00    +0.000 NA
ATOM     30  C   UNL     1      -3.757  13.762  23.856  0.00  0.00    +0.000 C 
ATOM     31  N   UNL     1      -4.193  13.086  24.959  0.00  0.00    +0.000 N 
ATOM     32  H   UNL     1      -4.609  15.345  24.482  0.00  0.00    +0.000 HD
ATOM     33  H   UNL     1      -4.432  13.669  25.752  0.00  0.00    +0.000 HD
ATOM     34  H   UNL     1      -3.610  12.304  25.241  0.00  0.00    +0.000 HD
ENDBRANCH  23  30
ENDBRANCH  19  26
ENDBRANCH   1  20
BRANCH   1  35
ATOM     35  O   UNL     1       2.248  10.852  17.825  0.00  0.00    +0.000 OA
ATOM     36  H   UNL     1       1.887  11.426  17.120  0.00  0.00    +0.000 HD
ENDBRANCH   1  35
TORSDOF 8
ENDMDL
MODEL 4
REMARK VINA RESULT:      -8.3      2.541      3.300
REMARK  Name = 
REMARK  8 active torsions:
REMARK  status: ('A' for Active; 'I' for Inactive)
REMARK    1  A    between atoms: C_2  and  C_4
REMARK    2  A    between atoms: C_7  and  N_8
REMARK    3  A    between atoms: C_9  and  C_11
REMARK    4  A    between atoms: C_11  and  O_12
REMARK    5  A    between atoms: C_11  and  C_13
REMARK    6  A    between atoms: C_17  and  C_18
REMARK    7  A    between atoms: C_21  and  O_22
REMARK    8  A    between atoms: O_22  and  C_23
REMARK                            x       y       z     vdW  Elec       q    Type
REMARK                         _______ _______ _______ _____ _____    ______ ____
ROOT
ATOM      1  C   UNL     1       1.084  10.198  18.271  0.00  0.00    +0.000 C 
ENDROOT
BRANCH   1   2
ATOM      2  C   UNL     1       1.535   8.851  18.790  0.00  0.00    +0.000 A 
ATOM      3  C   UNL     1       1.307   8.445  20.111  0.00  0.00    +0.000 A 
ATOM      4  C   UNL     1       1.854   7.260  20.592  0.00  0.00    +0.000 A 
ATOM      5  C   UNL     1       2.658   6.476  19.762  0.00  0.00    +0.000 A 
ATOM      6  C   UNL     1       2.921   6.840  18.429  0.00  0.00    +0.000 A 
ATOM      7  C   UNL     1       2.330   8.031  17.963  0.00  0.00    +0.000 A 
BRANCH   6   8
ATOM      8  C   UNL     1       3.818   6.028  17.571  0.00  0.00    +0.000 A 
ATOM      9  C   UNL     1       4.842   6.616  16.811  0.00  0.00    +0.000 A 
ATOM     10  C   UNL     1       5.669   5.850  15.983  0.00  0.00    +0.000 A 
ATOM     11  C   UNL     1       5.517   4.466  15.909  0.00  0.00    +0.000 A 
ATOM     12  C   UNL     1       4.490   3.864  16.624  0.00  0.00    +0.000 A 
ATOM     13  C   UNL     1       3.661   4.635  17.451  0.00  0.00    +0.000 A 
BRANCH  11  14
ATOM     14  O   UNL     1       6.377   3.840  15.063  0.00  0.00    +0.000 OA
BRANCH  14  15
ATOM     15  C   UNL     1       6.175   3.952  13.661  0.00  0.00    +0.000 C 
ATOM     16  F   UNL     1       6.458   2.832  12.963  0.00  0.00    +0.000 F 
ATOM     17  F   UNL     1       4.892   4.298  13.423  0.00  0.00    +0.000 F 
ATOM     18  F   UNL     1       6.970   4.941  13.194  0.00  0.00    +0.000 F 
ENDBRANCH  14  15
ENDBRANCH  11  14
ENDBRANCH   6   8
ENDBRANCH   1   2
BRANCH   1  20
ATOM     19  N   UNL     1      -0.686  10.995  19.790  0.00  0.00    +0.000 N 
ATOM     20  C   UNL     1       0.625  11.176  19.364  0.00  0.00    +0.000 C 
ATOM     21  O   UNL     1       1.417  12.005  19.814  0.00  0.00    +0.000 OA
ATOM     22  H   UNL     1      -1.173  10.168  19.465  0.00  0.00    +0.000 HD
BRANCH  19  26
ATOM     23  C   UNL     1      -2.771  13.310  22.637  0.00  0.00    +0.000 A 
ATOM     24  C   UNL     1      -1.924  12.292  23.069  0.00  0.00    +0.000 A 
ATOM     25  C   UNL     1      -1.218  11.528  22.139  0.00  0.00    +0.000 A 
ATOM     26  C   UNL     1      -1.343  11.774  20.769  0.00  0.00    +0.000 A 
ATOM     27  C   UNL     1      -2.154  12.834  20.341  0.00  0.00    +0.000 A 
ATOM     28  C   UNL     1      -2.881  13.589  21.271  0.00  0.00    +0.000 A 
BRANCH  23  30
ATOM     29  N   UNL     1      -3.855  13.518  24.769  0.00  0.00    +0.000 NA
ATOM     30  C   UNL     1      -3.547  14.079  23.647  0.00  0.00    +0.000 C 
ATOM     31  N   UNL     1      -3.957  15.352  23.376  0.00  0.00    +0.000 N 
ATOM     32  H   UNL     1      -4.361  14.175  25.365  0.00  0.00    +0.000 HD
ATOM     33  H   UNL     1      -4.739  15.678  23.933  0.00  0.00    +0.000 HD
ATOM     34  H   UNL     1      -4.096  15.559  22.392  0.00  0.00    +0.000 HD
ENDBRANCH  23  30
ENDBRANCH  19  26
ENDBRANCH   1  20
BRANCH   1  35
ATOM     35  O   UNL     1       2.201  10.756  17.579  0.00  0.00    +0.000 OA
ATOM     36  H   UNL     1       2.985  10.471  18.090  0.00  0.00    +0.000 HD
ENDBRANCH   1  35
TORSDOF 8
ENDMDL
MODEL 5
REMARK VINA RESULT:      -8.3      2.893      4.587
REMARK  Name = 
REMARK  8 active torsions:
REMARK  status: ('A' for Active; 'I' for Inactive)
REMARK    1  A    between atoms: C_2  and  C_4
REMARK    2  A    between atoms: C_7  and  N_8
REMARK    3  A    between atoms: C_9  and  C_11
REMARK    4  A    between atoms: C_11  and  O_12
REMARK    5  A    between atoms: C_11  and  C_13
REMARK    6  A    between atoms: C_17  and  C_18
REMARK    7  A    between atoms: C_21  and  O_22
REMARK    8  A    between atoms: O_22  and  C_23
REMARK                            x       y       z     vdW  Elec       q    Type
REMARK                         _______ _______ _______ _____ _____    ______ ____
ROOT
ATOM      1  C   UNL     1      -1.207  12.198  20.523  0.00  0.00    +0.000 C 
ENDROOT
BRANCH   1   2
ATOM      2  C   UNL     1      -0.543  10.971  21.107  0.00  0.00    +0.000 A 
ATOM      3  C   UNL     1      -0.468  10.747  22.488  0.00  0.00    +0.000 A 
ATOM      4  C   UNL     1       0.267   9.680  22.994  0.00  0.00    +0.000 A 
ATOM      5  C   UNL     1       0.958   8.834  22.123  0.00  0.00    +0.000 A 
ATOM      6  C   UNL     1       0.918   9.017  20.729  0.00  0.00    +0.000 A 
ATOM      7  C   UNL     1       0.143  10.089  20.246  0.00  0.00    +0.000 A 
BRANCH   6   8
ATOM      8  C   UNL     1       1.696   8.145  19.815  0.00  0.00    +0.000 A 
ATOM      9  C   UNL     1       2.214   6.910  20.239  0.00  0.00    +0.000 A 
ATOM     10  C   UNL     1       2.969   6.102  19.382  0.00  0.00    +0.000 A 
ATOM     11  C   UNL     1       3.207   6.490  18.065  0.00  0.00    +0.000 A 
ATOM     12  C   UNL     1       2.736   7.722  17.631  0.00  0.00    +0.000 A 
ATOM     13  C   UNL     1       1.982   8.531  18.493  0.00  0.00    +0.000 A 
BRANCH  11  14
ATOM     14  O   UNL     1       3.961   5.622  17.339  0.00  0.00    +0.000 OA
BRANCH  14  15
ATOM     15  C   UNL     1       5.289   5.984  16.985  0.00  0.00    +0.000 C 
ATOM     16  F   UNL     1       5.820   6.969  17.738  0.00  0.00    +0.000 F 
ATOM     17  F   UNL     1       6.083   4.896  17.069  0.00  0.00    +0.000 F 
ATOM     18  F   UNL     1       5.286   6.404  15.699  0.00  0.00    +0.000 F 
ENDBRANCH  14  15
ENDBRANCH  11  14
ENDBRANCH   6   8
ENDBRANCH   1   2
BRANCH   1  20
ATOM     19  N   UNL     1      -2.379  11.149  18.626  0.00  0.00    +0.000 N 
ATOM     20  C   UNL     1      -1.461  12.120  19.009  0.00  0.00    +0.000 C 
ATOM     21  O   UNL     1      -0.895  12.911  18.253  0.00  0.00    +0.000 OA
ATOM     22  H   UNL     1      -2.901  10.685  19.359  0.00  0.00    +0.000 HD
BRANCH  19  26
ATOM     23  C   UNL     1      -3.531  10.176  14.684  0.00  0.00    +0.000 A 
ATOM     24  C   UNL     1      -4.231  11.160  15.380  0.00  0.00    +0.000 A 
ATOM     25  C   UNL     1      -3.852  11.501  16.679  0.00  0.00    +0.000 A 
ATOM     26  C   UNL     1      -2.768  10.871  17.296  0.00  0.00    +0.000 A 
ATOM     27  C   UNL     1      -2.034   9.921  16.574  0.00  0.00    +0.000 A 
ATOM     28  C   UNL     1      -2.424   9.560  15.277  0.00  0.00    +0.000 A 
BRANCH  23  30
ATOM     29  N   UNL     1      -3.117   9.711  12.365  0.00  0.00    +0.000 NA
ATOM     30  C   UNL     1      -3.985   9.800  13.318  0.00  0.00    +0.000 C 
ATOM     31  N   UNL     1      -5.309   9.582  13.069  0.00  0.00    +0.000 N 
ATOM     32  H   UNL     1      -3.574   9.421  11.499  0.00  0.00    +0.000 HD
ATOM     33  H   UNL     1      -5.582   9.669  12.097  0.00  0.00    +0.000 HD
ATOM     34  H   UNL     1      -5.949  10.086  13.676  0.00  0.00    +0.000 HD
ENDBRANCH  23  30
ENDBRANCH  19  26
ENDBRANCH   1  20
BRANCH   1  35
ATOM     35  O   UNL     1      -2.453  12.342  21.203  0.00  0.00    +0.000 OA
ATOM     36  H   UNL     1      -2.686  13.289  21.112  0.00  0.00    +0.000 HD
ENDBRANCH   1  35
TORSDOF 8
ENDMDL
MODEL 6
REMARK VINA RESULT:      -8.3      2.688      3.384
REMARK  Name = 
REMARK  8 active torsions:
REMARK  status: ('A' for Active; 'I' for Inactive)
REMARK    1  A    between atoms: C_2  and  C_4
REMARK    2  A    between atoms: C_7  and  N_8
REMARK    3  A    between atoms: C_9  and  C_11
REMARK    4  A    between atoms: C_11  and  O_12
REMARK    5  A    between atoms: C_11  and  C_13
REMARK    6  A    between atoms: C_17  and  C_18
REMARK    7  A    between atoms: C_21  and  O_22
REMARK    8  A    between atoms: O_22  and  C_23
REMARK                            x       y       z     vdW  Elec       q    Type
REMARK                         _______ _______ _______ _____ _____    ______ ____
ROOT
ATOM      1  C   UNL     1       0.994  10.136  18.286  0.00  0.00    +0.000 C 
ENDROOT
BRANCH   1   2
ATOM      2  C   UNL     1       1.507   8.793  18.756  0.00  0.00    +0.000 A 
ATOM      3  C   UNL     1       1.355   8.356  20.078  0.00  0.00    +0.000 A 
ATOM      4  C   UNL     1       1.957   7.178  20.509  0.00  0.00    +0.000 A 
ATOM      5  C   UNL     1       2.741   6.433  19.626  0.00  0.00    +0.000 A 
ATOM      6  C   UNL     1       2.929   6.828  18.290  0.00  0.00    +0.000 A 
ATOM      7  C   UNL     1       2.283   8.010  17.876  0.00  0.00    +0.000 A 
BRANCH   6   8
ATOM      8  C   UNL     1       3.804   6.058  17.373  0.00  0.00    +0.000 A 
ATOM      9  C   UNL     1       3.761   4.655  17.319  0.00  0.00    +0.000 A 
ATOM     10  C   UNL     1       4.607   3.931  16.473  0.00  0.00    +0.000 A 
ATOM     11  C   UNL     1       5.504   4.586  15.632  0.00  0.00    +0.000 A 
ATOM     12  C   UNL     1       5.591   5.971  15.690  0.00  0.00    +0.000 A 
ATOM     13  C   UNL     1       4.744   6.695  16.542  0.00  0.00    +0.000 A 
BRANCH  11  14
ATOM     14  O   UNL     1       6.274   3.769  14.866  0.00  0.00    +0.000 OA
BRANCH  14  15
ATOM     15  C   UNL     1       6.116   3.789  13.453  0.00  0.00    +0.000 C 
ATOM     16  F   UNL     1       6.323   2.600  12.850  0.00  0.00    +0.000 F 
ATOM     17  F   UNL     1       4.871   4.217  13.153  0.00  0.00    +0.000 F 
ATOM     18  F   UNL     1       7.000   4.673  12.939  0.00  0.00    +0.000 F 
ENDBRANCH  14  15
ENDBRANCH  11  14
ENDBRANCH   6   8
ENDBRANCH   1   2
BRANCH   1  20
ATOM     19  N   UNL     1      -0.708  10.944  19.874  0.00  0.00    +0.000 N 
ATOM     20  C   UNL     1       0.597  11.094  19.420  0.00  0.00    +0.000 C 
ATOM     21  O   UNL     1       1.428  11.881  19.875  0.00  0.00    +0.000 OA
ATOM     22  H   UNL     1      -1.231  10.144  19.537  0.00  0.00    +0.000 HD
BRANCH  19  26
ATOM     23  C   UNL     1      -2.384  13.258  22.981  0.00  0.00    +0.000 A 
ATOM     24  C   UNL     1      -2.759  13.507  21.662  0.00  0.00    +0.000 A 
ATOM     25  C   UNL     1      -2.222  12.741  20.626  0.00  0.00    +0.000 A 
ATOM     26  C   UNL     1      -1.313  11.713  20.894  0.00  0.00    +0.000 A 
ATOM     27  C   UNL     1      -0.982  11.430  22.225  0.00  0.00    +0.000 A 
ATOM     28  C   UNL     1      -1.501  12.211  23.267  0.00  0.00    +0.000 A 
BRANCH  23  30
ATOM     29  N   UNL     1      -3.889  13.668  24.806  0.00  0.00    +0.000 NA
ATOM     30  C   UNL     1      -2.936  14.120  24.061  0.00  0.00    +0.000 C 
ATOM     31  N   UNL     1      -2.460  15.387  24.240  0.00  0.00    +0.000 N 
ATOM     32  H   UNL     1      -4.142  14.360  25.513  0.00  0.00    +0.000 HD
ATOM     33  H   UNL     1      -3.084  16.012  24.736  0.00  0.00    +0.000 HD
ATOM     34  H   UNL     1      -2.087  15.827  23.404  0.00  0.00    +0.000 HD
ENDBRANCH  23  30
ENDBRANCH  19  26
ENDBRANCH   1  20
BRANCH   1  35
ATOM     35  O   UNL     1       2.048  10.722  17.522  0.00  0.00    +0.000 OA
ATOM     36  H   UNL     1       2.527   9.965  17.126  0.00  0.00    +0.000 HD
ENDBRANCH   1  35
TORSDOF 8
ENDMDL
MODEL 7
REMARK VINA RESULT:      -8.3      2.914      4.738
REMARK  Name = 
REMARK  8 active torsions:
REMARK  status: ('A' for Active; 'I' for Inactive)
REMARK    1  A    between atoms: C_2  and  C_4
REMARK    2  A    between atoms: C_7  and  N_8
REMARK    3  A    between atoms: C_9  and  C_11
REMARK    4  A    between atoms: C_11  and  O_12
REMARK    5  A    between atoms: C_11  and  C_13
REMARK    6  A    between atoms: C_17  and  C_18
REMARK    7  A    between atoms: C_21  and  O_22
REMARK    8  A    between atoms: O_22  and  C_23
REMARK                            x       y       z     vdW  Elec       q    Type
REMARK                         _______ _______ _______ _____ _____    ______ ____
ROOT
ATOM      1  C   UNL     1      -1.307  12.213  20.654  0.00  0.00    +0.000 C 
ENDROOT
BRANCH   1   2
ATOM      2  C   UNL     1      -0.668  10.984  21.263  0.00  0.00    +0.000 A 
ATOM      3  C   UNL     1      -0.617  10.776  22.647  0.00  0.00    +0.000 A 
ATOM      4  C   UNL     1       0.097   9.706  23.177  0.00  0.00    +0.000 A 
ATOM      5  C   UNL     1       0.790   8.842  22.327  0.00  0.00    +0.000 A 
ATOM      6  C   UNL     1       0.774   9.007  20.930  0.00  0.00    +0.000 A 
ATOM      7  C   UNL     1       0.019  10.083  20.423  0.00  0.00    +0.000 A 
BRANCH   6   8
ATOM      8  C   UNL     1       1.554   8.114  20.039  0.00  0.00    +0.000 A 
ATOM      9  C   UNL     1       1.916   8.504  18.740  0.00  0.00    +0.000 A 
ATOM     10  C   UNL     1       2.629   7.649  17.893  0.00  0.00    +0.000 A 
ATOM     11  C   UNL     1       3.029   6.387  18.328  0.00  0.00    +0.000 A 
ATOM     12  C   UNL     1       2.655   5.964  19.597  0.00  0.00    +0.000 A 
ATOM     13  C   UNL     1       1.936   6.822  20.442  0.00  0.00    +0.000 A 
BRANCH  11  14
ATOM     14  O   UNL     1       3.708   5.652  17.408  0.00  0.00    +0.000 OA
BRANCH  14  15
ATOM     15  C   UNL     1       5.055   5.990  17.106  0.00  0.00    +0.000 C 
ATOM     16  F   UNL     1       5.193   6.966  16.185  0.00  0.00    +0.000 F 
ATOM     17  F   UNL     1       5.682   6.371  18.239  0.00  0.00    +0.000 F 
ATOM     18  F   UNL     1       5.675   4.886  16.633  0.00  0.00    +0.000 F 
ENDBRANCH  14  15
ENDBRANCH  11  14
ENDBRANCH   6   8
ENDBRANCH   1   2
BRANCH   1  20
ATOM     19  N   UNL     1      -2.467  11.189  18.736  0.00  0.00    +0.000 N 
ATOM     20  C   UNL     1      -1.522  12.127  19.134  0.00  0.00    +0.000 C 
ATOM     21  O   UNL     1      -0.904  12.885  18.386  0.00  0.00    +0.000 OA
ATOM     22  H   UNL     1      -3.028  10.755  19.458  0.00  0.00    +0.000 HD
BRANCH  19  26
ATOM     23  C   UNL     1      -3.537  10.216  14.770  0.00  0.00    +0.000 A 
ATOM     24  C   UNL     1      -4.273  11.175  15.463  0.00  0.00    +0.000 A 
ATOM     25  C   UNL     1      -3.922  11.516  16.771  0.00  0.00    +0.000 A 
ATOM     26  C   UNL     1      -2.830  10.911  17.398  0.00  0.00    +0.000 A 
ATOM     27  C   UNL     1      -2.060   9.987  16.679  0.00  0.00    +0.000 A 
ATOM     28  C   UNL     1      -2.422   9.626  15.374  0.00  0.00    +0.000 A 
BRANCH  23  30
ATOM     29  N   UNL     1      -5.205   9.573  13.167  0.00  0.00    +0.000 NA
ATOM     30  C   UNL     1      -3.961   9.838  13.395  0.00  0.00    +0.000 C 
ATOM     31  N   UNL     1      -3.039   9.741  12.393  0.00  0.00    +0.000 N 
ATOM     32  H   UNL     1      -5.343   9.357  12.179  0.00  0.00    +0.000 HD
ATOM     33  H   UNL     1      -3.322   9.170  11.606  0.00  0.00    +0.000 HD
ATOM     34  H   UNL     1      -2.098   9.510  12.696  0.00  0.00    +0.000 HD
ENDBRANCH  23  30
ENDBRANCH  19  26
ENDBRANCH   1  20
BRANCH   1  35
ATOM     35  O   UNL     1      -2.570  12.370  21.300  0.00  0.00    +0.000 OA
ATOM     36  H   UNL     1      -3.195  11.833  20.772  0.00  0.00    +0.000 HD
ENDBRANCH   1  35
TORSDOF 8
ENDMDL
MODEL 8
REMARK VINA RESULT:      -8.2      0.409      1.543
REMARK  Name = 
REMARK  8 active torsions:
REMARK  status: ('A' for Active; 'I' for Inactive)
REMARK    1  A    between atoms: C_2  and  C_4
REMARK    2  A    between atoms: C_7  and  N_8
REMARK    3  A    between atoms: C_9  and  C_11
REMARK    4  A    between atoms: C_11  and  O_12
REMARK    5  A    between atoms: C_11  and  C_13
REMARK    6  A    between atoms: C_17  and  C_18
REMARK    7  A    between atoms: C_21  and  O_22
REMARK    8  A    between atoms: O_22  and  C_23
REMARK                            x       y       z     vdW  Elec       q    Type
REMARK                         _______ _______ _______ _____ _____    ______ ____
ROOT
ATOM      1  C   UNL     1       1.524   8.733  20.708  0.00  0.00    +0.000 C 
ENDROOT
BRANCH   1   2
ATOM      2  C   UNL     1       1.811   7.311  20.280  0.00  0.00    +0.000 A 
ATOM      3  C   UNL     1       1.429   6.207  21.052  0.00  0.00    +0.000 A 
ATOM      4  C   UNL     1       1.829   4.922  20.698  0.00  0.00    +0.000 A 
ATOM      5  C   UNL     1       2.639   4.728  19.577  0.00  0.00    +0.000 A 
ATOM      6  C   UNL     1       3.053   5.803  18.769  0.00  0.00    +0.000 A 
ATOM      7  C   UNL     1       2.609   7.088  19.138  0.00  0.00    +0.000 A 
BRANCH   6   8
ATOM      8  C   UNL     1       3.954   5.593  17.610  0.00  0.00    +0.000 A 
ATOM      9  C   UNL     1       4.512   6.673  16.906  0.00  0.00    +0.000 A 
ATOM     10  C   UNL     1       5.340   6.472  15.797  0.00  0.00    +0.000 A 
ATOM     11  C   UNL     1       5.662   5.183  15.374  0.00  0.00    +0.000 A 
ATOM     12  C   UNL     1       5.097   4.098  16.031  0.00  0.00    +0.000 A 
ATOM     13  C   UNL     1       4.263   4.304  17.140  0.00  0.00    +0.000 A 
BRANCH  11  14
ATOM     14  O   UNL     1       6.468   5.123  14.281  0.00  0.00    +0.000 OA
BRANCH  14  15
ATOM     15  C   UNL     1       6.233   4.123  13.299  0.00  0.00    +0.000 C 
ATOM     16  F   UNL     1       7.013   4.221  12.202  0.00  0.00    +0.000 F 
ATOM     17  F   UNL     1       6.415   2.906  13.854  0.00  0.00    +0.000 F 
ATOM     18  F   UNL     1       4.945   4.214  12.899  0.00  0.00    +0.000 F 
ENDBRANCH  14  15
ENDBRANCH  11  14
ENDBRANCH   6   8
ENDBRANCH   1   2
BRANCH   1  20
ATOM     19  N   UNL     1      -0.197   9.940  19.421  0.00  0.00    +0.000 N 
ATOM     20  C   UNL     1       0.056   9.159  20.542  0.00  0.00    +0.000 C 
ATOM     21  O   UNL     1      -0.787   8.771  21.352  0.00  0.00    +0.000 OA
ATOM     22  H   UNL     1       0.549  10.040  18.743  0.00  0.00    +0.000 HD
BRANCH  19  26
ATOM     23  C   UNL     1      -3.900  11.647  18.331  0.00  0.00    +0.000 A 
ATOM     24  C   UNL     1      -3.487  10.461  17.726  0.00  0.00    +0.000 A 
ATOM     25  C   UNL     1      -2.271   9.880  18.086  0.00  0.00    +0.000 A 
ATOM     26  C   UNL     1      -1.457  10.467  19.059  0.00  0.00    +0.000 A 
ATOM     27  C   UNL     1      -1.902  11.628  19.704  0.00  0.00    +0.000 A 
ATOM     28  C   UNL     1      -3.112  12.228  19.329  0.00  0.00    +0.000 A 
BRANCH  23  30
ATOM     29  N   UNL     1      -5.862  11.716  16.949  0.00  0.00    +0.000 NA
ATOM     30  C   UNL     1      -5.179  12.270  17.895  0.00  0.00    +0.000 C 
ATOM     31  N   UNL     1      -5.607  13.433  18.467  0.00  0.00    +0.000 N 
ATOM     32  H   UNL     1      -6.721  12.242  16.780  0.00  0.00    +0.000 HD
ATOM     33  H   UNL     1      -6.269  13.964  17.913  0.00  0.00    +0.000 HD
ATOM     34  H   UNL     1      -4.870  14.031  18.830  0.00  0.00    +0.000 HD
ENDBRANCH  23  30
ENDBRANCH  19  26
ENDBRANCH   1  20
BRANCH   1  35
ATOM     35  O   UNL     1       1.887   8.819  22.086  0.00  0.00    +0.000 OA
ATOM     36  H   UNL     1       1.927   7.892  22.397  0.00  0.00    +0.000 HD
ENDBRANCH   1  35
TORSDOF 8
ENDMDL
MODEL 9
REMARK VINA RESULT:      -8.2      3.212      5.117
REMARK  Name = 
REMARK  8 active torsions:
REMARK  status: ('A' for Active; 'I' for Inactive)
REMARK    1  A    between atoms: C_2  and  C_4
REMARK    2  A    between atoms: C_7  and  N_8
REMARK    3  A    between atoms: C_9  and  C_11
REMARK    4  A    between atoms: C_11  and  O_12
REMARK    5  A    between atoms: C_11  and  C_13
REMARK    6  A    between atoms: C_17  and  C_18
REMARK    7  A    between atoms: C_21  and  O_22
REMARK    8  A    between atoms: O_22  and  C_23
REMARK                            x       y       z     vdW  Elec       q    Type
REMARK                         _______ _______ _______ _____ _____    ______ ____
ROOT
ATOM      1  C   UNL     1      -1.215  12.418  20.535  0.00  0.00    +0.000 C 
ENDROOT
BRANCH   1   2
ATOM      2  C   UNL     1      -0.753  11.180  21.272  0.00  0.00    +0.000 A 
ATOM      3  C   UNL     1      -0.871  11.049  22.662  0.00  0.00    +0.000 A 
ATOM      4  C   UNL     1      -0.313   9.959  23.321  0.00  0.00    +0.000 A 
ATOM      5  C   UNL     1       0.392   8.994  22.599  0.00  0.00    +0.000 A 
ATOM      6  C   UNL     1       0.542   9.079  21.203  0.00  0.00    +0.000 A 
ATOM      7  C   UNL     1      -0.058  10.180  20.561  0.00  0.00    +0.000 A 
BRANCH   6   8
ATOM      8  C   UNL     1       1.336   8.076  20.451  0.00  0.00    +0.000 A 
ATOM      9  C   UNL     1       1.938   8.386  19.221  0.00  0.00    +0.000 A 
ATOM     10  C   UNL     1       2.664   7.431  18.502  0.00  0.00    +0.000 A 
ATOM     11  C   UNL     1       2.836   6.142  19.003  0.00  0.00    +0.000 A 
ATOM     12  C   UNL     1       2.222   5.799  20.201  0.00  0.00    +0.000 A 
ATOM     13  C   UNL     1       1.491   6.758  20.917  0.00  0.00    +0.000 A 
BRANCH  11  14
ATOM     14  O   UNL     1       3.553   5.307  18.206  0.00  0.00    +0.000 OA
BRANCH  14  15
ATOM     15  C   UNL     1       4.719   4.683  18.726  0.00  0.00    +0.000 C 
ATOM     16  F   UNL     1       4.483   3.565  19.443  0.00  0.00    +0.000 F 
ATOM     17  F   UNL     1       5.551   4.377  17.707  0.00  0.00    +0.000 F 
ATOM     18  F   UNL     1       5.351   5.565  19.533  0.00  0.00    +0.000 F 
ENDBRANCH  14  15
ENDBRANCH  11  14
ENDBRANCH   6   8
ENDBRANCH   1   2
BRANCH   1  20
ATOM     19  N   UNL     1      -2.397  11.224  18.732  0.00  0.00    +0.000 N 
ATOM     20  C   UNL     1      -1.459  12.205  19.033  0.00  0.00    +0.000 C 
ATOM     21  O   UNL     1      -0.868  12.909  18.212  0.00  0.00    +0.000 OA
ATOM     22  H   UNL     1      -2.937  10.843  19.499  0.00  0.00    +0.000 HD
BRANCH  19  26
ATOM     23  C   UNL     1      -3.563  10.197  14.808  0.00  0.00    +0.000 A 
ATOM     24  C   UNL     1      -2.470   9.556  15.388  0.00  0.00    +0.000 A 
ATOM     25  C   UNL     1      -2.081   9.877  16.690  0.00  0.00    +0.000 A 
ATOM     26  C   UNL     1      -2.782  10.833  17.430  0.00  0.00    +0.000 A 
ATOM     27  C   UNL     1      -3.913  11.435  16.863  0.00  0.00    +0.000 A 
ATOM     28  C   UNL     1      -4.294  11.132  15.548  0.00  0.00    +0.000 A 
BRANCH  23  30
ATOM     29  N   UNL     1      -5.163   9.642  13.106  0.00  0.00    +0.000 NA
ATOM     30  C   UNL     1      -3.926   9.869  13.403  0.00  0.00    +0.000 C 
ATOM     31  N   UNL     1      -2.958   9.778  12.445  0.00  0.00    +0.000 N 
ATOM     32  H   UNL     1      -5.257   9.458  12.106  0.00  0.00    +0.000 HD
ATOM     33  H   UNL     1      -3.214   9.237  11.628  0.00  0.00    +0.000 HD
ATOM     34  H   UNL     1      -2.039   9.514  12.787  0.00  0.00    +0.000 HD
ENDBRANCH  23  30
ENDBRANCH  19  26
ENDBRANCH   1  20
BRANCH   1  35
ATOM     35  O   UNL     1      -2.433  12.824  21.158  0.00  0.00    +0.000 OA
ATOM     36  H   UNL     1      -3.142  12.509  20.560  0.00  0.00    +0.000 HD
ENDBRANCH   1  35
TORSDOF 8
ENDMDL
