MODEL 1
REMARK VINA RESULT:      -8.5      0.000      0.000
REMARK  Name = 
REMARK  6 active torsions:
REMARK  status: ('A' for Active; 'I' for Inactive)
REMARK    1  A    between atoms: C_1  and  C_2
REMARK    2  A    between atoms: C_5  and  N_6
REMARK    3  A    between atoms: C_7  and  C_9
REMARK    4  A    between atoms: C_13  and  C_14
REMARK    5  A    between atoms: C_20  and  N_21
REMARK    6  A    between atoms: C_22  and  C_24
REMARK                            x       y       z     vdW  Elec       q    Type
REMARK                         _______ _______ _______ _____ _____    ______ ____
ROOT
ATOM      1  C   UNL     1      -0.455  13.809  18.799  0.00  0.00    +0.000 C 
ATOM      2  C   UNL     1       0.115  12.435  18.575  0.00  0.00    +0.000 A 
ATOM      3  C   UNL     1       1.516  12.322  18.493  0.00  0.00    +0.000 A 
ATOM      4  C   UNL     1       2.140  11.094  18.259  0.00  0.00    +0.000 A 
ATOM      5  C   UNL     1       1.372   9.948  18.116  0.00  0.00    +0.000 A 
ATOM      6  C   UNL     1      -0.020  10.048  18.242  0.00  0.00    +0.000 A 
ATOM      7  C   UNL     1      -0.675  11.277  18.438  0.00  0.00    +0.000 A 
ENDROOT
BRANCH   5   8
ATOM      8  N   UNL     1       1.907   8.671  17.831  0.00  0.00    +0.000 N 
ATOM      9  C   UNL     1       2.238   7.698  18.759  0.00  0.00    +0.000 C 
ATOM     10  O   UNL     1       2.126   7.775  19.978  0.00  0.00    +0.000 OA
ATOM     11  H   UNL     1       2.228   8.537  16.879  0.00  0.00    +0.000 HD
BRANCH   9  12
ATOM     12  C   UNL     1       2.863   6.466  18.193  0.00  0.00    +0.000 A 
ATOM     13  C   UNL     1       4.050   6.499  17.454  0.00  0.00    +0.000 A 
ATOM     14  C   UNL     1       4.591   5.313  16.950  0.00  0.00    +0.000 A 
ATOM     15  C   UNL     1       3.950   4.093  17.182  0.00  0.00    +0.000 A 
ATOM     16  C   UNL     1       2.756   4.041  17.917  0.00  0.00    +0.000 A 
ATOM     17  C   UNL     1       2.213   5.241  18.405  0.00  0.00    +0.000 A 
BRANCH  16  18
ATOM     18  C   UNL     1       2.063   2.731  18.199  0.00  0.00    +0.000 C 
ATOM     19  F   UNL     1       2.281   1.785  17.242  0.00  0.00    +0.000 F 
ATOM     20  F   UNL     1       2.475   2.171  19.371  0.00  0.00    +0.000 F 
ATOM     21  F   UNL     1       0.713   2.858  18.296  0.00  0.00    +0.000 F 
ENDBRANCH  16  18
ENDBRANCH   9  12
ENDBRANCH   5   8
BRANCH   7  22
ATOM     22  N   UNL     1      -2.095  11.362  18.489  0.00  0.00    +0.000 N 
ATOM     23  C   UNL     1      -2.967  11.280  17.407  0.00  0.00    +0.000 C 
ATOM     24  O   UNL     1      -2.656  11.155  16.225  0.00  0.00    +0.000 OA
ATOM     25  H   UNL     1      -2.541  11.537  19.385  0.00  0.00    +0.000 HD
BRANCH  23  26
ATOM     26  C   UNL     1      -4.427  11.355  17.736  0.00  0.00    +0.000 A 
ATOM     27  C   UNL     1      -5.185  12.380  17.167  0.00  0.00    +0.000 A 
ATOM     28  C   UNL     1      -6.553  12.408  17.405  0.00  0.00    +0.000 A 
ATOM     29  C   UNL     1      -7.115  11.422  18.205  0.00  0.00    +0.000 A 
ATOM     30  C   UNL     1      -6.281  10.451  18.750  0.00  0.00    +0.000 A 
ATOM     31  N   UNL     1      -4.944  10.387  18.540  0.00  0.00    +0.000 NA
ENDBRANCH  23  26
ENDBRANCH   7  22
TORSDOF 5
ENDMDL
MODEL 2
REMARK VINA RESULT:      -8.5      4.480      7.273
REMARK  Name = 
REMARK  6 active torsions:
REMARK  status: ('A' for Active; 'I' for Inactive)
REMARK    1  A    between atoms: C_1  and  C_2
REMARK    2  A    between atoms: C_5  and  N_6
REMARK    3  A    between atoms: C_7  and  C_9
REMARK    4  A    between atoms: C_13  and  C_14
REMARK    5  A    between atoms: C_20  and  N_21
REMARK    6  A    between atoms: C_22  and  C_24
REMARK                            x       y       z     vdW  Elec       q    Type
REMARK                         _______ _______ _______ _____ _____    ______ ____
ROOT
ATOM      1  C   UNL     1       2.103   3.614  21.776  0.00  0.00    +0.000 C 
ATOM      2  C   UNL     1       2.732   3.668  20.410  0.00  0.00    +0.000 A 
ATOM      3  C   UNL     1       3.301   2.480  19.913  0.00  0.00    +0.000 A 
ATOM      4  C   UNL     1       3.933   2.435  18.668  0.00  0.00    +0.000 A 
ATOM      5  C   UNL     1       3.996   3.579  17.886  0.00  0.00    +0.000 A 
ATOM      6  C   UNL     1       3.391   4.752  18.356  0.00  0.00    +0.000 A 
ATOM      7  C   UNL     1       2.784   4.834  19.622  0.00  0.00    +0.000 A 
ENDROOT
BRANCH   5   8
ATOM      8  N   UNL     1       4.653   3.645  16.637  0.00  0.00    +0.000 N 
ATOM      9  C   UNL     1       5.440   4.690  16.181  0.00  0.00    +0.000 C 
ATOM     10  O   UNL     1       5.700   5.729  16.778  0.00  0.00    +0.000 OA
ATOM     11  H   UNL     1       4.378   2.940  15.962  0.00  0.00    +0.000 HD
BRANCH   9  12
ATOM     12  C   UNL     1       5.952   4.539  14.787  0.00  0.00    +0.000 A 
ATOM     13  C   UNL     1       7.237   4.945  14.412  0.00  0.00    +0.000 A 
ATOM     14  C   UNL     1       7.664   4.777  13.092  0.00  0.00    +0.000 A 
ATOM     15  C   UNL     1       6.812   4.204  12.145  0.00  0.00    +0.000 A 
ATOM     16  C   UNL     1       5.518   3.795  12.501  0.00  0.00    +0.000 A 
ATOM     17  C   UNL     1       5.093   3.983  13.827  0.00  0.00    +0.000 A 
BRANCH  16  18
ATOM     18  C   UNL     1       4.593   3.151  11.498  0.00  0.00    +0.000 C 
ATOM     19  F   UNL     1       5.050   1.956  11.028  0.00  0.00    +0.000 F 
ATOM     20  F   UNL     1       3.361   2.895  12.021  0.00  0.00    +0.000 F 
ATOM     21  F   UNL     1       4.382   3.927  10.401  0.00  0.00    +0.000 F 
ENDBRANCH  16  18
ENDBRANCH   9  12
ENDBRANCH   5   8
BRANCH   7  22
ATOM     22  N   UNL     1       2.241   6.058  20.108  0.00  0.00    +0.000 N 
ATOM     23  C   UNL     1       2.202   7.272  19.428  0.00  0.00    +0.000 C 
ATOM     24  O   UNL     1       2.660   7.500  18.312  0.00  0.00    +0.000 OA
ATOM     25  H   UNL     1       1.873   6.086  21.055  0.00  0.00    +0.000 HD
BRANCH  23  26
ATOM     26  C   UNL     1       1.533   8.403  20.147  0.00  0.00    +0.000 A 
ATOM     27  C   UNL     1       1.310   8.281  21.520  0.00  0.00    +0.000 A 
ATOM     28  C   UNL     1       0.763   9.357  22.206  0.00  0.00    +0.000 A 
ATOM     29  C   UNL     1       0.450  10.512  21.501  0.00  0.00    +0.000 A 
ATOM     30  C   UNL     1       0.683  10.539  20.130  0.00  0.00    +0.000 A 
ATOM     31  N   UNL     1       1.218   9.513  19.425  0.00  0.00    +0.000 NA
ENDBRANCH  23  26
ENDBRANCH   7  22
TORSDOF 5
ENDMDL
MODEL 3
REMARK VINA RESULT:      -8.5      4.303      7.039
REMARK  Name = 
REMARK  6 active torsions:
REMARK  status: ('A' for Active; 'I' for Inactive)
REMARK    1  A    between atoms: C_1  and  C_2
REMARK    2  A    between atoms: C_5  and  N_6
REMARK    3  A    between atoms: C_7  and  C_9
REMARK    4  A    between atoms: C_13  and  C_14
REMARK    5  A    between atoms: C_20  and  N_21
REMARK    6  A    between atoms: C_22  and  C_24
REMARK                            x       y       z     vdW  Elec       q    Type
REMARK                         _______ _______ _______ _____ _____    ______ ____
ROOT
ATOM      1  C   UNL     1       2.208   4.154  21.598  0.00  0.00    +0.000 C 
ATOM      2  C   UNL     1       2.788   4.146  20.210  0.00  0.00    +0.000 A 
ATOM      3  C   UNL     1       3.389   2.952  19.768  0.00  0.00    +0.000 A 
ATOM      4  C   UNL     1       3.980   2.852  18.506  0.00  0.00    +0.000 A 
ATOM      5  C   UNL     1       3.970   3.946  17.653  0.00  0.00    +0.000 A 
ATOM      6  C   UNL     1       3.333   5.122  18.071  0.00  0.00    +0.000 A 
ATOM      7  C   UNL     1       2.766   5.261  19.350  0.00  0.00    +0.000 A 
ENDROOT
BRANCH   5   8
ATOM      8  N   UNL     1       4.582   3.957  16.379  0.00  0.00    +0.000 N 
ATOM      9  C   UNL     1       5.850   4.432  16.086  0.00  0.00    +0.000 C 
ATOM     10  O   UNL     1       6.652   4.920  16.874  0.00  0.00    +0.000 OA
ATOM     11  H   UNL     1       3.967   3.757  15.599  0.00  0.00    +0.000 HD
BRANCH   9  12
ATOM     12  C   UNL     1       6.222   4.400  14.641  0.00  0.00    +0.000 A 
ATOM     13  C   UNL     1       7.435   4.911  14.167  0.00  0.00    +0.000 A 
ATOM     14  C   UNL     1       7.732   4.852  12.803  0.00  0.00    +0.000 A 
ATOM     15  C   UNL     1       6.820   4.283  11.909  0.00  0.00    +0.000 A 
ATOM     16  C   UNL     1       5.597   3.771  12.365  0.00  0.00    +0.000 A 
ATOM     17  C   UNL     1       5.302   3.850  13.736  0.00  0.00    +0.000 A 
BRANCH  16  18
ATOM     18  C   UNL     1       4.611   3.131  11.418  0.00  0.00    +0.000 C 
ATOM     19  F   UNL     1       4.368   3.876  10.303  0.00  0.00    +0.000 F 
ATOM     20  F   UNL     1       5.041   1.920  10.966  0.00  0.00    +0.000 F 
ATOM     21  F   UNL     1       3.397   2.910  11.990  0.00  0.00    +0.000 F 
ENDBRANCH  16  18
ENDBRANCH   9  12
ENDBRANCH   5   8
BRANCH   7  22
ATOM     22  N   UNL     1       2.190   6.491  19.778  0.00  0.00    +0.000 N 
ATOM     23  C   UNL     1       2.180   7.689  19.069  0.00  0.00    +0.000 C 
ATOM     24  O   UNL     1       2.695   7.895  17.974  0.00  0.00    +0.000 OA
ATOM     25  H   UNL     1       1.772   6.538  20.703  0.00  0.00    +0.000 HD
BRANCH  23  26
ATOM     26  C   UNL     1       1.466   8.831  19.725  0.00  0.00    +0.000 A 
ATOM     27  C   UNL     1       1.136   9.944  18.949  0.00  0.00    +0.000 A 
ATOM     28  C   UNL     1       0.405  10.971  19.532  0.00  0.00    +0.000 A 
ATOM     29  C   UNL     1       0.038  10.859  20.866  0.00  0.00    +0.000 A 
ATOM     30  C   UNL     1       0.429   9.726  21.571  0.00  0.00    +0.000 A 
ATOM     31  N   UNL     1       1.138   8.701  21.039  0.00  0.00    +0.000 NA
ENDBRANCH  23  26
ENDBRANCH   7  22
TORSDOF 5
ENDMDL
MODEL 4
REMARK VINA RESULT:      -8.4      4.618      7.455
REMARK  Name = 
REMARK  6 active torsions:
REMARK  status: ('A' for Active; 'I' for Inactive)
REMARK    1  A    between atoms: C_1  and  C_2
REMARK    2  A    between atoms: C_5  and  N_6
REMARK    3  A    between atoms: C_7  and  C_9
REMARK    4  A    between atoms: C_13  and  C_14
REMARK    5  A    between atoms: C_20  and  N_21
REMARK    6  A    between atoms: C_22  and  C_24
REMARK                            x       y       z     vdW  Elec       q    Type
REMARK                         _______ _______ _______ _____ _____    ______ ____
ROOT
ATOM      1  C   UNL     1       1.739   3.484  21.190  0.00  0.00    +0.000 C 
ATOM      2  C   UNL     1       2.445   3.586  19.866  0.00  0.00    +0.000 A 
ATOM      3  C   UNL     1       2.959   2.398  19.314  0.00  0.00    +0.000 A 
ATOM      4  C   UNL     1       3.656   2.393  18.103  0.00  0.00    +0.000 A 
ATOM      5  C   UNL     1       3.839   3.581  17.410  0.00  0.00    +0.000 A 
ATOM      6  C   UNL     1       3.290   4.759  17.932  0.00  0.00    +0.000 A 
ATOM      7  C   UNL     1       2.620   4.797  19.168  0.00  0.00    +0.000 A 
ENDROOT
BRANCH   5   8
ATOM      8  N   UNL     1       4.568   3.684  16.204  0.00  0.00    +0.000 N 
ATOM      9  C   UNL     1       5.863   4.159  16.070  0.00  0.00    +0.000 C 
ATOM     10  O   UNL     1       6.593   4.568  16.966  0.00  0.00    +0.000 OA
ATOM     11  H   UNL     1       4.028   3.559  15.356  0.00  0.00    +0.000 HD
BRANCH   9  12
ATOM     12  C   UNL     1       6.368   4.238  14.667  0.00  0.00    +0.000 A 
ATOM     13  C   UNL     1       7.293   5.205  14.257  0.00  0.00    +0.000 A 
ATOM     14  C   UNL     1       7.734   5.229  12.931  0.00  0.00    +0.000 A 
ATOM     15  C   UNL     1       7.255   4.291  12.013  0.00  0.00    +0.000 A 
ATOM     16  C   UNL     1       6.324   3.318  12.405  0.00  0.00    +0.000 A 
ATOM     17  C   UNL     1       5.876   3.311  13.736  0.00  0.00    +0.000 A 
BRANCH  16  18
ATOM     18  C   UNL     1       5.815   2.281  11.434  0.00  0.00    +0.000 C 
ATOM     19  F   UNL     1       4.617   2.607  10.871  0.00  0.00    +0.000 F 
ATOM     20  F   UNL     1       6.671   2.085  10.392  0.00  0.00    +0.000 F 
ATOM     21  F   UNL     1       5.637   1.061  12.010  0.00  0.00    +0.000 F 
ENDBRANCH  16  18
ENDBRANCH   9  12
ENDBRANCH   5   8
BRANCH   7  22
ATOM     22  N   UNL     1       2.136   6.021  19.713  0.00  0.00    +0.000 N 
ATOM     23  C   UNL     1       2.223   7.279  19.125  0.00  0.00    +0.000 C 
ATOM     24  O   UNL     1       2.763   7.550  18.056  0.00  0.00    +0.000 OA
ATOM     25  H   UNL     1       1.713   6.009  20.637  0.00  0.00    +0.000 HD
BRANCH  23  26
ATOM     26  C   UNL     1       1.592   8.403  19.888  0.00  0.00    +0.000 A 
ATOM     27  C   UNL     1       1.385   8.244  21.260  0.00  0.00    +0.000 A 
ATOM     28  C   UNL     1       0.874   9.312  21.986  0.00  0.00    +0.000 A 
ATOM     29  C   UNL     1       0.579  10.494  21.321  0.00  0.00    +0.000 A 
ATOM     30  C   UNL     1       0.794  10.558  19.948  0.00  0.00    +0.000 A 
ATOM     31  N   UNL     1       1.294   9.542  19.205  0.00  0.00    +0.000 NA
ENDBRANCH  23  26
ENDBRANCH   7  22
TORSDOF 5
ENDMDL
MODEL 5
REMARK VINA RESULT:      -8.4      2.084      2.587
REMARK  Name = 
REMARK  6 active torsions:
REMARK  status: ('A' for Active; 'I' for Inactive)
REMARK    1  A    between atoms: C_1  and  C_2
REMARK    2  A    between atoms: C_5  and  N_6
REMARK    3  A    between atoms: C_7  and  C_9
REMARK    4  A    between atoms: C_13  and  C_14
REMARK    5  A    between atoms: C_20  and  N_21
REMARK    6  A    between atoms: C_22  and  C_24
REMARK                            x       y       z     vdW  Elec       q    Type
REMARK                         _______ _______ _______ _____ _____    ______ ____
ROOT
ATOM      1  C   UNL     1      -0.391  13.976  19.157  0.00  0.00    +0.000 C 
ATOM      2  C   UNL     1       0.139  12.596  18.878  0.00  0.00    +0.000 A 
ATOM      3  C   UNL     1       1.519  12.471  18.631  0.00  0.00    +0.000 A 
ATOM      4  C   UNL     1       2.102  11.237  18.334  0.00  0.00    +0.000 A 
ATOM      5  C   UNL     1       1.314  10.095  18.293  0.00  0.00    +0.000 A 
ATOM      6  C   UNL     1      -0.052  10.208  18.584  0.00  0.00    +0.000 A 
ATOM      7  C   UNL     1      -0.670  11.443  18.845  0.00  0.00    +0.000 A 
ENDROOT
BRANCH   5   8
ATOM      8  N   UNL     1       1.802   8.813  17.957  0.00  0.00    +0.000 N 
ATOM      9  C   UNL     1       2.140   7.808  18.849  0.00  0.00    +0.000 C 
ATOM     10  O   UNL     1       2.075   7.857  20.072  0.00  0.00    +0.000 OA
ATOM     11  H   UNL     1       2.085   8.694  16.991  0.00  0.00    +0.000 HD
BRANCH   9  12
ATOM     12  C   UNL     1       2.709   6.574  18.229  0.00  0.00    +0.000 A 
ATOM     13  C   UNL     1       2.027   5.352  18.230  0.00  0.00    +0.000 A 
ATOM     14  C   UNL     1       2.607   4.230  17.633  0.00  0.00    +0.000 A 
ATOM     15  C   UNL     1       3.865   4.324  17.033  0.00  0.00    +0.000 A 
ATOM     16  C   UNL     1       4.565   5.539  17.026  0.00  0.00    +0.000 A 
ATOM     17  C   UNL     1       3.981   6.657  17.643  0.00  0.00    +0.000 A 
BRANCH  16  18
ATOM     18  C   UNL     1       5.914   5.665  16.361  0.00  0.00    +0.000 C 
ATOM     19  F   UNL     1       5.847   5.710  15.000  0.00  0.00    +0.000 F 
ATOM     20  F   UNL     1       6.570   6.800  16.735  0.00  0.00    +0.000 F 
ATOM     21  F   UNL     1       6.748   4.633  16.659  0.00  0.00    +0.000 F 
ENDBRANCH  16  18
ENDBRANCH   9  12
ENDBRANCH   5   8
BRANCH   7  22
ATOM     22  N   UNL     1      -2.074  11.540  19.064  0.00  0.00    +0.000 N 
ATOM     23  C   UNL     1      -3.064  11.543  18.086  0.00  0.00    +0.000 C 
ATOM     24  O   UNL     1      -2.892  11.499  16.871  0.00  0.00    +0.000 OA
ATOM     25  H   UNL     1      -2.412  11.657  20.016  0.00  0.00    +0.000 HD
BRANCH  23  26
ATOM     26  C   UNL     1      -4.476  11.611  18.584  0.00  0.00    +0.000 A 
ATOM     27  C   UNL     1      -5.440  10.817  17.961  0.00  0.00    +0.000 A 
ATOM     28  C   UNL     1      -6.733  10.816  18.469  0.00  0.00    +0.000 A 
ATOM     29  C   UNL     1      -7.021  11.610  19.570  0.00  0.00    +0.000 A 
ATOM     30  C   UNL     1      -6.005  12.389  20.114  0.00  0.00    +0.000 A 
ATOM     31  N   UNL     1      -4.731  12.415  19.652  0.00  0.00    +0.000 NA
ENDBRANCH  23  26
ENDBRANCH   7  22
TORSDOF 5
ENDMDL
MODEL 6
REMARK VINA RESULT:      -8.4      4.033      9.751
REMARK  Name = 
REMARK  6 active torsions:
REMARK  status: ('A' for Active; 'I' for Inactive)
REMARK    1  A    between atoms: C_1  and  C_2
REMARK    2  A    between atoms: C_5  and  N_6
REMARK    3  A    between atoms: C_7  and  C_9
REMARK    4  A    between atoms: C_13  and  C_14
REMARK    5  A    between atoms: C_20  and  N_21
REMARK    6  A    between atoms: C_22  and  C_24
REMARK                            x       y       z     vdW  Elec       q    Type
REMARK                         _______ _______ _______ _____ _____    ______ ____
ROOT
ATOM      1  C   UNL     1       4.462   3.336  19.037  0.00  0.00    +0.000 C 
ATOM      2  C   UNL     1       3.753   4.661  18.954  0.00  0.00    +0.000 A 
ATOM      3  C   UNL     1       3.023   5.074  20.084  0.00  0.00    +0.000 A 
ATOM      4  C   UNL     1       2.307   6.274  20.096  0.00  0.00    +0.000 A 
ATOM      5  C   UNL     1       2.320   7.095  18.977  0.00  0.00    +0.000 A 
ATOM      6  C   UNL     1       3.083   6.709  17.866  0.00  0.00    +0.000 A 
ATOM      7  C   UNL     1       3.779   5.488  17.814  0.00  0.00    +0.000 A 
ENDROOT
BRANCH   5   8
ATOM      8  N   UNL     1       1.592   8.301  18.876  0.00  0.00    +0.000 N 
ATOM      9  C   UNL     1       1.234   9.130  19.927  0.00  0.00    +0.000 C 
ATOM     10  O   UNL     1       1.486   8.962  21.114  0.00  0.00    +0.000 OA
ATOM     11  H   UNL     1       1.156   8.472  17.978  0.00  0.00    +0.000 HD
BRANCH   9  12
ATOM     12  C   UNL     1       0.394  10.305  19.551  0.00  0.00    +0.000 A 
ATOM     13  C   UNL     1       0.640  11.592  20.042  0.00  0.00    +0.000 A 
ATOM     14  C   UNL     1      -0.179  12.655  19.654  0.00  0.00    +0.000 A 
ATOM     15  C   UNL     1      -1.243  12.439  18.775  0.00  0.00    +0.000 A 
ATOM     16  C   UNL     1      -1.508  11.156  18.276  0.00  0.00    +0.000 A 
ATOM     17  C   UNL     1      -0.689  10.090  18.685  0.00  0.00    +0.000 A 
BRANCH  16  18
ATOM     18  C   UNL     1      -2.638  10.908  17.306  0.00  0.00    +0.000 C 
ATOM     19  F   UNL     1      -3.248   9.701  17.481  0.00  0.00    +0.000 F 
ATOM     20  F   UNL     1      -3.626  11.839  17.415  0.00  0.00    +0.000 F 
ATOM     21  F   UNL     1      -2.235  10.937  16.007  0.00  0.00    +0.000 F 
ENDBRANCH  16  18
ENDBRANCH   9  12
ENDBRANCH   5   8
BRANCH   7  22
ATOM     22  N   UNL     1       4.486   5.085  16.646  0.00  0.00    +0.000 N 
ATOM     23  C   UNL     1       5.516   5.783  16.022  0.00  0.00    +0.000 C 
ATOM     24  O   UNL     1       5.962   6.878  16.353  0.00  0.00    +0.000 OA
ATOM     25  H   UNL     1       4.208   4.226  16.180  0.00  0.00    +0.000 HD
BRANCH  23  26
ATOM     26  C   UNL     1       6.127   5.117  14.826  0.00  0.00    +0.000 A 
ATOM     27  C   UNL     1       5.369   4.173  14.130  0.00  0.00    +0.000 A 
ATOM     28  C   UNL     1       5.900   3.612  12.976  0.00  0.00    +0.000 A 
ATOM     29  C   UNL     1       7.167   4.002  12.562  0.00  0.00    +0.000 A 
ATOM     30  C   UNL     1       7.861   4.931  13.330  0.00  0.00    +0.000 A 
ATOM     31  N   UNL     1       7.378   5.505  14.458  0.00  0.00    +0.000 NA
ENDBRANCH  23  26
ENDBRANCH   7  22
TORSDOF 5
ENDMDL
MODEL 7
REMARK VINA RESULT:      -8.3      4.105      9.802
REMARK  Name = 
REMARK  6 active torsions:
REMARK  status: ('A' for Active; 'I' for Inactive)
REMARK    1  A    between atoms: C_1  and  C_2
REMARK    2  A    between atoms: C_5  and  N_6
REMARK    3  A    between atoms: C_7  and  C_9
REMARK    4  A    between atoms: C_13  and  C_14
REMARK    5  A    between atoms: C_20  and  N_21
REMARK    6  A    between atoms: C_22  and  C_24
REMARK                            x       y       z     vdW  Elec       q    Type
REMARK                         _______ _______ _______ _____ _____    ______ ____
ROOT
ATOM      1  C   UNL     1       5.332   3.859  18.889  0.00  0.00    +0.000 C 
ATOM      2  C   UNL     1       4.311   4.959  18.780  0.00  0.00    +0.000 A 
ATOM      3  C   UNL     1       3.651   5.346  19.961  0.00  0.00    +0.000 A 
ATOM      4  C   UNL     1       2.667   6.338  19.959  0.00  0.00    +0.000 A 
ATOM      5  C   UNL     1       2.333   6.975  18.773  0.00  0.00    +0.000 A 
ATOM      6  C   UNL     1       3.020   6.624  17.603  0.00  0.00    +0.000 A 
ATOM      7  C   UNL     1       3.985   5.602  17.570  0.00  0.00    +0.000 A 
ENDROOT
BRANCH   5   8
ATOM      8  N   UNL     1       1.321   7.954  18.661  0.00  0.00    +0.000 N 
ATOM      9  C   UNL     1       1.495   9.266  18.251  0.00  0.00    +0.000 C 
ATOM     10  O   UNL     1       2.547   9.798  17.916  0.00  0.00    +0.000 OA
ATOM     11  H   UNL     1       0.432   7.712  19.083  0.00  0.00    +0.000 HD
BRANCH   9  12
ATOM     12  C   UNL     1       0.268  10.115  18.301  0.00  0.00    +0.000 A 
ATOM     13  C   UNL     1       0.092  11.124  19.255  0.00  0.00    +0.000 A 
ATOM     14  C   UNL     1      -1.076  11.890  19.252  0.00  0.00    +0.000 A 
ATOM     15  C   UNL     1      -2.070  11.653  18.299  0.00  0.00    +0.000 A 
ATOM     16  C   UNL     1      -1.914  10.643  17.339  0.00  0.00    +0.000 A 
ATOM     17  C   UNL     1      -0.743   9.868  17.360  0.00  0.00    +0.000 A 
BRANCH  16  18
ATOM     18  C   UNL     1      -2.966  10.389  16.287  0.00  0.00    +0.000 C 
ATOM     19  F   UNL     1      -4.241  10.506  16.755  0.00  0.00    +0.000 F 
ATOM     20  F   UNL     1      -2.875  11.262  15.244  0.00  0.00    +0.000 F 
ATOM     21  F   UNL     1      -2.880   9.145  15.745  0.00  0.00    +0.000 F 
ENDBRANCH  16  18
ENDBRANCH   9  12
ENDBRANCH   5   8
BRANCH   7  22
ATOM     22  N   UNL     1       4.616   5.214  16.354  0.00  0.00    +0.000 N 
ATOM     23  C   UNL     1       5.858   5.640  15.894  0.00  0.00    +0.000 C 
ATOM     24  O   UNL     1       6.602   6.449  16.443  0.00  0.00    +0.000 OA
ATOM     25  H   UNL     1       4.116   4.593  15.722  0.00  0.00    +0.000 HD
BRANCH  23  26
ATOM     26  C   UNL     1       6.316   5.045  14.598  0.00  0.00    +0.000 A 
ATOM     27  C   UNL     1       5.495   4.107  13.969  0.00  0.00    +0.000 A 
ATOM     28  C   UNL     1       5.878   3.611  12.729  0.00  0.00    +0.000 A 
ATOM     29  C   UNL     1       7.065   4.058  12.165  0.00  0.00    +0.000 A 
ATOM     30  C   UNL     1       7.834   4.976  12.873  0.00  0.00    +0.000 A 
ATOM     31  N   UNL     1       7.495   5.487  14.082  0.00  0.00    +0.000 NA
ENDBRANCH  23  26
ENDBRANCH   7  22
TORSDOF 5
ENDMDL
MODEL 8
REMARK VINA RESULT:      -8.2      1.416      1.673
REMARK  Name = 
REMARK  6 active torsions:
REMARK  status: ('A' for Active; 'I' for Inactive)
REMARK    1  A    between atoms: C_1  and  C_2
REMARK    2  A    between atoms: C_5  and  N_6
REMARK    3  A    between atoms: C_7  and  C_9
REMARK    4  A    between atoms: C_13  and  C_14
REMARK    5  A    between atoms: C_20  and  N_21
REMARK    6  A    between atoms: C_22  and  C_24
REMARK                            x       y       z     vdW  Elec       q    Type
REMARK                         _______ _______ _______ _____ _____    ______ ____
ROOT
ATOM      1  C   UNL     1      -0.464  14.175  18.674  0.00  0.00    +0.000 C 
ATOM      2  C   UNL     1       0.053  12.762  18.693  0.00  0.00    +0.000 A 
ATOM      3  C   UNL     1       1.435  12.577  18.505  0.00  0.00    +0.000 A 
ATOM      4  C   UNL     1       2.008  11.303  18.477  0.00  0.00    +0.000 A 
ATOM      5  C   UNL     1       1.206  10.184  18.652  0.00  0.00    +0.000 A 
ATOM      6  C   UNL     1      -0.164  10.365  18.884  0.00  0.00    +0.000 A 
ATOM      7  C   UNL     1      -0.770  11.634  18.877  0.00  0.00    +0.000 A 
ENDROOT
BRANCH   5   8
ATOM      8  N   UNL     1       1.684   8.856  18.593  0.00  0.00    +0.000 N 
ATOM      9  C   UNL     1       1.869   8.006  19.671  0.00  0.00    +0.000 C 
ATOM     10  O   UNL     1       1.652   8.256  20.851  0.00  0.00    +0.000 OA
ATOM     11  H   UNL     1       2.080   8.575  17.704  0.00  0.00    +0.000 HD
BRANCH   9  12
ATOM     12  C   UNL     1       2.463   6.678  19.338  0.00  0.00    +0.000 A 
ATOM     13  C   UNL     1       3.255   6.474  18.202  0.00  0.00    +0.000 A 
ATOM     14  C   UNL     1       3.788   5.209  17.941  0.00  0.00    +0.000 A 
ATOM     15  C   UNL     1       3.534   4.146  18.812  0.00  0.00    +0.000 A 
ATOM     16  C   UNL     1       2.739   4.330  19.952  0.00  0.00    +0.000 A 
ATOM     17  C   UNL     1       2.195   5.601  20.197  0.00  0.00    +0.000 A 
BRANCH  16  18
ATOM     18  C   UNL     1       2.474   3.199  20.916  0.00  0.00    +0.000 C 
ATOM     19  F   UNL     1       3.505   2.312  21.008  0.00  0.00    +0.000 F 
ATOM     20  F   UNL     1       2.256   3.643  22.186  0.00  0.00    +0.000 F 
ATOM     21  F   UNL     1       1.379   2.465  20.581  0.00  0.00    +0.000 F 
ENDBRANCH  16  18
ENDBRANCH   9  12
ENDBRANCH   5   8
BRANCH   7  22
ATOM     22  N   UNL     1      -2.177  11.786  19.041  0.00  0.00    +0.000 N 
ATOM     23  C   UNL     1      -3.147  11.609  18.060  0.00  0.00    +0.000 C 
ATOM     24  O   UNL     1      -2.952  11.329  16.880  0.00  0.00    +0.000 OA
ATOM     25  H   UNL     1      -2.532  12.088  19.944  0.00  0.00    +0.000 HD
BRANCH  23  26
ATOM     26  C   UNL     1      -4.567  11.787  18.504  0.00  0.00    +0.000 A 
ATOM     27  C   UNL     1      -4.811  12.458  19.704  0.00  0.00    +0.000 A 
ATOM     28  C   UNL     1      -6.127  12.694  20.080  0.00  0.00    +0.000 A 
ATOM     29  C   UNL     1      -7.151  12.248  19.256  0.00  0.00    +0.000 A 
ATOM     30  C   UNL     1      -6.818  11.567  18.090  0.00  0.00    +0.000 A 
ATOM     31  N   UNL     1      -5.548  11.320  17.685  0.00  0.00    +0.000 NA
ENDBRANCH  23  26
ENDBRANCH   7  22
TORSDOF 5
ENDMDL
MODEL 9
REMARK VINA RESULT:      -8.1      4.200      6.864
REMARK  Name = 
REMARK  6 active torsions:
REMARK  status: ('A' for Active; 'I' for Inactive)
REMARK    1  A    between atoms: C_1  and  C_2
REMARK    2  A    between atoms: C_5  and  N_6
REMARK    3  A    between atoms: C_7  and  C_9
REMARK    4  A    between atoms: C_13  and  C_14
REMARK    5  A    between atoms: C_20  and  N_21
REMARK    6  A    between atoms: C_22  and  C_24
REMARK                            x       y       z     vdW  Elec       q    Type
REMARK                         _______ _______ _______ _____ _____    ______ ____
ROOT
ATOM      1  C   UNL     1       2.102   4.841  21.430  0.00  0.00    +0.000 C 
ATOM      2  C   UNL     1       2.701   4.722  20.054  0.00  0.00    +0.000 A 
ATOM      3  C   UNL     1       3.300   3.494  19.716  0.00  0.00    +0.000 A 
ATOM      4  C   UNL     1       3.908   3.293  18.474  0.00  0.00    +0.000 A 
ATOM      5  C   UNL     1       3.917   4.317  17.538  0.00  0.00    +0.000 A 
ATOM      6  C   UNL     1       3.281   5.525  17.854  0.00  0.00    +0.000 A 
ATOM      7  C   UNL     1       2.698   5.766  19.110  0.00  0.00    +0.000 A 
ENDROOT
BRANCH   5   8
ATOM      8  N   UNL     1       4.546   4.226  16.276  0.00  0.00    +0.000 N 
ATOM      9  C   UNL     1       5.800   4.716  15.951  0.00  0.00    +0.000 C 
ATOM     10  O   UNL     1       6.573   5.308  16.696  0.00  0.00    +0.000 OA
ATOM     11  H   UNL     1       3.950   3.927  15.513  0.00  0.00    +0.000 HD
BRANCH   9  12
ATOM     12  C   UNL     1       6.194   4.557  14.520  0.00  0.00    +0.000 A 
ATOM     13  C   UNL     1       7.427   4.997  14.028  0.00  0.00    +0.000 A 
ATOM     14  C   UNL     1       7.743   4.819  12.678  0.00  0.00    +0.000 A 
ATOM     15  C   UNL     1       6.832   4.200  11.819  0.00  0.00    +0.000 A 
ATOM     16  C   UNL     1       5.589   3.756  12.293  0.00  0.00    +0.000 A 
ATOM     17  C   UNL     1       5.275   3.955  13.647  0.00  0.00    +0.000 A 
BRANCH  16  18
ATOM     18  C   UNL     1       4.603   3.064  11.385  0.00  0.00    +0.000 C 
ATOM     19  F   UNL     1       4.241   3.813  10.305  0.00  0.00    +0.000 F 
ATOM     20  F   UNL     1       5.098   1.900  10.876  0.00  0.00    +0.000 F 
ATOM     21  F   UNL     1       3.444   2.736  12.016  0.00  0.00    +0.000 F 
ENDBRANCH  16  18
ENDBRANCH   9  12
ENDBRANCH   5   8
BRANCH   7  22
ATOM     22  N   UNL     1       2.124   7.029  19.433  0.00  0.00    +0.000 N 
ATOM     23  C   UNL     1       2.120   8.164  18.628  0.00  0.00    +0.000 C 
ATOM     24  O   UNL     1       2.641   8.278  17.521  0.00  0.00    +0.000 OA
ATOM     25  H   UNL     1       1.702   7.153  20.349  0.00  0.00    +0.000 HD
BRANCH  23  26
ATOM     26  C   UNL     1       1.407   9.359  19.184  0.00  0.00    +0.000 A 
ATOM     27  C   UNL     1       0.731   9.225  20.399  0.00  0.00    +0.000 A 
ATOM     28  C   UNL     1       0.136  10.348  20.959  0.00  0.00    +0.000 A 
ATOM     29  C   UNL     1       0.226  11.559  20.287  0.00  0.00    +0.000 A 
ATOM     30  C   UNL     1       0.898  11.597  19.069  0.00  0.00    +0.000 A 
ATOM     31  N   UNL     1       1.495  10.527  18.492  0.00  0.00    +0.000 NA
ENDBRANCH  23  26
ENDBRANCH   7  22
TORSDOF 5
ENDMDL
