MODEL 1
REMARK VINA RESULT:      -8.2      0.000      0.000
REMARK  Name = 
REMARK  5 active torsions:
REMARK  status: ('A' for Active; 'I' for Inactive)
REMARK    1  A    between atoms: C_1  and  O_2
REMARK    2  A    between atoms: O_2  and  C_3
REMARK    3  A    between atoms: C_8  and  C_9
REMARK    4  A    between atoms: C_10  and  C_11
REMARK    5  A    between atoms: C_11  and  C_13
REMARK                            x       y       z     vdW  Elec       q    Type
REMARK                         _______ _______ _______ _____ _____    ______ ____
ROOT
ATOM      1  C   UNL     1       6.881   4.844  17.695  0.00  0.00    +0.000 C 
ATOM      2  O   UNL     1       7.903   5.217  18.267  0.00  0.00    +0.000 OA
ENDROOT
BRANCH   1   3
ATOM      3  C   UNL     1       6.800   4.713  16.249  0.00  0.00    +0.000 A 
ATOM      4  N   UNL     1       6.027   3.854  15.607  0.00  0.00    +0.000 NA
ATOM      5  C   UNL     1       6.346   3.990  14.280  0.00  0.00    +0.000 A 
ATOM      6  C   UNL     1       5.852   3.289  13.170  0.00  0.00    +0.000 A 
ATOM      7  C   UNL     1       6.387   3.568  11.907  0.00  0.00    +0.000 A 
ATOM      8  C   UNL     1       7.386   4.533  11.753  0.00  0.00    +0.000 A 
ATOM      9  C   UNL     1       7.869   5.265  12.846  0.00  0.00    +0.000 A 
ATOM     10  C   UNL     1       7.322   4.962  14.095  0.00  0.00    +0.000 A 
ATOM     11  N   UNL     1       7.551   5.449  15.359  0.00  0.00    +0.000 N 
ATOM     12  H   UNL     1       8.205   6.171  15.621  0.00  0.00    +0.000 HD
ENDBRANCH   1   3
BRANCH   1  14
ATOM     13  C   UNL     1       4.456   4.976  18.231  0.00  0.00    +0.000 C 
ATOM     14  C   UNL     1       5.662   4.435  18.469  0.00  0.00    +0.000 C 
BRANCH  13  20
ATOM     15  C   UNL     1       2.487   3.515  18.794  0.00  0.00    +0.000 A 
ATOM     16  C   UNL     1       1.353   3.232  19.571  0.00  0.00    +0.000 A 
ATOM     17  C   UNL     1       0.901   4.144  20.523  0.00  0.00    +0.000 A 
ATOM     18  C   UNL     1       1.598   5.331  20.724  0.00  0.00    +0.000 A 
ATOM     19  C   UNL     1       2.757   5.597  19.988  0.00  0.00    +0.000 A 
ATOM     20  C   UNL     1       3.222   4.703  19.008  0.00  0.00    +0.000 A 
BRANCH  15  22
ATOM     21  C   UNL     1       3.489   1.432  18.308  0.00  0.00    +0.000 C 
ATOM     22  O   UNL     1       2.936   2.652  17.820  0.00  0.00    +0.000 OA
ENDBRANCH  15  22
ENDBRANCH  13  20
ENDBRANCH   1  14
TORSDOF 4
ENDMDL
MODEL 2
REMARK VINA RESULT:      -8.2      1.099      1.626
REMARK  Name = 
REMARK  5 active torsions:
REMARK  status: ('A' for Active; 'I' for Inactive)
REMARK    1  A    between atoms: C_1  and  O_2
REMARK    2  A    between atoms: O_2  and  C_3
REMARK    3  A    between atoms: C_8  and  C_9
REMARK    4  A    between atoms: C_10  and  C_11
REMARK    5  A    between atoms: C_11  and  C_13
REMARK                            x       y       z     vdW  Elec       q    Type
REMARK                         _______ _______ _______ _____ _____    ______ ____
ROOT
ATOM      1  C   UNL     1       6.929   4.706  17.961  0.00  0.00    +0.000 C 
ATOM      2  O   UNL     1       8.021   4.728  18.524  0.00  0.00    +0.000 OA
ENDROOT
BRANCH   1   3
ATOM      3  C   UNL     1       6.798   4.625  16.515  0.00  0.00    +0.000 A 
ATOM      4  N   UNL     1       5.954   3.837  15.873  0.00  0.00    +0.000 NA
ATOM      5  C   UNL     1       6.243   3.993  14.541  0.00  0.00    +0.000 A 
ATOM      6  C   UNL     1       5.673   3.359  13.427  0.00  0.00    +0.000 A 
ATOM      7  C   UNL     1       6.189   3.641  12.157  0.00  0.00    +0.000 A 
ATOM      8  C   UNL     1       7.243   4.544  12.000  0.00  0.00    +0.000 A 
ATOM      9  C   UNL     1       7.804   5.210  13.098  0.00  0.00    +0.000 A 
ATOM     10  C   UNL     1       7.275   4.905  14.355  0.00  0.00    +0.000 A 
ATOM     11  N   UNL     1       7.571   5.338  15.624  0.00  0.00    +0.000 N 
ATOM     12  H   UNL     1       8.277   6.008  15.887  0.00  0.00    +0.000 HD
ENDBRANCH   1   3
BRANCH   1  14
ATOM     13  C   UNL     1       4.910   3.584  18.882  0.00  0.00    +0.000 C 
ATOM     14  C   UNL     1       5.650   4.696  18.746  0.00  0.00    +0.000 C 
BRANCH  13  20
ATOM     15  C   UNL     1       2.474   4.195  19.033  0.00  0.00    +0.000 A 
ATOM     16  C   UNL     1       1.215   4.072  19.641  0.00  0.00    +0.000 A 
ATOM     17  C   UNL     1       1.060   3.317  20.802  0.00  0.00    +0.000 A 
ATOM     18  C   UNL     1       2.156   2.657  21.345  0.00  0.00    +0.000 A 
ATOM     19  C   UNL     1       3.404   2.734  20.717  0.00  0.00    +0.000 A 
ATOM     20  C   UNL     1       3.591   3.505  19.556  0.00  0.00    +0.000 A 
BRANCH  15  22
ATOM     21  C   UNL     1       2.516   6.367  18.107  0.00  0.00    +0.000 C 
ATOM     22  O   UNL     1       2.667   4.964  17.908  0.00  0.00    +0.000 OA
ENDBRANCH  15  22
ENDBRANCH  13  20
ENDBRANCH   1  14
TORSDOF 4
ENDMDL
MODEL 3
REMARK VINA RESULT:      -8.1      0.389      1.324
REMARK  Name = 
REMARK  5 active torsions:
REMARK  status: ('A' for Active; 'I' for Inactive)
REMARK    1  A    between atoms: C_1  and  O_2
REMARK    2  A    between atoms: O_2  and  C_3
REMARK    3  A    between atoms: C_8  and  C_9
REMARK    4  A    between atoms: C_10  and  C_11
REMARK    5  A    between atoms: C_11  and  C_13
REMARK                            x       y       z     vdW  Elec       q    Type
REMARK                         _______ _______ _______ _____ _____    ______ ____
ROOT
ATOM      1  C   UNL     1       6.683   5.551  17.650  0.00  0.00    +0.000 C 
ATOM      2  O   UNL     1       7.529   6.288  18.153  0.00  0.00    +0.000 OA
ENDROOT
BRANCH   1   3
ATOM      3  C   UNL     1       6.763   5.099  16.271  0.00  0.00    +0.000 A 
ATOM      4  N   UNL     1       7.593   5.581  15.362  0.00  0.00    +0.000 NA
ATOM      5  C   UNL     1       7.256   4.958  14.187  0.00  0.00    +0.000 A 
ATOM      6  C   UNL     1       7.793   5.132  12.903  0.00  0.00    +0.000 A 
ATOM      7  C   UNL     1       7.230   4.418  11.838  0.00  0.00    +0.000 A 
ATOM      8  C   UNL     1       6.163   3.543  12.051  0.00  0.00    +0.000 A 
ATOM      9  C   UNL     1       5.634   3.334  13.332  0.00  0.00    +0.000 A 
ATOM     10  C   UNL     1       6.210   4.063  14.375  0.00  0.00    +0.000 A 
ATOM     11  N   UNL     1       5.954   4.128  15.723  0.00  0.00    +0.000 N 
ATOM     12  H   UNL     1       5.251   3.614  16.232  0.00  0.00    +0.000 HD
ENDBRANCH   1   3
BRANCH   1  14
ATOM     13  C   UNL     1       4.260   5.260  18.130  0.00  0.00    +0.000 C 
ATOM     14  C   UNL     1       5.539   5.016  18.461  0.00  0.00    +0.000 C 
BRANCH  13  20
ATOM     15  C   UNL     1       2.434   3.617  18.676  0.00  0.00    +0.000 A 
ATOM     16  C   UNL     1       1.349   3.210  19.466  0.00  0.00    +0.000 A 
ATOM     17  C   UNL     1       0.848   4.041  20.465  0.00  0.00    +0.000 A 
ATOM     18  C   UNL     1       1.448   5.274  20.700  0.00  0.00    +0.000 A 
ATOM     19  C   UNL     1       2.562   5.665  19.950  0.00  0.00    +0.000 A 
ATOM     20  C   UNL     1       3.074   4.853  18.923  0.00  0.00    +0.000 A 
BRANCH  15  22
ATOM     21  C   UNL     1       3.505   1.599  18.074  0.00  0.00    +0.000 C 
ATOM     22  O   UNL     1       2.928   2.834  17.657  0.00  0.00    +0.000 OA
ENDBRANCH  15  22
ENDBRANCH  13  20
ENDBRANCH   1  14
TORSDOF 4
ENDMDL
MODEL 4
REMARK VINA RESULT:      -7.9      1.233      2.342
REMARK  Name = 
REMARK  5 active torsions:
REMARK  status: ('A' for Active; 'I' for Inactive)
REMARK    1  A    between atoms: C_1  and  O_2
REMARK    2  A    between atoms: O_2  and  C_3
REMARK    3  A    between atoms: C_8  and  C_9
REMARK    4  A    between atoms: C_10  and  C_11
REMARK    5  A    between atoms: C_11  and  C_13
REMARK                            x       y       z     vdW  Elec       q    Type
REMARK                         _______ _______ _______ _____ _____    ______ ____
ROOT
ATOM      1  C   UNL     1       6.726   4.801  17.736  0.00  0.00    +0.000 C 
ATOM      2  O   UNL     1       7.577   5.417  18.376  0.00  0.00    +0.000 OA
ENDROOT
BRANCH   1   3
ATOM      3  C   UNL     1       6.827   4.595  16.301  0.00  0.00    +0.000 A 
ATOM      4  N   UNL     1       7.595   5.297  15.486  0.00  0.00    +0.000 NA
ATOM      5  C   UNL     1       7.299   4.851  14.223  0.00  0.00    +0.000 A 
ATOM      6  C   UNL     1       7.800   5.285  12.987  0.00  0.00    +0.000 A 
ATOM      7  C   UNL     1       7.288   4.711  11.817  0.00  0.00    +0.000 A 
ATOM      8  C   UNL     1       6.307   3.719  11.879  0.00  0.00    +0.000 A 
ATOM      9  C   UNL     1       5.818   3.251  13.106  0.00  0.00    +0.000 A 
ATOM     10  C   UNL     1       6.341   3.845  14.258  0.00  0.00    +0.000 A 
ATOM     11  N   UNL     1       6.100   3.660  15.597  0.00  0.00    +0.000 N 
ATOM     12  H   UNL     1       5.454   3.006  16.012  0.00  0.00    +0.000 HD
ENDBRANCH   1   3
BRANCH   1  14
ATOM     13  C   UNL     1       4.588   4.892  19.003  0.00  0.00    +0.000 C 
ATOM     14  C   UNL     1       5.552   4.162  18.420  0.00  0.00    +0.000 C 
BRANCH  13  20
ATOM     15  C   UNL     1       2.227   5.056  19.859  0.00  0.00    +0.000 A 
ATOM     16  C   UNL     1       1.132   4.510  20.546  0.00  0.00    +0.000 A 
ATOM     17  C   UNL     1       1.248   3.290  21.209  0.00  0.00    +0.000 A 
ATOM     18  C   UNL     1       2.452   2.595  21.165  0.00  0.00    +0.000 A 
ATOM     19  C   UNL     1       3.533   3.109  20.440  0.00  0.00    +0.000 A 
ATOM     20  C   UNL     1       3.447   4.347  19.780  0.00  0.00    +0.000 A 
BRANCH  15  22
ATOM     21  C   UNL     1       2.021   7.397  20.097  0.00  0.00    +0.000 C 
ATOM     22  O   UNL     1       2.155   6.276  19.226  0.00  0.00    +0.000 OA
ENDBRANCH  15  22
ENDBRANCH  13  20
ENDBRANCH   1  14
TORSDOF 4
ENDMDL
MODEL 5
REMARK VINA RESULT:      -7.7      1.731      2.327
REMARK  Name = 
REMARK  5 active torsions:
REMARK  status: ('A' for Active; 'I' for Inactive)
REMARK    1  A    between atoms: C_1  and  O_2
REMARK    2  A    between atoms: O_2  and  C_3
REMARK    3  A    between atoms: C_8  and  C_9
REMARK    4  A    between atoms: C_10  and  C_11
REMARK    5  A    between atoms: C_11  and  C_13
REMARK                            x       y       z     vdW  Elec       q    Type
REMARK                         _______ _______ _______ _____ _____    ______ ____
ROOT
ATOM      1  C   UNL     1       6.868   4.975  17.577  0.00  0.00    +0.000 C 
ATOM      2  O   UNL     1       7.688   4.381  18.275  0.00  0.00    +0.000 OA
ENDROOT
BRANCH   1   3
ATOM      3  C   UNL     1       6.784   4.784  16.138  0.00  0.00    +0.000 A 
ATOM      4  N   UNL     1       6.035   3.877  15.536  0.00  0.00    +0.000 NA
ATOM      5  C   UNL     1       6.343   3.969  14.203  0.00  0.00    +0.000 A 
ATOM      6  C   UNL     1       5.865   3.210  13.125  0.00  0.00    +0.000 A 
ATOM      7  C   UNL     1       6.386   3.453  11.849  0.00  0.00    +0.000 A 
ATOM      8  C   UNL     1       7.355   4.440  11.650  0.00  0.00    +0.000 A 
ATOM      9  C   UNL     1       7.822   5.229  12.710  0.00  0.00    +0.000 A 
ATOM     10  C   UNL     1       7.290   4.960  13.974  0.00  0.00    +0.000 A 
ATOM     11  N   UNL     1       7.510   5.504  15.215  0.00  0.00    +0.000 N 
ATOM     12  H   UNL     1       8.143   6.255  15.445  0.00  0.00    +0.000 HD
ENDBRANCH   1   3
BRANCH   1  14
ATOM     13  C   UNL     1       4.546   5.816  17.871  0.00  0.00    +0.000 C 
ATOM     14  C   UNL     1       5.849   5.893  18.187  0.00  0.00    +0.000 C 
BRANCH  13  20
ATOM     15  C   UNL     1       2.798   6.479  19.556  0.00  0.00    +0.000 A 
ATOM     16  C   UNL     1       1.840   7.384  20.035  0.00  0.00    +0.000 A 
ATOM     17  C   UNL     1       1.513   8.524  19.303  0.00  0.00    +0.000 A 
ATOM     18  C   UNL     1       2.163   8.779  18.100  0.00  0.00    +0.000 A 
ATOM     19  C   UNL     1       3.155   7.906  17.640  0.00  0.00    +0.000 A 
ATOM     20  C   UNL     1       3.489   6.740  18.350  0.00  0.00    +0.000 A 
BRANCH  15  22
ATOM     21  C   UNL     1       2.116   4.311  20.199  0.00  0.00    +0.000 C 
ATOM     22  O   UNL     1       3.116   5.326  20.237  0.00  0.00    +0.000 OA
ENDBRANCH  15  22
ENDBRANCH  13  20
ENDBRANCH   1  14
TORSDOF 4
ENDMDL
MODEL 6
REMARK VINA RESULT:      -7.7      0.964      1.100
REMARK  Name = 
REMARK  5 active torsions:
REMARK  status: ('A' for Active; 'I' for Inactive)
REMARK    1  A    between atoms: C_1  and  O_2
REMARK    2  A    between atoms: O_2  and  C_3
REMARK    3  A    between atoms: C_8  and  C_9
REMARK    4  A    between atoms: C_10  and  C_11
REMARK    5  A    between atoms: C_11  and  C_13
REMARK                            x       y       z     vdW  Elec       q    Type
REMARK                         _______ _______ _______ _____ _____    ______ ____
ROOT
ATOM      1  C   UNL     1       6.743   4.720  17.924  0.00  0.00    +0.000 C 
ATOM      2  O   UNL     1       7.806   4.777  18.539  0.00  0.00    +0.000 OA
ENDROOT
BRANCH   1   3
ATOM      3  C   UNL     1       6.686   4.642  16.473  0.00  0.00    +0.000 A 
ATOM      4  N   UNL     1       5.901   3.828  15.788  0.00  0.00    +0.000 NA
ATOM      5  C   UNL     1       6.249   4.001  14.472  0.00  0.00    +0.000 A 
ATOM      6  C   UNL     1       5.755   3.353  13.330  0.00  0.00    +0.000 A 
ATOM      7  C   UNL     1       6.322   3.660  12.087  0.00  0.00    +0.000 A 
ATOM      8  C   UNL     1       7.350   4.600  11.985  0.00  0.00    +0.000 A 
ATOM      9  C   UNL     1       7.834   5.279  13.111  0.00  0.00    +0.000 A 
ATOM     10  C   UNL     1       7.255   4.949  14.339  0.00  0.00    +0.000 A 
ATOM     11  N   UNL     1       7.475   5.386  15.623  0.00  0.00    +0.000 N 
ATOM     12  H   UNL     1       8.143   6.079  15.922  0.00  0.00    +0.000 HD
ENDBRANCH   1   3
BRANCH   1  14
ATOM     13  C   UNL     1       4.888   3.497  19.039  0.00  0.00    +0.000 C 
ATOM     14  C   UNL     1       5.429   4.661  18.646  0.00  0.00    +0.000 C 
BRANCH  13  20
ATOM     15  C   UNL     1       2.487   2.747  18.958  0.00  0.00    +0.000 A 
ATOM     16  C   UNL     1       1.245   2.546  19.578  0.00  0.00    +0.000 A 
ATOM     17  C   UNL     1       1.027   2.979  20.885  0.00  0.00    +0.000 A 
ATOM     18  C   UNL     1       2.059   3.590  21.588  0.00  0.00    +0.000 A 
ATOM     19  C   UNL     1       3.315   3.749  20.994  0.00  0.00    +0.000 A 
ATOM     20  C   UNL     1       3.555   3.338  19.671  0.00  0.00    +0.000 A 
BRANCH  15  22
ATOM     21  C   UNL     1       2.469   3.372  16.680  0.00  0.00    +0.000 C 
ATOM     22  O   UNL     1       2.722   2.364  17.657  0.00  0.00    +0.000 OA
ENDBRANCH  15  22
ENDBRANCH  13  20
ENDBRANCH   1  14
TORSDOF 4
ENDMDL
MODEL 7
REMARK VINA RESULT:      -7.6      1.027      1.944
REMARK  Name = 
REMARK  5 active torsions:
REMARK  status: ('A' for Active; 'I' for Inactive)
REMARK    1  A    between atoms: C_1  and  O_2
REMARK    2  A    between atoms: O_2  and  C_3
REMARK    3  A    between atoms: C_8  and  C_9
REMARK    4  A    between atoms: C_10  and  C_11
REMARK    5  A    between atoms: C_11  and  C_13
REMARK                            x       y       z     vdW  Elec       q    Type
REMARK                         _______ _______ _______ _____ _____    ______ ____
ROOT
ATOM      1  C   UNL     1       6.853   4.589  17.847  0.00  0.00    +0.000 C 
ATOM      2  O   UNL     1       7.902   4.822  18.444  0.00  0.00    +0.000 OA
ENDROOT
BRANCH   1   3
ATOM      3  C   UNL     1       6.773   4.555  16.396  0.00  0.00    +0.000 A 
ATOM      4  N   UNL     1       6.043   3.703  15.696  0.00  0.00    +0.000 NA
ATOM      5  C   UNL     1       6.348   3.948  14.382  0.00  0.00    +0.000 A 
ATOM      6  C   UNL     1       5.887   3.300  13.226  0.00  0.00    +0.000 A 
ATOM      7  C   UNL     1       6.401   3.694  11.985  0.00  0.00    +0.000 A 
ATOM      8  C   UNL     1       7.347   4.718  11.898  0.00  0.00    +0.000 A 
ATOM      9  C   UNL     1       7.797   5.397  13.038  0.00  0.00    +0.000 A 
ATOM     10  C   UNL     1       7.272   4.979  14.264  0.00  0.00    +0.000 A 
ATOM     11  N   UNL     1       7.481   5.389  15.558  0.00  0.00    +0.000 N 
ATOM     12  H   UNL     1       8.097   6.125  15.869  0.00  0.00    +0.000 HD
ENDBRANCH   1   3
BRANCH   1  14
ATOM     13  C   UNL     1       4.480   3.851  17.957  0.00  0.00    +0.000 C 
ATOM     14  C   UNL     1       5.593   4.258  18.591  0.00  0.00    +0.000 C 
BRANCH  13  20
ATOM     15  C   UNL     1       2.586   4.560  19.453  0.00  0.00    +0.000 A 
ATOM     16  C   UNL     1       1.319   4.338  20.014  0.00  0.00    +0.000 A 
ATOM     17  C   UNL     1       0.643   3.141  19.787  0.00  0.00    +0.000 A 
ATOM     18  C   UNL     1       1.218   2.170  18.975  0.00  0.00    +0.000 A 
ATOM     19  C   UNL     1       2.458   2.404  18.372  0.00  0.00    +0.000 A 
ATOM     20  C   UNL     1       3.169   3.595  18.601  0.00  0.00    +0.000 A 
BRANCH  15  22
ATOM     21  C   UNL     1       2.566   6.922  19.471  0.00  0.00    +0.000 C 
ATOM     22  O   UNL     1       3.295   5.716  19.689  0.00  0.00    +0.000 OA
ENDBRANCH  15  22
ENDBRANCH  13  20
ENDBRANCH   1  14
TORSDOF 4
ENDMDL
MODEL 8
REMARK VINA RESULT:      -7.5      4.592      8.254
REMARK  Name = 
REMARK  5 active torsions:
REMARK  status: ('A' for Active; 'I' for Inactive)
REMARK    1  A    between atoms: C_1  and  O_2
REMARK    2  A    between atoms: O_2  and  C_3
REMARK    3  A    between atoms: C_8  and  C_9
REMARK    4  A    between atoms: C_10  and  C_11
REMARK    5  A    between atoms: C_11  and  C_13
REMARK                            x       y       z     vdW  Elec       q    Type
REMARK                         _______ _______ _______ _____ _____    ______ ____
ROOT
ATOM      1  C   UNL     1       2.115   8.414  18.421  0.00  0.00    +0.000 C 
ATOM      2  O   UNL     1       2.286   8.989  17.347  0.00  0.00    +0.000 OA
ENDROOT
BRANCH   1   3
ATOM      3  C   UNL     1       1.446   9.047  19.546  0.00  0.00    +0.000 A 
ATOM      4  N   UNL     1       1.223   8.473  20.716  0.00  0.00    +0.000 NA
ATOM      5  C   UNL     1       0.476   9.373  21.432  0.00  0.00    +0.000 A 
ATOM      6  C   UNL     1      -0.067   9.253  22.720  0.00  0.00    +0.000 A 
ATOM      7  C   UNL     1      -0.858  10.297  23.215  0.00  0.00    +0.000 A 
ATOM      8  C   UNL     1      -1.093  11.440  22.448  0.00  0.00    +0.000 A 
ATOM      9  C   UNL     1      -0.533  11.590  21.171  0.00  0.00    +0.000 A 
ATOM     10  C   UNL     1       0.246  10.531  20.699  0.00  0.00    +0.000 A 
ATOM     11  N   UNL     1       0.925  10.322  19.524  0.00  0.00    +0.000 N 
ATOM     12  H   UNL     1       0.985  10.952  18.738  0.00  0.00    +0.000 HD
ENDBRANCH   1   3
BRANCH   1  14
ATOM     13  C   UNL     1       2.029   5.993  17.862  0.00  0.00    +0.000 C 
ATOM     14  C   UNL     1       2.533   6.986  18.612  0.00  0.00    +0.000 C 
BRANCH  13  20
ATOM     15  C   UNL     1       3.488   3.973  17.509  0.00  0.00    +0.000 A 
ATOM     16  C   UNL     1       3.781   2.620  17.733  0.00  0.00    +0.000 A 
ATOM     17  C   UNL     1       2.891   1.808  18.434  0.00  0.00    +0.000 A 
ATOM     18  C   UNL     1       1.716   2.353  18.940  0.00  0.00    +0.000 A 
ATOM     19  C   UNL     1       1.440   3.713  18.764  0.00  0.00    +0.000 A 
ATOM     20  C   UNL     1       2.312   4.548  18.044  0.00  0.00    +0.000 A 
BRANCH  15  22
ATOM     21  C   UNL     1       5.689   4.367  16.749  0.00  0.00    +0.000 C 
ATOM     22  O   UNL     1       4.328   4.791  16.789  0.00  0.00    +0.000 OA
ENDBRANCH  15  22
ENDBRANCH  13  20
ENDBRANCH   1  14
TORSDOF 4
ENDMDL
MODEL 9
REMARK VINA RESULT:      -7.4      4.635      8.346
REMARK  Name = 
REMARK  5 active torsions:
REMARK  status: ('A' for Active; 'I' for Inactive)
REMARK    1  A    between atoms: C_1  and  O_2
REMARK    2  A    between atoms: O_2  and  C_3
REMARK    3  A    between atoms: C_8  and  C_9
REMARK    4  A    between atoms: C_10  and  C_11
REMARK    5  A    between atoms: C_11  and  C_13
REMARK                            x       y       z     vdW  Elec       q    Type
REMARK                         _______ _______ _______ _____ _____    ______ ____
ROOT
ATOM      1  C   UNL     1       2.099   8.401  18.486  0.00  0.00    +0.000 C 
ATOM      2  O   UNL     1       2.461   9.008  17.480  0.00  0.00    +0.000 OA
ENDROOT
BRANCH   1   3
ATOM      3  C   UNL     1       1.237   9.000  19.492  0.00  0.00    +0.000 A 
ATOM      4  N   UNL     1       0.575  10.135  19.344  0.00  0.00    +0.000 NA
ATOM      5  C   UNL     1      -0.011  10.382  20.559  0.00  0.00    +0.000 A 
ATOM      6  C   UNL     1      -0.794  11.473  20.964  0.00  0.00    +0.000 A 
ATOM      7  C   UNL     1      -1.229  11.531  22.293  0.00  0.00    +0.000 A 
ATOM      8  C   UNL     1      -0.900  10.517  23.196  0.00  0.00    +0.000 A 
ATOM      9  C   UNL     1      -0.145   9.404  22.802  0.00  0.00    +0.000 A 
ATOM     10  C   UNL     1       0.282   9.375  21.471  0.00  0.00    +0.000 A 
ATOM     11  N   UNL     1       1.029   8.477  20.749  0.00  0.00    +0.000 N 
ATOM     12  H   UNL     1       1.426   7.612  21.082  0.00  0.00    +0.000 HD
ENDBRANCH   1   3
BRANCH   1  14
ATOM     13  C   UNL     1       2.133   6.000  17.838  0.00  0.00    +0.000 C 
ATOM     14  C   UNL     1       2.479   6.965  18.705  0.00  0.00    +0.000 C 
BRANCH  13  20
ATOM     15  C   UNL     1       3.648   3.995  17.727  0.00  0.00    +0.000 A 
ATOM     16  C   UNL     1       3.897   2.633  17.957  0.00  0.00    +0.000 A 
ATOM     17  C   UNL     1       2.884   1.796  18.421  0.00  0.00    +0.000 A 
ATOM     18  C   UNL     1       1.624   2.322  18.685  0.00  0.00    +0.000 A 
ATOM     19  C   UNL     1       1.383   3.688  18.507  0.00  0.00    +0.000 A 
ATOM     20  C   UNL     1       2.382   4.549  18.021  0.00  0.00    +0.000 A 
BRANCH  15  22
ATOM     21  C   UNL     1       5.146   4.468  15.963  0.00  0.00    +0.000 C 
ATOM     22  O   UNL     1       4.617   4.839  17.234  0.00  0.00    +0.000 OA
ENDBRANCH  15  22
ENDBRANCH  13  20
ENDBRANCH   1  14
TORSDOF 4
ENDMDL
