MODEL 1
REMARK VINA RESULT:      -7.0      0.000      0.000
REMARK  Name = 
REMARK  9 active torsions:
REMARK  status: ('A' for Active; 'I' for Inactive)
REMARK    1  A    between atoms: C_1  and  O_2
REMARK    2  A    between atoms: O_2  and  C_3
REMARK    3  A    between atoms: C_5  and  C_6
REMARK    4  A    between atoms: C_6  and  C_7
REMARK    5  A    between atoms: C_6  and  C_8
REMARK    6  A    between atoms: C_9  and  O_10
REMARK    7  A    between atoms: O_10  and  C_11
REMARK    8  A    between atoms: C_13  and  C_14
REMARK    9  A    between atoms: C_18  and  O_19
REMARK                            x       y       z     vdW  Elec       q    Type
REMARK                         _______ _______ _______ _____ _____    ______ ____
ROOT
ATOM      1  C   UNL     1       3.146   6.025  18.454  0.00  0.00    +0.000 C 
ATOM      2  N   UNL     1       2.294   5.096  18.233  0.00  0.00    +0.000 NA
ATOM      3  C   UNL     1       2.690   3.701  18.452  0.00  0.00    +0.000 C 
ATOM      4  C   UNL     1       4.113   3.545  18.956  0.00  0.00    +0.000 C 
ATOM      5  N   UNL     1       4.983   4.473  19.134  0.00  0.00    +0.000 NA
ATOM      6  C   UNL     1       4.616   5.850  18.790  0.00  0.00    +0.000 C 
ENDROOT
BRANCH   6   7
ATOM      7  C   UNL     1       5.530   6.381  17.654  0.00  0.00    +0.000 C 
ATOM      8  C   UNL     1       7.025   6.086  17.894  0.00  0.00    +0.000 C 
ATOM      9  C   UNL     1       7.471   4.677  17.508  0.00  0.00    +0.000 C 
ATOM     10  C   UNL     1       7.040   4.301  16.095  0.00  0.00    +0.000 C 
ATOM     11  C   UNL     1       5.551   4.527  15.856  0.00  0.00    +0.000 C 
ATOM     12  C   UNL     1       5.114   5.942  16.237  0.00  0.00    +0.000 C 
BRANCH  11  13
ATOM     13  O   UNL     1       5.250   4.297  14.480  0.00  0.00    +0.000 OA
ATOM     14  H   UNL     1       4.788   5.082  14.140  0.00  0.00    +0.000 HD
ENDBRANCH  11  13
ENDBRANCH   6   7
BRANCH   3  15
ATOM     15  C   UNL     1       1.671   3.102  19.452  0.00  0.00    +0.000 C 
ATOM     16  C   UNL     1       0.563   2.334  18.720  0.00  0.00    +0.000 C 
ATOM     17  C   UNL     1       1.050   4.183  20.349  0.00  0.00    +0.000 C 
ENDBRANCH   3  15
BRANCH   1  19
ATOM     18  C   UNL     1       2.049   7.832  19.552  0.00  0.00    +0.000 C 
ATOM     19  O   UNL     1       2.781   7.333  18.420  0.00  0.00    +0.000 OA
ENDBRANCH   1  19
BRANCH   4  20
ATOM     20  O   UNL     1       4.428   2.238  19.184  0.00  0.00    +0.000 OA
ATOM     21  C   UNL     1       4.793   1.893  20.527  0.00  0.00    +0.000 C 
ENDBRANCH   4  20
TORSDOF 5
ENDMDL
MODEL 2
REMARK VINA RESULT:      -6.9      1.637      3.745
REMARK  Name = 
REMARK  9 active torsions:
REMARK  status: ('A' for Active; 'I' for Inactive)
REMARK    1  A    between atoms: C_1  and  O_2
REMARK    2  A    between atoms: O_2  and  C_3
REMARK    3  A    between atoms: C_5  and  C_6
REMARK    4  A    between atoms: C_6  and  C_7
REMARK    5  A    between atoms: C_6  and  C_8
REMARK    6  A    between atoms: C_9  and  O_10
REMARK    7  A    between atoms: O_10  and  C_11
REMARK    8  A    between atoms: C_13  and  C_14
REMARK    9  A    between atoms: C_18  and  O_19
REMARK                            x       y       z     vdW  Elec       q    Type
REMARK                         _______ _______ _______ _____ _____    ______ ____
ROOT
ATOM      1  C   UNL     1       3.745   3.283  18.224  0.00  0.00    +0.000 C 
ATOM      2  N   UNL     1       3.636   3.392  19.495  0.00  0.00    +0.000 NA
ATOM      3  C   UNL     1       3.278   4.694  20.068  0.00  0.00    +0.000 C 
ATOM      4  C   UNL     1       3.054   5.775  19.028  0.00  0.00    +0.000 C 
ATOM      5  N   UNL     1       3.208   5.678  17.757  0.00  0.00    +0.000 NA
ATOM      6  C   UNL     1       3.689   4.407  17.206  0.00  0.00    +0.000 C 
ENDROOT
BRANCH   6   7
ATOM      7  C   UNL     1       5.057   4.611  16.503  0.00  0.00    +0.000 C 
ATOM      8  C   UNL     1       5.208   6.009  15.870  0.00  0.00    +0.000 C 
ATOM      9  C   UNL     1       5.617   7.113  16.845  0.00  0.00    +0.000 C 
ATOM     10  C   UNL     1       6.839   6.730  17.672  0.00  0.00    +0.000 C 
ATOM     11  C   UNL     1       6.684   5.377  18.356  0.00  0.00    +0.000 C 
ATOM     12  C   UNL     1       6.283   4.276  17.373  0.00  0.00    +0.000 C 
BRANCH  11  13
ATOM     13  O   UNL     1       7.914   5.018  18.986  0.00  0.00    +0.000 OA
ATOM     14  H   UNL     1       8.514   4.682  18.299  0.00  0.00    +0.000 HD
ENDBRANCH  11  13
ENDBRANCH   6   7
BRANCH   3  15
ATOM     15  C   UNL     1       2.010   4.467  20.926  0.00  0.00    +0.000 C 
ATOM     16  C   UNL     1       2.201   3.295  21.898  0.00  0.00    +0.000 C 
ATOM     17  C   UNL     1       0.769   4.225  20.055  0.00  0.00    +0.000 C 
ENDBRANCH   3  15
BRANCH   1  19
ATOM     18  C   UNL     1       3.932   0.925  18.509  0.00  0.00    +0.000 C 
ATOM     19  O   UNL     1       3.916   2.069  17.638  0.00  0.00    +0.000 OA
ENDBRANCH   1  19
BRANCH   4  20
ATOM     20  O   UNL     1       2.686   6.958  19.599  0.00  0.00    +0.000 OA
ATOM     21  C   UNL     1       2.262   7.995  18.705  0.00  0.00    +0.000 C 
ENDBRANCH   4  20
TORSDOF 5
ENDMDL
MODEL 3
REMARK VINA RESULT:      -6.6      1.765      3.927
REMARK  Name = 
REMARK  9 active torsions:
REMARK  status: ('A' for Active; 'I' for Inactive)
REMARK    1  A    between atoms: C_1  and  O_2
REMARK    2  A    between atoms: O_2  and  C_3
REMARK    3  A    between atoms: C_5  and  C_6
REMARK    4  A    between atoms: C_6  and  C_7
REMARK    5  A    between atoms: C_6  and  C_8
REMARK    6  A    between atoms: C_9  and  O_10
REMARK    7  A    between atoms: O_10  and  C_11
REMARK    8  A    between atoms: C_13  and  C_14
REMARK    9  A    between atoms: C_18  and  O_19
REMARK                            x       y       z     vdW  Elec       q    Type
REMARK                         _______ _______ _______ _____ _____    ______ ____
ROOT
ATOM      1  C   UNL     1       4.025   3.693  18.147  0.00  0.00    +0.000 C 
ATOM      2  N   UNL     1       3.493   3.982  19.274  0.00  0.00    +0.000 NA
ATOM      3  C   UNL     1       3.169   5.382  19.570  0.00  0.00    +0.000 C 
ATOM      4  C   UNL     1       3.503   6.335  18.437  0.00  0.00    +0.000 C 
ATOM      5  N   UNL     1       4.078   6.052  17.324  0.00  0.00    +0.000 NA
ATOM      6  C   UNL     1       4.513   4.671  17.093  0.00  0.00    +0.000 C 
ENDROOT
BRANCH   6   7
ATOM      7  C   UNL     1       6.055   4.614  16.931  0.00  0.00    +0.000 C 
ATOM      8  C   UNL     1       6.625   5.818  16.153  0.00  0.00    +0.000 C 
ATOM      9  C   UNL     1       6.823   7.084  16.985  0.00  0.00    +0.000 C 
ATOM     10  C   UNL     1       7.605   6.816  18.266  0.00  0.00    +0.000 C 
ATOM     11  C   UNL     1       7.020   5.667  19.081  0.00  0.00    +0.000 C 
ATOM     12  C   UNL     1       6.832   4.402  18.243  0.00  0.00    +0.000 C 
BRANCH  11  13
ATOM     13  O   UNL     1       7.883   5.377  20.181  0.00  0.00    +0.000 OA
ATOM     14  H   UNL     1       7.417   5.620  20.999  0.00  0.00    +0.000 HD
ENDBRANCH  11  13
ENDBRANCH   6   7
BRANCH   3  15
ATOM     15  C   UNL     1       1.660   5.425  19.914  0.00  0.00    +0.000 C 
ATOM     16  C   UNL     1       1.364   6.500  20.969  0.00  0.00    +0.000 C 
ATOM     17  C   UNL     1       1.148   4.062  20.402  0.00  0.00    +0.000 C 
ENDBRANCH   3  15
BRANCH   1  19
ATOM     18  C   UNL     1       3.548   1.397  18.564  0.00  0.00    +0.000 C 
ATOM     19  O   UNL     1       4.196   2.400  17.764  0.00  0.00    +0.000 OA
ENDBRANCH   1  19
BRANCH   4  20
ATOM     20  O   UNL     1       3.151   7.618  18.736  0.00  0.00    +0.000 OA
ATOM     21  C   UNL     1       2.468   8.349  17.708  0.00  0.00    +0.000 C 
ENDBRANCH   4  20
TORSDOF 5
ENDMDL
MODEL 4
REMARK VINA RESULT:      -6.6      0.957      1.252
REMARK  Name = 
REMARK  9 active torsions:
REMARK  status: ('A' for Active; 'I' for Inactive)
REMARK    1  A    between atoms: C_1  and  O_2
REMARK    2  A    between atoms: O_2  and  C_3
REMARK    3  A    between atoms: C_5  and  C_6
REMARK    4  A    between atoms: C_6  and  C_7
REMARK    5  A    between atoms: C_6  and  C_8
REMARK    6  A    between atoms: C_9  and  O_10
REMARK    7  A    between atoms: O_10  and  C_11
REMARK    8  A    between atoms: C_13  and  C_14
REMARK    9  A    between atoms: C_18  and  O_19
REMARK                            x       y       z     vdW  Elec       q    Type
REMARK                         _______ _______ _______ _____ _____    ______ ____
ROOT
ATOM      1  C   UNL     1       2.834   6.432  18.030  0.00  0.00    +0.000 C 
ATOM      2  N   UNL     1       1.916   5.543  17.963  0.00  0.00    +0.000 NA
ATOM      3  C   UNL     1       2.203   4.187  18.444  0.00  0.00    +0.000 C 
ATOM      4  C   UNL     1       3.605   4.024  19.001  0.00  0.00    +0.000 C 
ATOM      5  N   UNL     1       4.541   4.903  19.026  0.00  0.00    +0.000 NA
ATOM      6  C   UNL     1       4.283   6.215  18.427  0.00  0.00    +0.000 C 
ENDROOT
BRANCH   6   7
ATOM      7  C   UNL     1       5.245   6.459  17.234  0.00  0.00    +0.000 C 
ATOM      8  C   UNL     1       6.685   6.789  17.677  0.00  0.00    +0.000 C 
ATOM      9  C   UNL     1       7.540   5.575  18.036  0.00  0.00    +0.000 C 
ATOM     10  C   UNL     1       7.514   4.508  16.948  0.00  0.00    +0.000 C 
ATOM     11  C   UNL     1       6.096   4.122  16.539  0.00  0.00    +0.000 C 
ATOM     12  C   UNL     1       5.250   5.342  16.174  0.00  0.00    +0.000 C 
BRANCH  11  13
ATOM     13  O   UNL     1       6.148   3.236  15.421  0.00  0.00    +0.000 OA
ATOM     14  H   UNL     1       6.993   3.381  14.963  0.00  0.00    +0.000 HD
ENDBRANCH  11  13
ENDBRANCH   6   7
BRANCH   3  15
ATOM     15  C   UNL     1       1.132   3.859  19.513  0.00  0.00    +0.000 C 
ATOM     16  C   UNL     1       1.697   4.024  20.931  0.00  0.00    +0.000 C 
ATOM     17  C   UNL     1       0.567   2.443  19.338  0.00  0.00    +0.000 C 
ENDBRANCH   3  15
BRANCH   1  19
ATOM     18  C   UNL     1       1.943   8.508  18.785  0.00  0.00    +0.000 C 
ATOM     19  O   UNL     1       2.569   7.734  17.747  0.00  0.00    +0.000 OA
ENDBRANCH   1  19
BRANCH   4  20
ATOM     20  O   UNL     1       3.818   2.762  19.472  0.00  0.00    +0.000 OA
ATOM     21  C   UNL     1       3.871   1.715  18.493  0.00  0.00    +0.000 C 
ENDBRANCH   4  20
TORSDOF 5
ENDMDL
MODEL 5
REMARK VINA RESULT:      -6.5      1.604      4.952
REMARK  Name = 
REMARK  9 active torsions:
REMARK  status: ('A' for Active; 'I' for Inactive)
REMARK    1  A    between atoms: C_1  and  O_2
REMARK    2  A    between atoms: O_2  and  C_3
REMARK    3  A    between atoms: C_5  and  C_6
REMARK    4  A    between atoms: C_6  and  C_7
REMARK    5  A    between atoms: C_6  and  C_8
REMARK    6  A    between atoms: C_9  and  O_10
REMARK    7  A    between atoms: O_10  and  C_11
REMARK    8  A    between atoms: C_13  and  C_14
REMARK    9  A    between atoms: C_18  and  O_19
REMARK                            x       y       z     vdW  Elec       q    Type
REMARK                         _______ _______ _______ _____ _____    ______ ____
ROOT
ATOM      1  C   UNL     1       3.712   5.774  18.974  0.00  0.00    +0.000 C 
ATOM      2  N   UNL     1       4.935   5.569  19.292  0.00  0.00    +0.000 NA
ATOM      3  C   UNL     1       5.774   4.760  18.402  0.00  0.00    +0.000 C 
ATOM      4  C   UNL     1       5.052   4.275  17.159  0.00  0.00    +0.000 C 
ATOM      5  N   UNL     1       3.813   4.443  16.862  0.00  0.00    +0.000 NA
ATOM      6  C   UNL     1       2.954   5.143  17.820  0.00  0.00    +0.000 C 
ENDROOT
BRANCH   6   7
ATOM      7  C   UNL     1       1.830   4.199  18.323  0.00  0.00    +0.000 C 
ATOM      8  C   UNL     1       2.003   2.744  17.840  0.00  0.00    +0.000 C 
ATOM      9  C   UNL     1       2.985   1.908  18.659  0.00  0.00    +0.000 C 
ATOM     10  C   UNL     1       2.694   1.978  20.154  0.00  0.00    +0.000 C 
ATOM     11  C   UNL     1       2.581   3.410  20.664  0.00  0.00    +0.000 C 
ATOM     12  C   UNL     1       1.590   4.237  19.843  0.00  0.00    +0.000 C 
BRANCH  11  13
ATOM     13  O   UNL     1       2.163   3.398  22.029  0.00  0.00    +0.000 OA
ATOM     14  H   UNL     1       1.562   2.644  22.151  0.00  0.00    +0.000 HD
ENDBRANCH  11  13
ENDBRANCH   6   7
BRANCH   3  15
ATOM     15  C   UNL     1       7.000   5.631  18.035  0.00  0.00    +0.000 C 
ATOM     16  C   UNL     1       7.836   5.961  19.280  0.00  0.00    +0.000 C 
ATOM     17  C   UNL     1       6.586   6.929  17.327  0.00  0.00    +0.000 C 
ENDBRANCH   3  15
BRANCH   1  19
ATOM     18  C   UNL     1       2.337   7.719  18.942  0.00  0.00    +0.000 C 
ATOM     19  O   UNL     1       2.942   6.643  19.679  0.00  0.00    +0.000 OA
ENDBRANCH   1  19
BRANCH   4  20
ATOM     20  O   UNL     1       5.877   3.561  16.340  0.00  0.00    +0.000 OA
ATOM     21  C   UNL     1       5.935   3.979  14.970  0.00  0.00    +0.000 C 
ENDBRANCH   4  20
TORSDOF 5
ENDMDL
MODEL 6
REMARK VINA RESULT:      -6.4      1.812      5.250
REMARK  Name = 
REMARK  9 active torsions:
REMARK  status: ('A' for Active; 'I' for Inactive)
REMARK    1  A    between atoms: C_1  and  O_2
REMARK    2  A    between atoms: O_2  and  C_3
REMARK    3  A    between atoms: C_5  and  C_6
REMARK    4  A    between atoms: C_6  and  C_7
REMARK    5  A    between atoms: C_6  and  C_8
REMARK    6  A    between atoms: C_9  and  O_10
REMARK    7  A    between atoms: O_10  and  C_11
REMARK    8  A    between atoms: C_13  and  C_14
REMARK    9  A    between atoms: C_18  and  O_19
REMARK                            x       y       z     vdW  Elec       q    Type
REMARK                         _______ _______ _______ _____ _____    ______ ____
ROOT
ATOM      1  C   UNL     1       4.764   4.883  18.934  0.00  0.00    +0.000 C 
ATOM      2  N   UNL     1       5.965   5.316  19.032  0.00  0.00    +0.000 NA
ATOM      3  C   UNL     1       6.886   5.113  17.909  0.00  0.00    +0.000 C 
ATOM      4  C   UNL     1       6.254   4.407  16.724  0.00  0.00    +0.000 C 
ATOM      5  N   UNL     1       5.063   3.933  16.643  0.00  0.00    +0.000 NA
ATOM      6  C   UNL     1       4.192   4.029  17.818  0.00  0.00    +0.000 C 
ENDROOT
BRANCH   6   7
ATOM      7  C   UNL     1       3.812   2.611  18.321  0.00  0.00    +0.000 C 
ATOM      8  C   UNL     1       4.059   2.421  19.832  0.00  0.00    +0.000 C 
ATOM      9  C   UNL     1       2.956   2.968  20.736  0.00  0.00    +0.000 C 
ATOM     10  C   UNL     1       1.573   2.477  20.322  0.00  0.00    +0.000 C 
ATOM     11  C   UNL     1       1.285   2.713  18.843  0.00  0.00    +0.000 C 
ATOM     12  C   UNL     1       2.390   2.155  17.945  0.00  0.00    +0.000 C 
BRANCH  11  13
ATOM     13  O   UNL     1       0.044   2.099  18.496  0.00  0.00    +0.000 OA
ATOM     14  H   UNL     1      -0.571   2.228  19.238  0.00  0.00    +0.000 HD
ENDBRANCH  11  13
ENDBRANCH   6   7
BRANCH   3  15
ATOM     15  C   UNL     1       7.417   6.512  17.512  0.00  0.00    +0.000 C 
ATOM     16  C   UNL     1       8.196   7.156  18.667  0.00  0.00    +0.000 C 
ATOM     17  C   UNL     1       6.284   7.445  17.064  0.00  0.00    +0.000 C 
ENDBRANCH   3  15
BRANCH   1  19
ATOM     18  C   UNL     1       2.868   6.195  19.534  0.00  0.00    +0.000 C 
ATOM     19  O   UNL     1       3.833   5.186  19.877  0.00  0.00    +0.000 OA
ENDBRANCH   1  19
BRANCH   4  20
ATOM     20  O   UNL     1       7.132   4.273  15.689  0.00  0.00    +0.000 OA
ATOM     21  C   UNL     1       6.567   4.251  14.371  0.00  0.00    +0.000 C 
ENDBRANCH   4  20
TORSDOF 5
ENDMDL
MODEL 7
REMARK VINA RESULT:      -6.3      1.792      5.090
REMARK  Name = 
REMARK  9 active torsions:
REMARK  status: ('A' for Active; 'I' for Inactive)
REMARK    1  A    between atoms: C_1  and  O_2
REMARK    2  A    between atoms: O_2  and  C_3
REMARK    3  A    between atoms: C_5  and  C_6
REMARK    4  A    between atoms: C_6  and  C_7
REMARK    5  A    between atoms: C_6  and  C_8
REMARK    6  A    between atoms: C_9  and  O_10
REMARK    7  A    between atoms: O_10  and  C_11
REMARK    8  A    between atoms: C_13  and  C_14
REMARK    9  A    between atoms: C_18  and  O_19
REMARK                            x       y       z     vdW  Elec       q    Type
REMARK                         _______ _______ _______ _____ _____    ______ ____
ROOT
ATOM      1  C   UNL     1       4.197   4.957  18.684  0.00  0.00    +0.000 C 
ATOM      2  N   UNL     1       5.435   4.856  18.993  0.00  0.00    +0.000 NA
ATOM      3  C   UNL     1       6.409   4.554  17.939  0.00  0.00    +0.000 C 
ATOM      4  C   UNL     1       5.790   4.421  16.560  0.00  0.00    +0.000 C 
ATOM      5  N   UNL     1       4.543   4.478  16.256  0.00  0.00    +0.000 NA
ATOM      6  C   UNL     1       3.568   4.652  17.336  0.00  0.00    +0.000 C 
ENDROOT
BRANCH   6   7
ATOM      7  C   UNL     1       2.624   3.422  17.411  0.00  0.00    +0.000 C 
ATOM      8  C   UNL     1       3.353   2.127  17.823  0.00  0.00    +0.000 C 
ATOM      9  C   UNL     1       3.577   1.967  19.326  0.00  0.00    +0.000 C 
ATOM     10  C   UNL     1       2.296   2.175  20.126  0.00  0.00    +0.000 C 
ATOM     11  C   UNL     1       1.592   3.482  19.777  0.00  0.00    +0.000 C 
ATOM     12  C   UNL     1       1.365   3.630  18.272  0.00  0.00    +0.000 C 
BRANCH  11  13
ATOM     13  O   UNL     1       0.333   3.539  20.449  0.00  0.00    +0.000 OA
ATOM     14  H   UNL     1      -0.202   2.787  20.146  0.00  0.00    +0.000 HD
ENDBRANCH  11  13
ENDBRANCH   6   7
BRANCH   3  15
ATOM     15  C   UNL     1       7.465   5.686  17.974  0.00  0.00    +0.000 C 
ATOM     16  C   UNL     1       8.019   5.881  19.392  0.00  0.00    +0.000 C 
ATOM     17  C   UNL     1       6.897   7.012  17.449  0.00  0.00    +0.000 C 
ENDBRANCH   3  15
BRANCH   1  19
ATOM     18  C   UNL     1       2.764   6.717  19.405  0.00  0.00    +0.000 C 
ATOM     19  O   UNL     1       3.282   5.389  19.590  0.00  0.00    +0.000 OA
ENDBRANCH   1  19
BRANCH   4  20
ATOM     20  O   UNL     1       6.732   4.180  15.604  0.00  0.00    +0.000 OA
ATOM     21  C   UNL     1       6.253   4.006  14.264  0.00  0.00    +0.000 C 
ENDBRANCH   4  20
TORSDOF 5
ENDMDL
MODEL 8
REMARK VINA RESULT:      -6.3      1.641      4.953
REMARK  Name = 
REMARK  9 active torsions:
REMARK  status: ('A' for Active; 'I' for Inactive)
REMARK    1  A    between atoms: C_1  and  O_2
REMARK    2  A    between atoms: O_2  and  C_3
REMARK    3  A    between atoms: C_5  and  C_6
REMARK    4  A    between atoms: C_6  and  C_7
REMARK    5  A    between atoms: C_6  and  C_8
REMARK    6  A    between atoms: C_9  and  O_10
REMARK    7  A    between atoms: O_10  and  C_11
REMARK    8  A    between atoms: C_13  and  C_14
REMARK    9  A    between atoms: C_18  and  O_19
REMARK                            x       y       z     vdW  Elec       q    Type
REMARK                         _______ _______ _______ _____ _____    ______ ____
ROOT
ATOM      1  C   UNL     1       4.503   5.976  17.408  0.00  0.00    +0.000 C 
ATOM      2  N   UNL     1       5.455   6.207  18.232  0.00  0.00    +0.000 NA
ATOM      3  C   UNL     1       5.831   5.166  19.193  0.00  0.00    +0.000 C 
ATOM      4  C   UNL     1       5.020   3.891  19.058  0.00  0.00    +0.000 C 
ATOM      5  N   UNL     1       4.035   3.675  18.262  0.00  0.00    +0.000 NA
ATOM      6  C   UNL     1       3.585   4.767  17.395  0.00  0.00    +0.000 C 
ENDROOT
BRANCH   6   7
ATOM      7  C   UNL     1       2.122   5.157  17.737  0.00  0.00    +0.000 C 
ATOM      8  C   UNL     1       1.240   3.941  18.088  0.00  0.00    +0.000 C 
ATOM      9  C   UNL     1       1.377   3.443  19.526  0.00  0.00    +0.000 C 
ATOM     10  C   UNL     1       1.222   4.568  20.543  0.00  0.00    +0.000 C 
ATOM     11  C   UNL     1       2.132   5.756  20.249  0.00  0.00    +0.000 C 
ATOM     12  C   UNL     1       1.983   6.252  18.810  0.00  0.00    +0.000 C 
BRANCH  11  13
ATOM     13  O   UNL     1       1.828   6.822  21.147  0.00  0.00    +0.000 OA
ATOM     14  H   UNL     1       1.184   6.493  21.796  0.00  0.00    +0.000 HD
ENDBRANCH  11  13
ENDBRANCH   6   7
BRANCH   3  15
ATOM     15  C   UNL     1       7.342   4.895  18.986  0.00  0.00    +0.000 C 
ATOM     16  C   UNL     1       8.180   6.127  19.353  0.00  0.00    +0.000 C 
ATOM     17  C   UNL     1       7.650   4.465  17.545  0.00  0.00    +0.000 C 
ENDBRANCH   3  15
BRANCH   1  19
ATOM     18  C   UNL     1       5.121   6.838  15.275  0.00  0.00    +0.000 C 
ATOM     19  O   UNL     1       4.224   6.842  16.399  0.00  0.00    +0.000 OA
ENDBRANCH   1  19
BRANCH   4  20
ATOM     20  O   UNL     1       5.427   2.936  19.942  0.00  0.00    +0.000 OA
ATOM     21  C   UNL     1       4.497   1.879  20.213  0.00  0.00    +0.000 C 
ENDBRANCH   4  20
TORSDOF 5
ENDMDL
MODEL 9
REMARK VINA RESULT:      -6.3      1.535      4.883
REMARK  Name = 
REMARK  9 active torsions:
REMARK  status: ('A' for Active; 'I' for Inactive)
REMARK    1  A    between atoms: C_1  and  O_2
REMARK    2  A    between atoms: O_2  and  C_3
REMARK    3  A    between atoms: C_5  and  C_6
REMARK    4  A    between atoms: C_6  and  C_7
REMARK    5  A    between atoms: C_6  and  C_8
REMARK    6  A    between atoms: C_9  and  O_10
REMARK    7  A    between atoms: O_10  and  C_11
REMARK    8  A    between atoms: C_13  and  C_14
REMARK    9  A    between atoms: C_18  and  O_19
REMARK                            x       y       z     vdW  Elec       q    Type
REMARK                         _______ _______ _______ _____ _____    ______ ____
ROOT
ATOM      1  C   UNL     1       4.048   5.644  19.038  0.00  0.00    +0.000 C 
ATOM      2  N   UNL     1       5.316   5.775  19.148  0.00  0.00    +0.000 NA
ATOM      3  C   UNL     1       6.185   5.141  18.150  0.00  0.00    +0.000 C 
ATOM      4  C   UNL     1       5.424   4.404  17.063  0.00  0.00    +0.000 C 
ATOM      5  N   UNL     1       4.154   4.234  16.978  0.00  0.00    +0.000 NA
ATOM      6  C   UNL     1       3.306   4.763  18.050  0.00  0.00    +0.000 C 
ENDROOT
BRANCH   6   7
ATOM      7  C   UNL     1       2.559   3.606  18.764  0.00  0.00    +0.000 C 
ATOM      8  C   UNL     1       2.314   2.389  17.848  0.00  0.00    +0.000 C 
ATOM      9  C   UNL     1       3.507   1.445  17.703  0.00  0.00    +0.000 C 
ATOM     10  C   UNL     1       4.083   1.032  19.053  0.00  0.00    +0.000 C 
ATOM     11  C   UNL     1       4.390   2.225  19.951  0.00  0.00    +0.000 C 
ATOM     12  C   UNL     1       3.189   3.160  20.097  0.00  0.00    +0.000 C 
BRANCH  11  13
ATOM     13  O   UNL     1       4.782   1.761  21.243  0.00  0.00    +0.000 OA
ATOM     14  H   UNL     1       4.059   1.954  21.862  0.00  0.00    +0.000 HD
ENDBRANCH  11  13
ENDBRANCH   6   7
BRANCH   3  15
ATOM     15  C   UNL     1       7.069   6.263  17.555  0.00  0.00    +0.000 C 
ATOM     16  C   UNL     1       8.039   6.820  18.606  0.00  0.00    +0.000 C 
ATOM     17  C   UNL     1       6.225   7.404  16.969  0.00  0.00    +0.000 C 
ENDBRANCH   3  15
BRANCH   1  19
ATOM     18  C   UNL     1       2.362   7.319  19.203  0.00  0.00    +0.000 C 
ATOM     19  O   UNL     1       3.201   6.341  19.841  0.00  0.00    +0.000 OA
ENDBRANCH   1  19
BRANCH   4  20
ATOM     20  O   UNL     1       6.266   3.863  16.136  0.00  0.00    +0.000 OA
ATOM     21  C   UNL     1       5.929   4.087  14.760  0.00  0.00    +0.000 C 
ENDBRANCH   4  20
TORSDOF 5
ENDMDL
