MODEL 1
REMARK VINA RESULT:      -7.4      0.000      0.000
REMARK  Name = 
REMARK  11 active torsions:
REMARK  status: ('A' for Active; 'I' for Inactive)
REMARK    1  A    between atoms: C_1  and  C_2
REMARK    2  A    between atoms: C_2  and  C_3
REMARK    3  A    between atoms: C_3  and  O_4
REMARK    4  A    between atoms: O_4  and  C_5
REMARK    5  A    between atoms: C_5  and  C_6
REMARK    6  A    between atoms: C_6  and  C_7
REMARK    7  A    between atoms: C_7  and  C_8
REMARK    8  A    between atoms: C_8  and  C_9
REMARK    9  A    between atoms: C_9  and  C_10
REMARK   10  A    between atoms: C_10  and  N_11
REMARK   11  A    between atoms: N_14  and  C_15
REMARK                            x       y       z     vdW  Elec       q    Type
REMARK                         _______ _______ _______ _____ _____    ______ ____
ROOT
ATOM      1  N   UNL     1       6.119   6.879  17.274  0.00  0.00    +0.000 N 
ATOM      2  C   UNL     1       5.503   5.914  18.014  0.00  0.00    +0.000 C 
ATOM      3  O   UNL     1       6.109   5.303  18.900  0.00  0.00    +0.000 OA
ATOM      4  N   UNL     1       4.199   5.665  17.683  0.00  0.00    +0.000 N 
ATOM      5  H   UNL     1       5.615   7.381  16.559  0.00  0.00    +0.000 HD
ATOM      6  H   UNL     1       3.764   6.231  16.967  0.00  0.00    +0.000 HD
ENDROOT
BRANCH   4   7
ATOM      7  C   UNL     1       3.378   4.680  18.424  0.00  0.00    +0.000 C 
ATOM      8  C   UNL     1       1.945   4.566  17.831  0.00  0.00    +0.000 C 
ATOM      9  C   UNL     1       1.110   3.526  18.592  0.00  0.00    +0.000 C 
ATOM     10  C   UNL     1       1.807   2.161  18.504  0.00  0.00    +0.000 C 
ATOM     11  C   UNL     1       3.204   2.239  19.143  0.00  0.00    +0.000 C 
ATOM     12  C   UNL     1       3.068   2.665  20.613  0.00  0.00    +0.000 C 
ATOM     13  C   UNL     1       2.393   4.042  20.695  0.00  0.00    +0.000 C 
ATOM     14  C   UNL     1       0.993   3.947  20.065  0.00  0.00    +0.000 C 
ATOM     15  C   UNL     1       3.238   5.077  19.924  0.00  0.00    +0.000 C 
ATOM     16  C   UNL     1       4.049   3.280  18.386  0.00  0.00    +0.000 C 
ENDBRANCH   4   7
BRANCH   1  17
ATOM     17  C   UNL     1       7.503   7.214  17.546  0.00  0.00    +0.000 C 
BRANCH  17  18
ATOM     18  C   UNL     1       7.761   8.723  17.570  0.00  0.00    +0.000 C 
BRANCH  18  19
ATOM     19  C   UNL     1       8.754   9.110  18.671  0.00  0.00    +0.000 C 
BRANCH  19  20
ATOM     20  C   UNL     1       9.205  10.564  18.537  0.00  0.00    +0.000 C 
BRANCH  20  21
ATOM     21  C   UNL     1       9.494  11.201  19.888  0.00  0.00    +0.000 C 
BRANCH  21  22
ATOM     22  C   UNL     1      10.971  11.542  19.989  0.00  0.00    +0.000 C 
BRANCH  22  23
ATOM     23  O   UNL     1      11.545  11.517  18.685  0.00  0.00    +0.000 OA
BRANCH  23  24
ATOM     24  C   UNL     1      12.089  12.797  18.371  0.00  0.00    +0.000 C 
BRANCH  24  26
ATOM     25  C   UNL     1      11.232  14.682  16.982  0.00  0.00    +0.000 C 
ATOM     26  C   UNL     1      11.628  13.216  16.984  0.00  0.00    +0.000 C 
ENDBRANCH  24  26
ENDBRANCH  23  24
ENDBRANCH  22  23
ENDBRANCH  21  22
ENDBRANCH  20  21
ENDBRANCH  19  20
ENDBRANCH  18  19
ENDBRANCH  17  18
ENDBRANCH   1  17
TORSDOF 10
ENDMDL
MODEL 2
REMARK VINA RESULT:      -7.1      2.044     10.573
REMARK  Name = 
REMARK  11 active torsions:
REMARK  status: ('A' for Active; 'I' for Inactive)
REMARK    1  A    between atoms: C_1  and  C_2
REMARK    2  A    between atoms: C_2  and  C_3
REMARK    3  A    between atoms: C_3  and  O_4
REMARK    4  A    between atoms: O_4  and  C_5
REMARK    5  A    between atoms: C_5  and  C_6
REMARK    6  A    between atoms: C_6  and  C_7
REMARK    7  A    between atoms: C_7  and  C_8
REMARK    8  A    between atoms: C_8  and  C_9
REMARK    9  A    between atoms: C_9  and  C_10
REMARK   10  A    between atoms: C_10  and  N_11
REMARK   11  A    between atoms: N_14  and  C_15
REMARK                            x       y       z     vdW  Elec       q    Type
REMARK                         _______ _______ _______ _____ _____    ______ ____
ROOT
ATOM      1  N   UNL     1       7.379   8.407  17.341  0.00  0.00    +0.000 N 
ATOM      2  C   UNL     1       8.280   9.121  18.075  0.00  0.00    +0.000 C 
ATOM      3  O   UNL     1       8.941   8.587  18.970  0.00  0.00    +0.000 OA
ATOM      4  N   UNL     1       8.366  10.450  17.764  0.00  0.00    +0.000 N 
ATOM      5  H   UNL     1       6.850   8.848  16.604  0.00  0.00    +0.000 HD
ATOM      6  H   UNL     1       7.815  10.806  16.995  0.00  0.00    +0.000 HD
ENDROOT
BRANCH   4   7
ATOM      7  C   UNL     1       9.331  11.350  18.438  0.00  0.00    +0.000 C 
ATOM      8  C   UNL     1       9.502  10.984  19.940  0.00  0.00    +0.000 C 
ATOM      9  C   UNL     1      10.521  11.908  20.624  0.00  0.00    +0.000 C 
ATOM     10  C   UNL     1      11.874  11.778  19.911  0.00  0.00    +0.000 C 
ATOM     11  C   UNL     1      11.737  12.196  18.437  0.00  0.00    +0.000 C 
ATOM     12  C   UNL     1      11.242  13.649  18.364  0.00  0.00    +0.000 C 
ATOM     13  C   UNL     1       9.877  13.770  19.057  0.00  0.00    +0.000 C 
ATOM     14  C   UNL     1      10.031  13.362  20.532  0.00  0.00    +0.000 C 
ATOM     15  C   UNL     1       8.864  12.835  18.365  0.00  0.00    +0.000 C 
ATOM     16  C   UNL     1      10.717  11.275  17.742  0.00  0.00    +0.000 C 
ENDBRANCH   4   7
BRANCH   1  17
ATOM     17  C   UNL     1       7.211   6.991  17.597  0.00  0.00    +0.000 C 
BRANCH  17  18
ATOM     18  C   UNL     1       6.140   6.345  16.714  0.00  0.00    +0.000 C 
BRANCH  18  19
ATOM     19  C   UNL     1       4.878   6.004  17.515  0.00  0.00    +0.000 C 
BRANCH  19  20
ATOM     20  C   UNL     1       4.782   4.506  17.801  0.00  0.00    +0.000 C 
BRANCH  20  21
ATOM     21  C   UNL     1       3.512   3.893  17.226  0.00  0.00    +0.000 C 
BRANCH  21  22
ATOM     22  C   UNL     1       2.296   4.584  17.819  0.00  0.00    +0.000 C 
BRANCH  22  23
ATOM     23  O   UNL     1       1.173   3.710  17.731  0.00  0.00    +0.000 OA
BRANCH  23  24
ATOM     24  C   UNL     1       1.144   2.844  18.863  0.00  0.00    +0.000 C 
BRANCH  24  26
ATOM     25  C   UNL     1       1.608   3.027  21.306  0.00  0.00    +0.000 C 
ATOM     26  C   UNL     1       0.904   3.664  20.121  0.00  0.00    +0.000 C 
ENDBRANCH  24  26
ENDBRANCH  23  24
ENDBRANCH  22  23
ENDBRANCH  21  22
ENDBRANCH  20  21
ENDBRANCH  19  20
ENDBRANCH  18  19
ENDBRANCH  17  18
ENDBRANCH   1  17
TORSDOF 10
ENDMDL
MODEL 3
REMARK VINA RESULT:      -7.1      3.808      5.608
REMARK  Name = 
REMARK  11 active torsions:
REMARK  status: ('A' for Active; 'I' for Inactive)
REMARK    1  A    between atoms: C_1  and  C_2
REMARK    2  A    between atoms: C_2  and  C_3
REMARK    3  A    between atoms: C_3  and  O_4
REMARK    4  A    between atoms: O_4  and  C_5
REMARK    5  A    between atoms: C_5  and  C_6
REMARK    6  A    between atoms: C_6  and  C_7
REMARK    7  A    between atoms: C_7  and  C_8
REMARK    8  A    between atoms: C_8  and  C_9
REMARK    9  A    between atoms: C_9  and  C_10
REMARK   10  A    between atoms: C_10  and  N_11
REMARK   11  A    between atoms: N_14  and  C_15
REMARK                            x       y       z     vdW  Elec       q    Type
REMARK                         _______ _______ _______ _____ _____    ______ ____
ROOT
ATOM      1  N   UNL     1       7.415   4.639  18.632  0.00  0.00    +0.000 N 
ATOM      2  C   UNL     1       6.123   4.585  19.064  0.00  0.00    +0.000 C 
ATOM      3  O   UNL     1       5.704   5.363  19.926  0.00  0.00    +0.000 OA
ATOM      4  N   UNL     1       5.357   3.602  18.499  0.00  0.00    +0.000 N 
ATOM      5  H   UNL     1       7.748   4.006  17.921  0.00  0.00    +0.000 HD
ATOM      6  H   UNL     1       5.765   3.025  17.776  0.00  0.00    +0.000 HD
ENDROOT
BRANCH   4   7
ATOM      7  C   UNL     1       3.922   3.443  18.828  0.00  0.00    +0.000 C 
ATOM      8  C   UNL     1       3.176   4.807  18.811  0.00  0.00    +0.000 C 
ATOM      9  C   UNL     1       1.684   4.628  19.130  0.00  0.00    +0.000 C 
ATOM     10  C   UNL     1       1.056   3.692  18.089  0.00  0.00    +0.000 C 
ATOM     11  C   UNL     1       1.742   2.316  18.134  0.00  0.00    +0.000 C 
ATOM     12  C   UNL     1       1.586   1.716  19.541  0.00  0.00    +0.000 C 
ATOM     13  C   UNL     1       2.237   2.644  20.577  0.00  0.00    +0.000 C 
ATOM     14  C   UNL     1       1.534   4.011  20.530  0.00  0.00    +0.000 C 
ATOM     15  C   UNL     1       3.733   2.819  20.243  0.00  0.00    +0.000 C 
ATOM     16  C   UNL     1       3.239   2.485  17.815  0.00  0.00    +0.000 C 
ENDBRANCH   4   7
BRANCH   1  17
ATOM     17  C   UNL     1       8.308   5.644  19.174  0.00  0.00    +0.000 C 
BRANCH  17  18
ATOM     18  C   UNL     1       8.060   7.040  18.596  0.00  0.00    +0.000 C 
BRANCH  18  19
ATOM     19  C   UNL     1       7.541   6.972  17.156  0.00  0.00    +0.000 C 
BRANCH  19  20
ATOM     20  C   UNL     1       6.095   7.455  17.056  0.00  0.00    +0.000 C 
BRANCH  20  21
ATOM     21  C   UNL     1       5.207   6.458  16.323  0.00  0.00    +0.000 C 
BRANCH  21  22
ATOM     22  C   UNL     1       6.009   5.755  15.242  0.00  0.00    +0.000 C 
BRANCH  22  23
ATOM     23  O   UNL     1       6.363   4.451  15.696  0.00  0.00    +0.000 OA
BRANCH  23  24
ATOM     24  C   UNL     1       5.827   3.469  14.813  0.00  0.00    +0.000 C 
BRANCH  24  26
ATOM     25  C   UNL     1       6.125   3.257  12.347  0.00  0.00    +0.000 C 
ATOM     26  C   UNL     1       5.541   4.106  13.462  0.00  0.00    +0.000 C 
ENDBRANCH  24  26
ENDBRANCH  23  24
ENDBRANCH  22  23
ENDBRANCH  21  22
ENDBRANCH  20  21
ENDBRANCH  19  20
ENDBRANCH  18  19
ENDBRANCH  17  18
ENDBRANCH   1  17
TORSDOF 10
ENDMDL
MODEL 4
REMARK VINA RESULT:      -7.0      1.401      2.414
REMARK  Name = 
REMARK  11 active torsions:
REMARK  status: ('A' for Active; 'I' for Inactive)
REMARK    1  A    between atoms: C_1  and  C_2
REMARK    2  A    between atoms: C_2  and  C_3
REMARK    3  A    between atoms: C_3  and  O_4
REMARK    4  A    between atoms: O_4  and  C_5
REMARK    5  A    between atoms: C_5  and  C_6
REMARK    6  A    between atoms: C_6  and  C_7
REMARK    7  A    between atoms: C_7  and  C_8
REMARK    8  A    between atoms: C_8  and  C_9
REMARK    9  A    between atoms: C_9  and  C_10
REMARK   10  A    between atoms: C_10  and  N_11
REMARK   11  A    between atoms: N_14  and  C_15
REMARK                            x       y       z     vdW  Elec       q    Type
REMARK                         _______ _______ _______ _____ _____    ______ ____
ROOT
ATOM      1  N   UNL     1       6.226   6.443  17.277  0.00  0.00    +0.000 N 
ATOM      2  C   UNL     1       5.562   5.517  18.025  0.00  0.00    +0.000 C 
ATOM      3  O   UNL     1       6.166   4.764  18.795  0.00  0.00    +0.000 OA
ATOM      4  N   UNL     1       4.208   5.472  17.834  0.00  0.00    +0.000 N 
ATOM      5  H   UNL     1       5.725   7.061  16.657  0.00  0.00    +0.000 HD
ATOM      6  H   UNL     1       3.783   6.145  17.210  0.00  0.00    +0.000 HD
ENDROOT
BRANCH   4   7
ATOM      7  C   UNL     1       3.339   4.553  18.607  0.00  0.00    +0.000 C 
ATOM      8  C   UNL     1       3.925   3.114  18.653  0.00  0.00    +0.000 C 
ATOM      9  C   UNL     1       3.029   2.175  19.475  0.00  0.00    +0.000 C 
ATOM     10  C   UNL     1       2.908   2.721  20.904  0.00  0.00    +0.000 C 
ATOM     11  C   UNL     1       2.272   4.121  20.882  0.00  0.00    +0.000 C 
ATOM     12  C   UNL     1       0.882   4.039  20.232  0.00  0.00    +0.000 C 
ATOM     13  C   UNL     1       1.010   3.516  18.794  0.00  0.00    +0.000 C 
ATOM     14  C   UNL     1       1.635   2.111  18.831  0.00  0.00    +0.000 C 
ATOM     15  C   UNL     1       1.915   4.463  17.980  0.00  0.00    +0.000 C 
ATOM     16  C   UNL     1       3.164   5.070  20.060  0.00  0.00    +0.000 C 
ENDBRANCH   4   7
BRANCH   1  17
ATOM     17  C   UNL     1       7.665   6.565  17.404  0.00  0.00    +0.000 C 
BRANCH  17  18
ATOM     18  C   UNL     1       8.088   7.585  18.466  0.00  0.00    +0.000 C 
BRANCH  18  19
ATOM     19  C   UNL     1       8.179   9.000  17.885  0.00  0.00    +0.000 C 
BRANCH  19  20
ATOM     20  C   UNL     1       8.942   9.942  18.816  0.00  0.00    +0.000 C 
BRANCH  20  21
ATOM     21  C   UNL     1       9.773  10.959  18.046  0.00  0.00    +0.000 C 
BRANCH  21  22
ATOM     22  C   UNL     1       9.935  12.221  18.876  0.00  0.00    +0.000 C 
BRANCH  22  23
ATOM     23  O   UNL     1       8.727  12.975  18.820  0.00  0.00    +0.000 OA
BRANCH  23  24
ATOM     24  C   UNL     1       8.769  14.028  19.781  0.00  0.00    +0.000 C 
BRANCH  24  26
ATOM     25  C   UNL     1       9.657  14.475  22.067  0.00  0.00    +0.000 C 
ATOM     26  C   UNL     1       9.927  13.794  20.737  0.00  0.00    +0.000 C 
ENDBRANCH  24  26
ENDBRANCH  23  24
ENDBRANCH  22  23
ENDBRANCH  21  22
ENDBRANCH  20  21
ENDBRANCH  19  20
ENDBRANCH  18  19
ENDBRANCH  17  18
ENDBRANCH   1  17
TORSDOF 10
ENDMDL
MODEL 5
REMARK VINA RESULT:      -6.9      1.035      1.229
REMARK  Name = 
REMARK  11 active torsions:
REMARK  status: ('A' for Active; 'I' for Inactive)
REMARK    1  A    between atoms: C_1  and  C_2
REMARK    2  A    between atoms: C_2  and  C_3
REMARK    3  A    between atoms: C_3  and  O_4
REMARK    4  A    between atoms: O_4  and  C_5
REMARK    5  A    between atoms: C_5  and  C_6
REMARK    6  A    between atoms: C_6  and  C_7
REMARK    7  A    between atoms: C_7  and  C_8
REMARK    8  A    between atoms: C_8  and  C_9
REMARK    9  A    between atoms: C_9  and  C_10
REMARK   10  A    between atoms: C_10  and  N_11
REMARK   11  A    between atoms: N_14  and  C_15
REMARK                            x       y       z     vdW  Elec       q    Type
REMARK                         _______ _______ _______ _____ _____    ______ ____
ROOT
ATOM      1  N   UNL     1       6.549   5.690  17.440  0.00  0.00    +0.000 N 
ATOM      2  C   UNL     1       5.686   5.238  18.394  0.00  0.00    +0.000 C 
ATOM      3  O   UNL     1       5.915   5.410  19.595  0.00  0.00    +0.000 OA
ATOM      4  N   UNL     1       4.590   4.568  17.924  0.00  0.00    +0.000 N 
ATOM      5  H   UNL     1       6.351   5.553  16.460  0.00  0.00    +0.000 HD
ATOM      6  H   UNL     1       4.457   4.497  16.924  0.00  0.00    +0.000 HD
ENDROOT
BRANCH   4   7
ATOM      7  C   UNL     1       3.536   4.057  18.831  0.00  0.00    +0.000 C 
ATOM      8  C   UNL     1       2.242   3.684  18.054  0.00  0.00    +0.000 C 
ATOM      9  C   UNL     1       1.165   3.134  19.000  0.00  0.00    +0.000 C 
ATOM     10  C   UNL     1       1.709   1.887  19.710  0.00  0.00    +0.000 C 
ATOM     11  C   UNL     1       2.956   2.250  20.535  0.00  0.00    +0.000 C 
ATOM     12  C   UNL     1       2.585   3.324  21.570  0.00  0.00    +0.000 C 
ATOM     13  C   UNL     1       2.064   4.579  20.855  0.00  0.00    +0.000 C 
ATOM     14  C   UNL     1       0.811   4.205  20.045  0.00  0.00    +0.000 C 
ATOM     15  C   UNL     1       3.153   5.119  19.905  0.00  0.00    +0.000 C 
ATOM     16  C   UNL     1       4.042   2.803  19.594  0.00  0.00    +0.000 C 
ENDBRANCH   4   7
BRANCH   1  17
ATOM     17  C   UNL     1       7.743   6.408  17.838  0.00  0.00    +0.000 C 
BRANCH  17  18
ATOM     18  C   UNL     1       7.680   7.903  17.512  0.00  0.00    +0.000 C 
BRANCH  18  19
ATOM     19  C   UNL     1       8.551   8.727  18.466  0.00  0.00    +0.000 C 
BRANCH  19  20
ATOM     20  C   UNL     1       8.584  10.201  18.066  0.00  0.00    +0.000 C 
BRANCH  20  21
ATOM     21  C   UNL     1       9.661  10.974  18.814  0.00  0.00    +0.000 C 
BRANCH  21  22
ATOM     22  C   UNL     1      10.701  11.485  17.832  0.00  0.00    +0.000 C 
BRANCH  22  23
ATOM     23  O   UNL     1      10.338  12.797  17.408  0.00  0.00    +0.000 OA
BRANCH  23  24
ATOM     24  C   UNL     1      11.434  13.407  16.732  0.00  0.00    +0.000 C 
BRANCH  24  26
ATOM     25  C   UNL     1      12.217  14.903  18.566  0.00  0.00    +0.000 C 
ATOM     26  C   UNL     1      11.573  14.849  17.192  0.00  0.00    +0.000 C 
ENDBRANCH  24  26
ENDBRANCH  23  24
ENDBRANCH  22  23
ENDBRANCH  21  22
ENDBRANCH  20  21
ENDBRANCH  19  20
ENDBRANCH  18  19
ENDBRANCH  17  18
ENDBRANCH   1  17
TORSDOF 10
ENDMDL
MODEL 6
REMARK VINA RESULT:      -6.9      0.910      1.925
REMARK  Name = 
REMARK  11 active torsions:
REMARK  status: ('A' for Active; 'I' for Inactive)
REMARK    1  A    between atoms: C_1  and  C_2
REMARK    2  A    between atoms: C_2  and  C_3
REMARK    3  A    between atoms: C_3  and  O_4
REMARK    4  A    between atoms: O_4  and  C_5
REMARK    5  A    between atoms: C_5  and  C_6
REMARK    6  A    between atoms: C_6  and  C_7
REMARK    7  A    between atoms: C_7  and  C_8
REMARK    8  A    between atoms: C_8  and  C_9
REMARK    9  A    between atoms: C_9  and  C_10
REMARK   10  A    between atoms: C_10  and  N_11
REMARK   11  A    between atoms: N_14  and  C_15
REMARK                            x       y       z     vdW  Elec       q    Type
REMARK                         _______ _______ _______ _____ _____    ______ ____
ROOT
ATOM      1  N   UNL     1       6.162   6.608  17.837  0.00  0.00    +0.000 N 
ATOM      2  C   UNL     1       5.503   5.554  18.397  0.00  0.00    +0.000 C 
ATOM      3  O   UNL     1       6.117   4.569  18.818  0.00  0.00    +0.000 OA
ATOM      4  N   UNL     1       4.140   5.663  18.426  0.00  0.00    +0.000 N 
ATOM      5  H   UNL     1       5.655   7.414  17.503  0.00  0.00    +0.000 HD
ATOM      6  H   UNL     1       3.715   6.517  18.091  0.00  0.00    +0.000 HD
ENDROOT
BRANCH   4   7
ATOM      7  C   UNL     1       3.285   4.624  19.045  0.00  0.00    +0.000 C 
ATOM      8  C   UNL     1       4.067   3.298  19.269  0.00  0.00    +0.000 C 
ATOM      9  C   UNL     1       3.178   2.235  19.932  0.00  0.00    +0.000 C 
ATOM     10  C   UNL     1       2.680   2.767  21.282  0.00  0.00    +0.000 C 
ATOM     11  C   UNL     1       1.852   4.046  21.073  0.00  0.00    +0.000 C 
ATOM     12  C   UNL     1       0.657   3.734  20.159  0.00  0.00    +0.000 C 
ATOM     13  C   UNL     1       1.159   3.225  18.800  0.00  0.00    +0.000 C 
ATOM     14  C   UNL     1       1.975   1.940  19.022  0.00  0.00    +0.000 C 
ATOM     15  C   UNL     1       2.054   4.299  18.147  0.00  0.00    +0.000 C 
ATOM     16  C   UNL     1       2.735   5.119  20.409  0.00  0.00    +0.000 C 
ENDBRANCH   4   7
BRANCH   1  17
ATOM     17  C   UNL     1       7.609   6.586  17.756  0.00  0.00    +0.000 C 
BRANCH  17  18
ATOM     18  C   UNL     1       8.268   7.763  18.481  0.00  0.00    +0.000 C 
BRANCH  18  19
ATOM     19  C   UNL     1       7.896   9.103  17.837  0.00  0.00    +0.000 C 
BRANCH  19  20
ATOM     20  C   UNL     1       8.964  10.165  18.090  0.00  0.00    +0.000 C 
BRANCH  20  21
ATOM     21  C   UNL     1       9.320  10.280  19.566  0.00  0.00    +0.000 C 
BRANCH  21  22
ATOM     22  C   UNL     1      10.068  11.578  19.813  0.00  0.00    +0.000 C 
BRANCH  22  23
ATOM     23  O   UNL     1      11.448  11.386  19.515  0.00  0.00    +0.000 OA
BRANCH  23  24
ATOM     24  C   UNL     1      11.944  12.500  18.776  0.00  0.00    +0.000 C 
BRANCH  24  26
ATOM     25  C   UNL     1      11.916  14.818  19.692  0.00  0.00    +0.000 C 
ATOM     26  C   UNL     1      11.081  13.719  19.060  0.00  0.00    +0.000 C 
ENDBRANCH  24  26
ENDBRANCH  23  24
ENDBRANCH  22  23
ENDBRANCH  21  22
ENDBRANCH  20  21
ENDBRANCH  19  20
ENDBRANCH  18  19
ENDBRANCH  17  18
ENDBRANCH   1  17
TORSDOF 10
ENDMDL
MODEL 7
REMARK VINA RESULT:      -6.9      1.324      1.832
REMARK  Name = 
REMARK  11 active torsions:
REMARK  status: ('A' for Active; 'I' for Inactive)
REMARK    1  A    between atoms: C_1  and  C_2
REMARK    2  A    between atoms: C_2  and  C_3
REMARK    3  A    between atoms: C_3  and  O_4
REMARK    4  A    between atoms: O_4  and  C_5
REMARK    5  A    between atoms: C_5  and  C_6
REMARK    6  A    between atoms: C_6  and  C_7
REMARK    7  A    between atoms: C_7  and  C_8
REMARK    8  A    between atoms: C_8  and  C_9
REMARK    9  A    between atoms: C_9  and  C_10
REMARK   10  A    between atoms: C_10  and  N_11
REMARK   11  A    between atoms: N_14  and  C_15
REMARK                            x       y       z     vdW  Elec       q    Type
REMARK                         _______ _______ _______ _____ _____    ______ ____
ROOT
ATOM      1  N   UNL     1       5.599   7.048  17.655  0.00  0.00    +0.000 N 
ATOM      2  C   UNL     1       5.053   5.854  18.023  0.00  0.00    +0.000 C 
ATOM      3  O   UNL     1       5.674   4.796  17.880  0.00  0.00    +0.000 OA
ATOM      4  N   UNL     1       3.781   5.920  18.523  0.00  0.00    +0.000 N 
ATOM      5  H   UNL     1       5.090   7.909  17.784  0.00  0.00    +0.000 HD
ATOM      6  H   UNL     1       3.353   6.829  18.639  0.00  0.00    +0.000 HD
ENDROOT
BRANCH   4   7
ATOM      7  C   UNL     1       3.069   4.717  19.010  0.00  0.00    +0.000 C 
ATOM      8  C   UNL     1       1.988   5.080  20.068  0.00  0.00    +0.000 C 
ATOM      9  C   UNL     1       1.240   3.828  20.550  0.00  0.00    +0.000 C 
ATOM     10  C   UNL     1       0.568   3.151  19.348  0.00  0.00    +0.000 C 
ATOM     11  C   UNL     1       1.629   2.729  18.317  0.00  0.00    +0.000 C 
ATOM     12  C   UNL     1       2.621   1.760  18.978  0.00  0.00    +0.000 C 
ATOM     13  C   UNL     1       3.310   2.448  20.165  0.00  0.00    +0.000 C 
ATOM     14  C   UNL     1       2.240   2.854  21.193  0.00  0.00    +0.000 C 
ATOM     15  C   UNL     1       4.054   3.706  19.670  0.00  0.00    +0.000 C 
ATOM     16  C   UNL     1       2.385   3.978  17.828  0.00  0.00    +0.000 C 
ENDBRANCH   4   7
BRANCH   1  17
ATOM     17  C   UNL     1       6.942   7.082  17.110  0.00  0.00    +0.000 C 
BRANCH  17  18
ATOM     18  C   UNL     1       7.963   7.698  18.071  0.00  0.00    +0.000 C 
BRANCH  18  19
ATOM     19  C   UNL     1       8.076   9.214  17.880  0.00  0.00    +0.000 C 
BRANCH  19  20
ATOM     20  C   UNL     1       9.056   9.835  18.874  0.00  0.00    +0.000 C 
BRANCH  20  21
ATOM     21  C   UNL     1       9.802  11.021  18.279  0.00  0.00    +0.000 C 
BRANCH  21  22
ATOM     22  C   UNL     1       8.809  12.080  17.834  0.00  0.00    +0.000 C 
BRANCH  22  23
ATOM     23  O   UNL     1       9.512  13.284  17.536  0.00  0.00    +0.000 OA
BRANCH  23  24
ATOM     24  C   UNL     1      10.245  13.712  18.681  0.00  0.00    +0.000 C 
BRANCH  24  26
ATOM     25  C   UNL     1       9.199  15.863  17.980  0.00  0.00    +0.000 C 
ATOM     26  C   UNL     1      10.405  15.223  18.644  0.00  0.00    +0.000 C 
ENDBRANCH  24  26
ENDBRANCH  23  24
ENDBRANCH  22  23
ENDBRANCH  21  22
ENDBRANCH  20  21
ENDBRANCH  19  20
ENDBRANCH  18  19
ENDBRANCH  17  18
ENDBRANCH   1  17
TORSDOF 10
ENDMDL
MODEL 8
REMARK VINA RESULT:      -6.9      1.396      1.729
REMARK  Name = 
REMARK  11 active torsions:
REMARK  status: ('A' for Active; 'I' for Inactive)
REMARK    1  A    between atoms: C_1  and  C_2
REMARK    2  A    between atoms: C_2  and  C_3
REMARK    3  A    between atoms: C_3  and  O_4
REMARK    4  A    between atoms: O_4  and  C_5
REMARK    5  A    between atoms: C_5  and  C_6
REMARK    6  A    between atoms: C_6  and  C_7
REMARK    7  A    between atoms: C_7  and  C_8
REMARK    8  A    between atoms: C_8  and  C_9
REMARK    9  A    between atoms: C_9  and  C_10
REMARK   10  A    between atoms: C_10  and  N_11
REMARK   11  A    between atoms: N_14  and  C_15
REMARK                            x       y       z     vdW  Elec       q    Type
REMARK                         _______ _______ _______ _____ _____    ______ ____
ROOT
ATOM      1  N   UNL     1       7.313   6.438  18.173  0.00  0.00    +0.000 N 
ATOM      2  C   UNL     1       6.012   6.039  18.098  0.00  0.00    +0.000 C 
ATOM      3  O   UNL     1       5.158   6.744  17.550  0.00  0.00    +0.000 OA
ATOM      4  N   UNL     1       5.731   4.839  18.692  0.00  0.00    +0.000 N 
ATOM      5  H   UNL     1       8.007   5.853  18.614  0.00  0.00    +0.000 HD
ATOM      6  H   UNL     1       6.491   4.306  19.092  0.00  0.00    +0.000 HD
ENDROOT
BRANCH   4   7
ATOM      7  C   UNL     1       4.374   4.247  18.655  0.00  0.00    +0.000 C 
ATOM      8  C   UNL     1       3.918   3.949  17.199  0.00  0.00    +0.000 C 
ATOM      9  C   UNL     1       2.520   3.314  17.173  0.00  0.00    +0.000 C 
ATOM     10  C   UNL     1       2.547   2.006  17.975  0.00  0.00    +0.000 C 
ATOM     11  C   UNL     1       2.937   2.290  19.436  0.00  0.00    +0.000 C 
ATOM     12  C   UNL     1       1.920   3.263  20.053  0.00  0.00    +0.000 C 
ATOM     13  C   UNL     1       1.912   4.579  19.263  0.00  0.00    +0.000 C 
ATOM     14  C   UNL     1       1.510   4.283  17.808  0.00  0.00    +0.000 C 
ATOM     15  C   UNL     1       3.323   5.205  19.292  0.00  0.00    +0.000 C 
ATOM     16  C   UNL     1       4.338   2.927  19.472  0.00  0.00    +0.000 C 
ENDBRANCH   4   7
BRANCH   1  17
ATOM     17  C   UNL     1       7.711   7.698  17.577  0.00  0.00    +0.000 C 
BRANCH  17  18
ATOM     18  C   UNL     1       8.566   8.559  18.511  0.00  0.00    +0.000 C 
BRANCH  18  19
ATOM     19  C   UNL     1       8.597  10.023  18.058  0.00  0.00    +0.000 C 
BRANCH  19  20
ATOM     20  C   UNL     1       9.664  10.820  18.807  0.00  0.00    +0.000 C 
BRANCH  20  21
ATOM     21  C   UNL     1       9.220  12.250  19.086  0.00  0.00    +0.000 C 
BRANCH  21  22
ATOM     22  C   UNL     1       9.011  12.987  17.775  0.00  0.00    +0.000 C 
BRANCH  22  23
ATOM     23  O   UNL     1      10.279  13.369  17.247  0.00  0.00    +0.000 OA
BRANCH  23  24
ATOM     24  C   UNL     1      10.601  14.692  17.671  0.00  0.00    +0.000 C 
BRANCH  24  26
ATOM     25  C   UNL     1      12.332  16.461  17.378  0.00  0.00    +0.000 C 
ATOM     26  C   UNL     1      12.071  14.966  17.400  0.00  0.00    +0.000 C 
ENDBRANCH  24  26
ENDBRANCH  23  24
ENDBRANCH  22  23
ENDBRANCH  21  22
ENDBRANCH  20  21
ENDBRANCH  19  20
ENDBRANCH  18  19
ENDBRANCH  17  18
ENDBRANCH   1  17
TORSDOF 10
ENDMDL
MODEL 9
REMARK VINA RESULT:      -6.8      1.930     10.506
REMARK  Name = 
REMARK  11 active torsions:
REMARK  status: ('A' for Active; 'I' for Inactive)
REMARK    1  A    between atoms: C_1  and  C_2
REMARK    2  A    between atoms: C_2  and  C_3
REMARK    3  A    between atoms: C_3  and  O_4
REMARK    4  A    between atoms: O_4  and  C_5
REMARK    5  A    between atoms: C_5  and  C_6
REMARK    6  A    between atoms: C_6  and  C_7
REMARK    7  A    between atoms: C_7  and  C_8
REMARK    8  A    between atoms: C_8  and  C_9
REMARK    9  A    between atoms: C_9  and  C_10
REMARK   10  A    between atoms: C_10  and  N_11
REMARK   11  A    between atoms: N_14  and  C_15
REMARK                            x       y       z     vdW  Elec       q    Type
REMARK                         _______ _______ _______ _____ _____    ______ ____
ROOT
ATOM      1  N   UNL     1       7.369   8.149  17.315  0.00  0.00    +0.000 N 
ATOM      2  C   UNL     1       8.241   8.911  18.035  0.00  0.00    +0.000 C 
ATOM      3  O   UNL     1       8.948   8.412  18.917  0.00  0.00    +0.000 OA
ATOM      4  N   UNL     1       8.247  10.244  17.729  0.00  0.00    +0.000 N 
ATOM      5  H   UNL     1       6.802   8.561  16.590  0.00  0.00    +0.000 HD
ATOM      6  H   UNL     1       7.662  10.569  16.971  0.00  0.00    +0.000 HD
ENDROOT
BRANCH   4   7
ATOM      7  C   UNL     1       9.171  11.194  18.389  0.00  0.00    +0.000 C 
ATOM      8  C   UNL     1      10.587  11.155  17.748  0.00  0.00    +0.000 C 
ATOM      9  C   UNL     1      11.531  12.160  18.424  0.00  0.00    +0.000 C 
ATOM     10  C   UNL     1      10.947  13.572  18.281  0.00  0.00    +0.000 C 
ATOM     11  C   UNL     1       9.571  13.647  18.964  0.00  0.00    +0.000 C 
ATOM     12  C   UNL     1       9.721  13.290  20.451  0.00  0.00    +0.000 C 
ATOM     13  C   UNL     1      10.283  11.867  20.591  0.00  0.00    +0.000 C 
ATOM     14  C   UNL     1      11.664  11.810  19.915  0.00  0.00    +0.000 C 
ATOM     15  C   UNL     1       9.329  10.868  19.904  0.00  0.00    +0.000 C 
ATOM     16  C   UNL     1       8.617  12.641  18.292  0.00  0.00    +0.000 C 
ENDBRANCH   4   7
BRANCH   1  17
ATOM     17  C   UNL     1       7.287   6.724  17.569  0.00  0.00    +0.000 C 
BRANCH  17  18
ATOM     18  C   UNL     1       5.873   6.262  17.934  0.00  0.00    +0.000 C 
BRANCH  18  19
ATOM     19  C   UNL     1       5.889   4.903  18.643  0.00  0.00    +0.000 C 
BRANCH  19  20
ATOM     20  C   UNL     1       4.502   4.263  18.662  0.00  0.00    +0.000 C 
BRANCH  20  21
ATOM     21  C   UNL     1       3.709   4.574  17.400  0.00  0.00    +0.000 C 
BRANCH  21  22
ATOM     22  C   UNL     1       2.281   4.082  17.557  0.00  0.00    +0.000 C 
BRANCH  22  23
ATOM     23  O   UNL     1       2.278   2.911  18.370  0.00  0.00    +0.000 OA
BRANCH  23  24
ATOM     24  C   UNL     1       0.993   2.738  18.965  0.00  0.00    +0.000 C 
BRANCH  24  26
ATOM     25  C   UNL     1       1.516   2.804  21.401  0.00  0.00    +0.000 C 
ATOM     26  C   UNL     1       0.909   3.566  20.237  0.00  0.00    +0.000 C 
ENDBRANCH  24  26
ENDBRANCH  23  24
ENDBRANCH  22  23
ENDBRANCH  21  22
ENDBRANCH  20  21
ENDBRANCH  19  20
ENDBRANCH  18  19
ENDBRANCH  17  18
ENDBRANCH   1  17
TORSDOF 10
ENDMDL
