MODEL 1
REMARK VINA RESULT:      -8.0      0.000      0.000
REMARK  Name = 
REMARK  13 active torsions:
REMARK  status: ('A' for Active; 'I' for Inactive)
REMARK    1  A    between atoms: C_6  and  C_7
REMARK    2  A    between atoms: C_7  and  C_8
REMARK    3  A    between atoms: C_8  and  C_9
REMARK    4  A    between atoms: C_9  and  C_10
REMARK    5  A    between atoms: C_10  and  C_11
REMARK    6  A    between atoms: C_14  and  C_15
REMARK    7  A    between atoms: N_17  and  CA_18
REMARK    8  A    between atoms: CA_18  and  CB_19
REMARK    9  A    between atoms: CA_18  and  C_24
REMARK   10  A    between atoms: CB_19  and  CG_20
REMARK   11  A    between atoms: CG_20  and  CD_21
REMARK   12  A    between atoms: CD_21  and  OE2_23
REMARK   13  A    between atoms: C_24  and  OXT_26
REMARK                            x       y       z     vdW  Elec       q    Type
REMARK                         _______ _______ _______ _____ _____    ______ ____
ROOT
ATOM      1  C   UNK A   0       2.091   6.645  19.831  0.00  0.00    +0.000 A 
ATOM      2  C   UNK A   0       2.444   6.969  18.535  0.00  0.00    +0.000 A 
ATOM      3  S   UNK A   0       2.128   8.604  18.151  0.00  0.00    +0.000 S 
ATOM      4  C   UNK A   0       1.512   8.929  19.719  0.00  0.00    +0.000 A 
ATOM      5  C   UNK A   0       1.539   7.786  20.481  0.00  0.00    +0.000 A 
ATOM      6  F   UNK A   0       1.114   7.748  21.718  0.00  0.00    +0.000 F 
ENDROOT
BRANCH   4   7
ATOM      7  C   UNK A   0       1.069  10.270  20.048  0.00  0.00    +0.000 C 
ATOM      8  O   UNK A   0       1.606  11.296  19.630  0.00  0.00    +0.000 OA
ATOM      9  N   GLU A   1      -0.035  10.349  20.871  0.00  0.00    +0.000 N 
ATOM     10  H   GLU A   1      -0.476   9.497  21.212  0.00  0.00    +0.000 HD
BRANCH   9  11
ATOM     11  CA  GLU A   1      -0.606  11.631  21.282  0.00  0.00    +0.000 C 
BRANCH  11  12
ATOM     12  C   GLU A   1      -1.145  11.452  22.704  0.00  0.00    +0.000 C 
ATOM     13  O   GLU A   1      -2.158  12.008  23.113  0.00  0.00    +0.000 OA
BRANCH  12  14
ATOM     14  OXT GLU A   1      -0.426  10.608  23.476  0.00  0.00    +0.000 OA
ATOM     15  HXT GLU A   1      -0.637   9.654  23.362  0.00  0.00    +0.000 HD
ENDBRANCH  12  14
ENDBRANCH  11  12
BRANCH  11  16
ATOM     16  CB  GLU A   1      -1.732  12.065  20.323  0.00  0.00    +0.000 C 
BRANCH  16  17
ATOM     17  CG  GLU A   1      -1.627  13.499  19.816  0.00  0.00    +0.000 C 
BRANCH  17  18
ATOM     18  CD  GLU A   1      -0.676  13.581  18.658  0.00  0.00    +0.000 C 
ATOM     19  OE1 GLU A   1       0.380  14.200  18.723  0.00  0.00    +0.000 OA
BRANCH  18  20
ATOM     20  OE2 GLU A   1      -1.035  12.842  17.592  0.00  0.00    +0.000 OA
ATOM     21  HE2 GLU A   1      -0.386  12.832  16.859  0.00  0.00    +0.000 HD
ENDBRANCH  18  20
ENDBRANCH  17  18
ENDBRANCH  16  17
ENDBRANCH  11  16
ENDBRANCH   9  11
ENDBRANCH   4   7
BRANCH   1  22
ATOM     22  C   UNK A   0       2.287   5.299  20.465  0.00  0.00    +0.000 C 
BRANCH  22  23
ATOM     23  C   UNK A   0       1.168   4.316  20.120  0.00  0.00    +0.000 C 
BRANCH  23  24
ATOM     24  C   UNK A   0       1.447   3.584  18.807  0.00  0.00    +0.000 C 
BRANCH  24  25
ATOM     25  C   UNK A   0       2.655   2.661  18.956  0.00  0.00    +0.000 C 
BRANCH  25  31
ATOM     26  N   UNK A   0       7.350   5.351  14.301  0.00  0.00    +0.000 N 
ATOM     27  C   UNK A   0       6.809   4.938  15.476  0.00  0.00    +0.000 A 
ATOM     28  N   UNK A   0       5.619   4.405  15.495  0.00  0.00    +0.000 NA
ATOM     29  C   UNK A   0       5.205   4.051  16.731  0.00  0.00    +0.000 A 
ATOM     30  N   UNK A   0       3.996   3.478  16.998  0.00  0.00    +0.000 N 
ATOM     31  C   UNK A   0       3.884   3.252  18.354  0.00  0.00    +0.000 A 
ATOM     32  C   UNK A   0       5.060   3.681  18.949  0.00  0.00    +0.000 A 
ATOM     33  C   UNK A   0       5.884   4.182  17.918  0.00  0.00    +0.000 A 
ATOM     34  C   UNK A   0       7.195   4.775  17.880  0.00  0.00    +0.000 A 
ATOM     35  O   UNK A   0       7.912   4.946  18.861  0.00  0.00    +0.000 OA
ATOM     36  N   UNK A   0       7.584   5.127  16.600  0.00  0.00    +0.000 N 
ATOM     37  H   UNK A   0       6.654   5.393  13.563  0.00  0.00    +0.000 HD
ATOM     38  H   UNK A   0       7.934   6.177  14.336  0.00  0.00    +0.000 HD
ATOM     39  H   UNK A   0       3.299   3.271  16.296  0.00  0.00    +0.000 HD
ATOM     40  H   UNK A   0       8.511   5.505  16.519  0.00  0.00    +0.000 HD
ENDBRANCH  25  31
ENDBRANCH  24  25
ENDBRANCH  23  24
ENDBRANCH  22  23
ENDBRANCH   1  22
TORSDOF 13
ENDMDL
MODEL 2
REMARK VINA RESULT:      -7.8      1.318      2.716
REMARK  Name = 
REMARK  13 active torsions:
REMARK  status: ('A' for Active; 'I' for Inactive)
REMARK    1  A    between atoms: C_6  and  C_7
REMARK    2  A    between atoms: C_7  and  C_8
REMARK    3  A    between atoms: C_8  and  C_9
REMARK    4  A    between atoms: C_9  and  C_10
REMARK    5  A    between atoms: C_10  and  C_11
REMARK    6  A    between atoms: C_14  and  C_15
REMARK    7  A    between atoms: N_17  and  CA_18
REMARK    8  A    between atoms: CA_18  and  CB_19
REMARK    9  A    between atoms: CA_18  and  C_24
REMARK   10  A    between atoms: CB_19  and  CG_20
REMARK   11  A    between atoms: CG_20  and  CD_21
REMARK   12  A    between atoms: CD_21  and  OE2_23
REMARK   13  A    between atoms: C_24  and  OXT_26
REMARK                            x       y       z     vdW  Elec       q    Type
REMARK                         _______ _______ _______ _____ _____    ______ ____
ROOT
ATOM      1  C   UNK A   0       2.171   6.824  19.845  0.00  0.00    +0.000 A 
ATOM      2  C   UNK A   0       2.746   6.986  18.599  0.00  0.00    +0.000 A 
ATOM      3  S   UNK A   0       2.289   8.450  17.843  0.00  0.00    +0.000 S 
ATOM      4  C   UNK A   0       1.308   8.914  19.172  0.00  0.00    +0.000 A 
ATOM      5  C   UNK A   0       1.333   7.938  20.140  0.00  0.00    +0.000 A 
ATOM      6  F   UNK A   0       0.661   8.030  21.258  0.00  0.00    +0.000 F 
ENDROOT
BRANCH   4   7
ATOM      7  C   UNK A   0       0.617  10.188  19.138  0.00  0.00    +0.000 C 
ATOM      8  O   UNK A   0      -0.598  10.310  18.986  0.00  0.00    +0.000 OA
ATOM      9  N   GLU A   1       1.412  11.303  19.307  0.00  0.00    +0.000 N 
ATOM     10  H   GLU A   1       2.416  11.195  19.435  0.00  0.00    +0.000 HD
BRANCH   9  11
ATOM     11  CA  GLU A   1       0.859  12.657  19.307  0.00  0.00    +0.000 C 
BRANCH  11  12
ATOM     12  C   GLU A   1       1.807  13.534  18.484  0.00  0.00    +0.000 C 
ATOM     13  O   GLU A   1       2.051  14.702  18.760  0.00  0.00    +0.000 OA
BRANCH  12  14
ATOM     14  OXT GLU A   1       2.378  12.909  17.431  0.00  0.00    +0.000 OA
ATOM     15  HXT GLU A   1       3.255  13.262  17.160  0.00  0.00    +0.000 HD
ENDBRANCH  12  14
ENDBRANCH  11  12
BRANCH  11  16
ATOM     16  CB  GLU A   1       0.728  13.198  20.745  0.00  0.00    +0.000 C 
BRANCH  16  17
ATOM     17  CG  GLU A   1      -0.641  13.000  21.383  0.00  0.00    +0.000 C 
BRANCH  17  18
ATOM     18  CD  GLU A   1      -0.631  11.809  22.298  0.00  0.00    +0.000 C 
ATOM     19  OE1 GLU A   1       0.304  11.018  22.328  0.00  0.00    +0.000 OA
BRANCH  18  20
ATOM     20  OE2 GLU A   1      -1.680  11.748  23.139  0.00  0.00    +0.000 OA
ATOM     21  HE2 GLU A   1      -1.452  11.817  24.088  0.00  0.00    +0.000 HD
ENDBRANCH  18  20
ENDBRANCH  17  18
ENDBRANCH  16  17
ENDBRANCH  11  16
ENDBRANCH   9  11
ENDBRANCH   4   7
BRANCH   1  22
ATOM     22  C   UNK A   0       2.417   5.661  20.761  0.00  0.00    +0.000 C 
BRANCH  22  23
ATOM     23  C   UNK A   0       1.533   4.457  20.436  0.00  0.00    +0.000 C 
BRANCH  23  24
ATOM     24  C   UNK A   0       2.163   3.570  19.362  0.00  0.00    +0.000 C 
BRANCH  24  25
ATOM     25  C   UNK A   0       3.591   3.189  19.754  0.00  0.00    +0.000 C 
BRANCH  25  31
ATOM     26  N   UNK A   0       7.469   5.197  14.108  0.00  0.00    +0.000 N 
ATOM     27  C   UNK A   0       7.014   5.125  15.385  0.00  0.00    +0.000 A 
ATOM     28  N   UNK A   0       6.059   4.293  15.692  0.00  0.00    +0.000 NA
ATOM     29  C   UNK A   0       5.700   4.337  16.994  0.00  0.00    +0.000 A 
ATOM     30  N   UNK A   0       4.724   3.560  17.545  0.00  0.00    +0.000 N 
ATOM     31  C   UNK A   0       4.602   3.858  18.886  0.00  0.00    +0.000 A 
ATOM     32  C   UNK A   0       5.538   4.835  19.185  0.00  0.00    +0.000 A 
ATOM     33  C   UNK A   0       6.222   5.129  17.986  0.00  0.00    +0.000 A 
ATOM     34  C   UNK A   0       7.274   6.046  17.630  0.00  0.00    +0.000 A 
ATOM     35  O   UNK A   0       7.833   6.805  18.416  0.00  0.00    +0.000 OA
ATOM     36  N   UNK A   0       7.612   5.975  16.291  0.00  0.00    +0.000 N 
ATOM     37  H   UNK A   0       6.847   4.723  13.462  0.00  0.00    +0.000 HD
ATOM     38  H   UNK A   0       7.754   6.110  13.778  0.00  0.00    +0.000 HD
ATOM     39  H   UNK A   0       4.176   2.884  17.028  0.00  0.00    +0.000 HD
ATOM     40  H   UNK A   0       8.373   6.565  16.006  0.00  0.00    +0.000 HD
ENDBRANCH  25  31
ENDBRANCH  24  25
ENDBRANCH  23  24
ENDBRANCH  22  23
ENDBRANCH   1  22
TORSDOF 13
ENDMDL
MODEL 3
REMARK VINA RESULT:      -7.8      1.403      2.074
REMARK  Name = 
REMARK  13 active torsions:
REMARK  status: ('A' for Active; 'I' for Inactive)
REMARK    1  A    between atoms: C_6  and  C_7
REMARK    2  A    between atoms: C_7  and  C_8
REMARK    3  A    between atoms: C_8  and  C_9
REMARK    4  A    between atoms: C_9  and  C_10
REMARK    5  A    between atoms: C_10  and  C_11
REMARK    6  A    between atoms: C_14  and  C_15
REMARK    7  A    between atoms: N_17  and  CA_18
REMARK    8  A    between atoms: CA_18  and  CB_19
REMARK    9  A    between atoms: CA_18  and  C_24
REMARK   10  A    between atoms: CB_19  and  CG_20
REMARK   11  A    between atoms: CG_20  and  CD_21
REMARK   12  A    between atoms: CD_21  and  OE2_23
REMARK   13  A    between atoms: C_24  and  OXT_26
REMARK                            x       y       z     vdW  Elec       q    Type
REMARK                         _______ _______ _______ _____ _____    ______ ____
ROOT
ATOM      1  C   UNK A   0       2.160   6.461  20.065  0.00  0.00    +0.000 A 
ATOM      2  C   UNK A   0       2.632   6.785  18.808  0.00  0.00    +0.000 A 
ATOM      3  S   UNK A   0       2.231   8.379  18.339  0.00  0.00    +0.000 S 
ATOM      4  C   UNK A   0       1.415   8.686  19.817  0.00  0.00    +0.000 A 
ATOM      5  C   UNK A   0       1.447   7.566  20.614  0.00  0.00    +0.000 A 
ATOM      6  F   UNK A   0       0.888   7.519  21.795  0.00  0.00    +0.000 F 
ENDROOT
BRANCH   4   7
ATOM      7  C   UNK A   0       0.831   9.992  20.052  0.00  0.00    +0.000 C 
ATOM      8  O   UNK A   0       0.572  10.441  21.168  0.00  0.00    +0.000 OA
ATOM      9  N   GLU A   1       0.583  10.747  18.924  0.00  0.00    +0.000 N 
ATOM     10  H   GLU A   1       0.802  10.370  18.004  0.00  0.00    +0.000 HD
BRANCH   9  11
ATOM     11  CA  GLU A   1       0.007  12.088  19.000  0.00  0.00    +0.000 C 
BRANCH  11  12
ATOM     12  C   GLU A   1      -1.340  12.045  18.275  0.00  0.00    +0.000 C 
ATOM     13  O   GLU A   1      -2.338  11.507  18.742  0.00  0.00    +0.000 OA
BRANCH  12  14
ATOM     14  OXT GLU A   1      -1.355  12.670  17.077  0.00  0.00    +0.000 OA
ATOM     15  HXT GLU A   1      -0.511  13.104  16.821  0.00  0.00    +0.000 HD
ENDBRANCH  12  14
ENDBRANCH  11  12
BRANCH  11  16
ATOM     16  CB  GLU A   1       0.942  13.127  18.348  0.00  0.00    +0.000 C 
BRANCH  16  17
ATOM     17  CG  GLU A   1       1.273  14.330  19.222  0.00  0.00    +0.000 C 
BRANCH  17  18
ATOM     18  CD  GLU A   1       0.027  15.096  19.561  0.00  0.00    +0.000 C 
ATOM     19  OE1 GLU A   1      -0.348  15.252  20.717  0.00  0.00    +0.000 OA
BRANCH  18  20
ATOM     20  OE2 GLU A   1      -0.575  15.671  18.504  0.00  0.00    +0.000 OA
ATOM     21  HE2 GLU A   1      -1.055  15.054  17.916  0.00  0.00    +0.000 HD
ENDBRANCH  18  20
ENDBRANCH  17  18
ENDBRANCH  16  17
ENDBRANCH  11  16
ENDBRANCH   9  11
ENDBRANCH   4   7
BRANCH   1  22
ATOM     22  C   UNK A   0       2.390   5.151  20.759  0.00  0.00    +0.000 C 
BRANCH  22  23
ATOM     23  C   UNK A   0       1.379   4.081  20.349  0.00  0.00    +0.000 C 
BRANCH  23  24
ATOM     24  C   UNK A   0       1.382   3.854  18.837  0.00  0.00    +0.000 C 
BRANCH  24  25
ATOM     25  C   UNK A   0       2.368   2.747  18.464  0.00  0.00    +0.000 C 
BRANCH  25  31
ATOM     26  N   UNK A   0       7.522   5.310  14.243  0.00  0.00    +0.000 N 
ATOM     27  C   UNK A   0       6.872   4.905  15.364  0.00  0.00    +0.000 A 
ATOM     28  N   UNK A   0       5.666   4.416  15.279  0.00  0.00    +0.000 NA
ATOM     29  C   UNK A   0       5.140   4.065  16.473  0.00  0.00    +0.000 A 
ATOM     30  N   UNK A   0       3.893   3.534  16.632  0.00  0.00    +0.000 N 
ATOM     31  C   UNK A   0       3.662   3.299  17.972  0.00  0.00    +0.000 A 
ATOM     32  C   UNK A   0       4.800   3.679  18.666  0.00  0.00    +0.000 A 
ATOM     33  C   UNK A   0       5.723   4.159  17.712  0.00  0.00    +0.000 A 
ATOM     34  C   UNK A   0       7.053   4.705  17.789  0.00  0.00    +0.000 A 
ATOM     35  O   UNK A   0       7.693   4.840  18.828  0.00  0.00    +0.000 OA
ATOM     36  N   UNK A   0       7.558   5.055  16.550  0.00  0.00    +0.000 N 
ATOM     37  H   UNK A   0       6.891   5.383  13.450  0.00  0.00    +0.000 HD
ATOM     38  H   UNK A   0       8.129   6.113  14.335  0.00  0.00    +0.000 HD
ATOM     39  H   UNK A   0       3.249   3.359  15.873  0.00  0.00    +0.000 HD
ATOM     40  H   UNK A   0       8.502   5.399  16.549  0.00  0.00    +0.000 HD
ENDBRANCH  25  31
ENDBRANCH  24  25
ENDBRANCH  23  24
ENDBRANCH  22  23
ENDBRANCH   1  22
TORSDOF 13
ENDMDL
MODEL 4
REMARK VINA RESULT:      -7.8      3.510     10.049
REMARK  Name = 
REMARK  13 active torsions:
REMARK  status: ('A' for Active; 'I' for Inactive)
REMARK    1  A    between atoms: C_6  and  C_7
REMARK    2  A    between atoms: C_7  and  C_8
REMARK    3  A    between atoms: C_8  and  C_9
REMARK    4  A    between atoms: C_9  and  C_10
REMARK    5  A    between atoms: C_10  and  C_11
REMARK    6  A    between atoms: C_14  and  C_15
REMARK    7  A    between atoms: N_17  and  CA_18
REMARK    8  A    between atoms: CA_18  and  CB_19
REMARK    9  A    between atoms: CA_18  and  C_24
REMARK   10  A    between atoms: CB_19  and  CG_20
REMARK   11  A    between atoms: CG_20  and  CD_21
REMARK   12  A    between atoms: CD_21  and  OE2_23
REMARK   13  A    between atoms: C_24  and  OXT_26
REMARK                            x       y       z     vdW  Elec       q    Type
REMARK                         _______ _______ _______ _____ _____    ______ ____
ROOT
ATOM      1  C   UNK A   0       1.772   5.897  20.524  0.00  0.00    +0.000 A 
ATOM      2  C   UNK A   0       1.203   4.643  20.643  0.00  0.00    +0.000 A 
ATOM      3  S   UNK A   0       2.130   3.421  19.888  0.00  0.00    +0.000 S 
ATOM      4  C   UNK A   0       3.329   4.540  19.383  0.00  0.00    +0.000 A 
ATOM      5  C   UNK A   0       2.982   5.811  19.778  0.00  0.00    +0.000 A 
ATOM      6  F   UNK A   0       3.716   6.860  19.512  0.00  0.00    +0.000 F 
ENDROOT
BRANCH   4   7
ATOM      7  C   UNK A   0       4.490   4.063  18.658  0.00  0.00    +0.000 C 
ATOM      8  O   UNK A   0       5.149   3.076  18.983  0.00  0.00    +0.000 OA
ATOM      9  N   GLU A   1       4.828   4.785  17.531  0.00  0.00    +0.000 N 
ATOM     10  H   GLU A   1       4.277   5.599  17.266  0.00  0.00    +0.000 HD
BRANCH   9  11
ATOM     11  CA  GLU A   1       5.966   4.420  16.690  0.00  0.00    +0.000 C 
BRANCH  11  12
ATOM     12  C   GLU A   1       7.198   5.124  17.265  0.00  0.00    +0.000 C 
ATOM     13  O   GLU A   1       7.937   4.612  18.098  0.00  0.00    +0.000 OA
BRANCH  12  14
ATOM     14  OXT GLU A   1       7.427   6.357  16.762  0.00  0.00    +0.000 OA
ATOM     15  HXT GLU A   1       6.816   7.059  17.080  0.00  0.00    +0.000 HD
ENDBRANCH  12  14
ENDBRANCH  11  12
BRANCH  11  16
ATOM     16  CB  GLU A   1       5.729   4.847  15.227  0.00  0.00    +0.000 C 
BRANCH  16  17
ATOM     17  CG  GLU A   1       6.225   3.856  14.181  0.00  0.00    +0.000 C 
BRANCH  17  18
ATOM     18  CD  GLU A   1       7.055   4.555  13.143  0.00  0.00    +0.000 C 
ATOM     19  OE1 GLU A   1       7.730   5.543  13.404  0.00  0.00    +0.000 OA
BRANCH  18  20
ATOM     20  OE2 GLU A   1       7.068   3.946  11.942  0.00  0.00    +0.000 OA
ATOM     21  HE2 GLU A   1       6.377   3.265  11.817  0.00  0.00    +0.000 HD
ENDBRANCH  18  20
ENDBRANCH  17  18
ENDBRANCH  16  17
ENDBRANCH  11  16
ENDBRANCH   9  11
ENDBRANCH   4   7
BRANCH   1  22
ATOM     22  C   UNK A   0       1.211   7.156  21.118  0.00  0.00    +0.000 C 
BRANCH  22  23
ATOM     23  C   UNK A   0       1.279   8.342  20.156  0.00  0.00    +0.000 C 
BRANCH  23  24
ATOM     24  C   UNK A   0       0.353   9.477  20.596  0.00  0.00    +0.000 C 
BRANCH  24  25
ATOM     25  C   UNK A   0       0.406  10.628  19.592  0.00  0.00    +0.000 C 
BRANCH  25  31
ATOM     26  N   UNK A   0      -6.094  12.123  17.049  0.00  0.00    +0.000 N 
ATOM     27  C   UNK A   0      -4.844  11.600  17.133  0.00  0.00    +0.000 A 
ATOM     28  N   UNK A   0      -4.109  11.831  18.185  0.00  0.00    +0.000 NA
ATOM     29  C   UNK A   0      -2.887  11.258  18.127  0.00  0.00    +0.000 A 
ATOM     30  N   UNK A   0      -1.946  11.362  19.108  0.00  0.00    +0.000 N 
ATOM     31  C   UNK A   0      -0.812  10.672  18.733  0.00  0.00    +0.000 A 
ATOM     32  C   UNK A   0      -1.057  10.107  17.491  0.00  0.00    +0.000 A 
ATOM     33  C   UNK A   0      -2.366  10.484  17.120  0.00  0.00    +0.000 A 
ATOM     34  C   UNK A   0      -3.189  10.242  15.964  0.00  0.00    +0.000 A 
ATOM     35  O   UNK A   0      -2.852   9.565  14.997  0.00  0.00    +0.000 OA
ATOM     36  N   UNK A   0      -4.429  10.845  16.057  0.00  0.00    +0.000 N 
ATOM     37  H   UNK A   0      -6.248  12.840  17.753  0.00  0.00    +0.000 HD
ATOM     38  H   UNK A   0      -6.408  12.404  16.130  0.00  0.00    +0.000 HD
ATOM     39  H   UNK A   0      -2.075  11.882  19.966  0.00  0.00    +0.000 HD
ATOM     40  H   UNK A   0      -5.056  10.667  15.292  0.00  0.00    +0.000 HD
ENDBRANCH  25  31
ENDBRANCH  24  25
ENDBRANCH  23  24
ENDBRANCH  22  23
ENDBRANCH   1  22
TORSDOF 13
ENDMDL
MODEL 5
REMARK VINA RESULT:      -7.8      1.876      2.645
REMARK  Name = 
REMARK  13 active torsions:
REMARK  status: ('A' for Active; 'I' for Inactive)
REMARK    1  A    between atoms: C_6  and  C_7
REMARK    2  A    between atoms: C_7  and  C_8
REMARK    3  A    between atoms: C_8  and  C_9
REMARK    4  A    between atoms: C_9  and  C_10
REMARK    5  A    between atoms: C_10  and  C_11
REMARK    6  A    between atoms: C_14  and  C_15
REMARK    7  A    between atoms: N_17  and  CA_18
REMARK    8  A    between atoms: CA_18  and  CB_19
REMARK    9  A    between atoms: CA_18  and  C_24
REMARK   10  A    between atoms: CB_19  and  CG_20
REMARK   11  A    between atoms: CG_20  and  CD_21
REMARK   12  A    between atoms: CD_21  and  OE2_23
REMARK   13  A    between atoms: C_24  and  OXT_26
REMARK                            x       y       z     vdW  Elec       q    Type
REMARK                         _______ _______ _______ _____ _____    ______ ____
ROOT
ATOM      1  C   UNK A   0       2.109   6.282  19.856  0.00  0.00    +0.000 A 
ATOM      2  C   UNK A   0       2.492   6.787  18.627  0.00  0.00    +0.000 A 
ATOM      3  S   UNK A   0       2.138   8.451  18.455  0.00  0.00    +0.000 S 
ATOM      4  C   UNK A   0       1.466   8.545  20.031  0.00  0.00    +0.000 A 
ATOM      5  C   UNK A   0       1.504   7.310  20.634  0.00  0.00    +0.000 A 
ATOM      6  F   UNK A   0       1.043   7.095  21.838  0.00  0.00    +0.000 F 
ENDROOT
BRANCH   4   7
ATOM      7  C   UNK A   0       0.973   9.818  20.521  0.00  0.00    +0.000 C 
ATOM      8  O   UNK A   0       1.176  10.244  21.657  0.00  0.00    +0.000 OA
ATOM      9  N   GLU A   1       0.251  10.567  19.615  0.00  0.00    +0.000 N 
ATOM     10  H   GLU A   1       0.088  10.210  18.676  0.00  0.00    +0.000 HD
BRANCH   9  11
ATOM     11  CA  GLU A   1      -0.301  11.877  19.959  0.00  0.00    +0.000 C 
BRANCH  11  12
ATOM     12  C   GLU A   1      -1.397  12.189  18.936  0.00  0.00    +0.000 C 
ATOM     13  O   GLU A   1      -1.531  11.574  17.885  0.00  0.00    +0.000 OA
BRANCH  12  14
ATOM     14  OXT GLU A   1      -2.229  13.192  19.293  0.00  0.00    +0.000 OA
ATOM     15  HXT GLU A   1      -2.844  13.497  18.588  0.00  0.00    +0.000 HD
ENDBRANCH  12  14
ENDBRANCH  11  12
BRANCH  11  16
ATOM     16  CB  GLU A   1       0.795  12.961  19.931  0.00  0.00    +0.000 C 
BRANCH  16  17
ATOM     17  CG  GLU A   1       1.103  13.527  18.551  0.00  0.00    +0.000 C 
BRANCH  17  18
ATOM     18  CD  GLU A   1       2.446  13.056  18.074  0.00  0.00    +0.000 C 
ATOM     19  OE1 GLU A   1       3.472  13.694  18.278  0.00  0.00    +0.000 OA
BRANCH  18  20
ATOM     20  OE2 GLU A   1       2.435  11.839  17.499  0.00  0.00    +0.000 OA
ATOM     21  HE2 GLU A   1       3.202  11.272  17.716  0.00  0.00    +0.000 HD
ENDBRANCH  18  20
ENDBRANCH  17  18
ENDBRANCH  16  17
ENDBRANCH  11  16
ENDBRANCH   9  11
ENDBRANCH   4   7
BRANCH   1  22
ATOM     22  C   UNK A   0       2.326   4.869  20.310  0.00  0.00    +0.000 C 
BRANCH  22  23
ATOM     23  C   UNK A   0       1.745   3.842  19.339  0.00  0.00    +0.000 C 
BRANCH  23  24
ATOM     24  C   UNK A   0       2.404   2.472  19.505  0.00  0.00    +0.000 C 
BRANCH  24  25
ATOM     25  C   UNK A   0       3.326   2.176  18.323  0.00  0.00    +0.000 C 
BRANCH  25  31
ATOM     26  N   UNK A   0       8.518   7.041  18.900  0.00  0.00    +0.000 N 
ATOM     27  C   UNK A   0       7.482   6.333  18.381  0.00  0.00    +0.000 A 
ATOM     28  N   UNK A   0       6.930   5.378  19.077  0.00  0.00    +0.000 NA
ATOM     29  C   UNK A   0       5.920   4.754  18.432  0.00  0.00    +0.000 A 
ATOM     30  N   UNK A   0       5.196   3.725  18.960  0.00  0.00    +0.000 N 
ATOM     31  C   UNK A   0       4.252   3.311  18.044  0.00  0.00    +0.000 A 
ATOM     32  C   UNK A   0       4.378   4.112  16.920  0.00  0.00    +0.000 A 
ATOM     33  C   UNK A   0       5.431   5.017  17.177  0.00  0.00    +0.000 A 
ATOM     34  C   UNK A   0       6.054   6.071  16.420  0.00  0.00    +0.000 A 
ATOM     35  O   UNK A   0       5.714   6.415  15.291  0.00  0.00    +0.000 OA
ATOM     36  N   UNK A   0       7.084   6.685  17.109  0.00  0.00    +0.000 N 
ATOM     37  H   UNK A   0       8.901   6.592  19.726  0.00  0.00    +0.000 HD
ATOM     38  H   UNK A   0       9.233   7.341  18.251  0.00  0.00    +0.000 HD
ATOM     39  H   UNK A   0       5.353   3.333  19.878  0.00  0.00    +0.000 HD
ATOM     40  H   UNK A   0       7.520   7.457  16.637  0.00  0.00    +0.000 HD
ENDBRANCH  25  31
ENDBRANCH  24  25
ENDBRANCH  23  24
ENDBRANCH  22  23
ENDBRANCH   1  22
TORSDOF 13
ENDMDL
MODEL 6
REMARK VINA RESULT:      -7.6      1.500      2.434
REMARK  Name = 
REMARK  13 active torsions:
REMARK  status: ('A' for Active; 'I' for Inactive)
REMARK    1  A    between atoms: C_6  and  C_7
REMARK    2  A    between atoms: C_7  and  C_8
REMARK    3  A    between atoms: C_8  and  C_9
REMARK    4  A    between atoms: C_9  and  C_10
REMARK    5  A    between atoms: C_10  and  C_11
REMARK    6  A    between atoms: C_14  and  C_15
REMARK    7  A    between atoms: N_17  and  CA_18
REMARK    8  A    between atoms: CA_18  and  CB_19
REMARK    9  A    between atoms: CA_18  and  C_24
REMARK   10  A    between atoms: CB_19  and  CG_20
REMARK   11  A    between atoms: CG_20  and  CD_21
REMARK   12  A    between atoms: CD_21  and  OE2_23
REMARK   13  A    between atoms: C_24  and  OXT_26
REMARK                            x       y       z     vdW  Elec       q    Type
REMARK                         _______ _______ _______ _____ _____    ______ ____
ROOT
ATOM      1  C   UNK A   0       2.267   6.843  19.732  0.00  0.00    +0.000 A 
ATOM      2  C   UNK A   0       2.442   7.258  18.425  0.00  0.00    +0.000 A 
ATOM      3  S   UNK A   0       1.885   8.852  18.156  0.00  0.00    +0.000 S 
ATOM      4  C   UNK A   0       1.398   9.035  19.791  0.00  0.00    +0.000 A 
ATOM      5  C   UNK A   0       1.646   7.877  20.489  0.00  0.00    +0.000 A 
ATOM      6  F   UNK A   0       1.358   7.738  21.757  0.00  0.00    +0.000 F 
ENDROOT
BRANCH   4   7
ATOM      7  C   UNK A   0       0.827  10.294  20.228  0.00  0.00    +0.000 C 
ATOM      8  O   UNK A   0       0.485  10.531  21.387  0.00  0.00    +0.000 OA
ATOM      9  N   GLU A   1       0.693  11.260  19.252  0.00  0.00    +0.000 N 
ATOM     10  H   GLU A   1       0.980  11.058  18.296  0.00  0.00    +0.000 HD
BRANCH   9  11
ATOM     11  CA  GLU A   1       0.145  12.584  19.541  0.00  0.00    +0.000 C 
BRANCH  11  12
ATOM     12  C   GLU A   1      -0.730  12.983  18.349  0.00  0.00    +0.000 C 
ATOM     13  O   GLU A   1      -1.457  12.195  17.756  0.00  0.00    +0.000 OA
BRANCH  12  14
ATOM     14  OXT GLU A   1      -0.656  14.289  18.010  0.00  0.00    +0.000 OA
ATOM     15  HXT GLU A   1      -0.524  14.466  17.052  0.00  0.00    +0.000 HD
ENDBRANCH  12  14
ENDBRANCH  11  12
BRANCH  11  16
ATOM     16  CB  GLU A   1       1.273  13.612  19.757  0.00  0.00    +0.000 C 
BRANCH  16  17
ATOM     17  CG  GLU A   1       2.546  13.345  18.964  0.00  0.00    +0.000 C 
BRANCH  17  18
ATOM     18  CD  GLU A   1       3.111  14.627  18.424  0.00  0.00    +0.000 C 
ATOM     19  OE1 GLU A   1       4.292  14.741  18.118  0.00  0.00    +0.000 OA
BRANCH  18  20
ATOM     20  OE2 GLU A   1       2.196  15.592  18.215  0.00  0.00    +0.000 OA
ATOM     21  HE2 GLU A   1       1.655  15.480  17.408  0.00  0.00    +0.000 HD
ENDBRANCH  18  20
ENDBRANCH  17  18
ENDBRANCH  16  17
ENDBRANCH  11  16
ENDBRANCH   9  11
ENDBRANCH   4   7
BRANCH   1  22
ATOM     22  C   UNK A   0       2.694   5.511  20.275  0.00  0.00    +0.000 C 
BRANCH  22  23
ATOM     23  C   UNK A   0       1.599   4.450  20.164  0.00  0.00    +0.000 C 
BRANCH  23  24
ATOM     24  C   UNK A   0       2.135   3.147  19.572  0.00  0.00    +0.000 C 
BRANCH  24  25
ATOM     25  C   UNK A   0       2.207   3.243  18.048  0.00  0.00    +0.000 C 
BRANCH  25  31
ATOM     26  N   UNK A   0       7.635   5.463  13.979  0.00  0.00    +0.000 N 
ATOM     27  C   UNK A   0       6.946   5.034  15.068  0.00  0.00    +0.000 A 
ATOM     28  N   UNK A   0       5.678   4.748  14.967  0.00  0.00    +0.000 NA
ATOM     29  C   UNK A   0       5.120   4.345  16.130  0.00  0.00    +0.000 A 
ATOM     30  N   UNK A   0       3.809   3.995  16.269  0.00  0.00    +0.000 N 
ATOM     31  C   UNK A   0       3.564   3.644  17.580  0.00  0.00    +0.000 A 
ATOM     32  C   UNK A   0       4.757   3.762  18.276  0.00  0.00    +0.000 A 
ATOM     33  C   UNK A   0       5.729   4.204  17.353  0.00  0.00    +0.000 A 
ATOM     34  C   UNK A   0       7.128   4.528  17.448  0.00  0.00    +0.000 A 
ATOM     35  O   UNK A   0       7.796   4.442  18.475  0.00  0.00    +0.000 OA
ATOM     36  N   UNK A   0       7.663   4.938  16.241  0.00  0.00    +0.000 N 
ATOM     37  H   UNK A   0       7.012   5.724  13.221  0.00  0.00    +0.000 HD
ATOM     38  H   UNK A   0       8.361   6.148  14.142  0.00  0.00    +0.000 HD
ATOM     39  H   UNK A   0       3.135   4.011  15.516  0.00  0.00    +0.000 HD
ATOM     40  H   UNK A   0       8.649   5.133  16.249  0.00  0.00    +0.000 HD
ENDBRANCH  25  31
ENDBRANCH  24  25
ENDBRANCH  23  24
ENDBRANCH  22  23
ENDBRANCH   1  22
TORSDOF 13
ENDMDL
MODEL 7
REMARK VINA RESULT:      -7.5      3.392     10.082
REMARK  Name = 
REMARK  13 active torsions:
REMARK  status: ('A' for Active; 'I' for Inactive)
REMARK    1  A    between atoms: C_6  and  C_7
REMARK    2  A    between atoms: C_7  and  C_8
REMARK    3  A    between atoms: C_8  and  C_9
REMARK    4  A    between atoms: C_9  and  C_10
REMARK    5  A    between atoms: C_10  and  C_11
REMARK    6  A    between atoms: C_14  and  C_15
REMARK    7  A    between atoms: N_17  and  CA_18
REMARK    8  A    between atoms: CA_18  and  CB_19
REMARK    9  A    between atoms: CA_18  and  C_24
REMARK   10  A    between atoms: CB_19  and  CG_20
REMARK   11  A    between atoms: CG_20  and  CD_21
REMARK   12  A    between atoms: CD_21  and  OE2_23
REMARK   13  A    between atoms: C_24  and  OXT_26
REMARK                            x       y       z     vdW  Elec       q    Type
REMARK                         _______ _______ _______ _____ _____    ______ ____
ROOT
ATOM      1  C   UNK A   0       1.821   5.840  20.153  0.00  0.00    +0.000 A 
ATOM      2  C   UNK A   0       1.041   4.707  20.287  0.00  0.00    +0.000 A 
ATOM      3  S   UNK A   0       1.623   3.390  19.365  0.00  0.00    +0.000 S 
ATOM      4  C   UNK A   0       2.946   4.301  18.763  0.00  0.00    +0.000 A 
ATOM      5  C   UNK A   0       2.897   5.583  19.255  0.00  0.00    +0.000 A 
ATOM      6  F   UNK A   0       3.782   6.496  18.946  0.00  0.00    +0.000 F 
ENDROOT
BRANCH   4   7
ATOM      7  C   UNK A   0       3.902   3.669  17.875  0.00  0.00    +0.000 C 
ATOM      8  O   UNK A   0       3.980   2.453  17.698  0.00  0.00    +0.000 OA
ATOM      9  N   GLU A   1       4.744   4.526  17.196  0.00  0.00    +0.000 N 
ATOM     10  H   GLU A   1       4.672   5.531  17.345  0.00  0.00    +0.000 HD
BRANCH   9  11
ATOM     11  CA  GLU A   1       5.753   4.040  16.257  0.00  0.00    +0.000 C 
BRANCH  11  12
ATOM     12  C   GLU A   1       7.063   4.761  16.585  0.00  0.00    +0.000 C 
ATOM     13  O   GLU A   1       8.063   4.184  16.996  0.00  0.00    +0.000 OA
BRANCH  12  14
ATOM     14  OXT GLU A   1       7.041   6.094  16.364  0.00  0.00    +0.000 OA
ATOM     15  HXT GLU A   1       6.732   6.365  15.471  0.00  0.00    +0.000 HD
ENDBRANCH  12  14
ENDBRANCH  11  12
BRANCH  11  16
ATOM     16  CB  GLU A   1       5.329   4.317  14.801  0.00  0.00    +0.000 C 
BRANCH  16  17
ATOM     17  CG  GLU A   1       6.397   4.025  13.755  0.00  0.00    +0.000 C 
BRANCH  17  18
ATOM     18  CD  GLU A   1       5.791   3.369  12.548  0.00  0.00    +0.000 C 
ATOM     19  OE1 GLU A   1       4.655   3.627  12.168  0.00  0.00    +0.000 OA
BRANCH  18  20
ATOM     20  OE2 GLU A   1       6.631   2.562  11.874  0.00  0.00    +0.000 OA
ATOM     21  HE2 GLU A   1       6.826   1.710  12.314  0.00  0.00    +0.000 HD
ENDBRANCH  18  20
ENDBRANCH  17  18
ENDBRANCH  16  17
ENDBRANCH  11  16
ENDBRANCH   9  11
ENDBRANCH   4   7
BRANCH   1  22
ATOM     22  C   UNK A   0       1.584   7.137  20.869  0.00  0.00    +0.000 C 
BRANCH  22  23
ATOM     23  C   UNK A   0       0.874   8.172  19.997  0.00  0.00    +0.000 C 
BRANCH  23  24
ATOM     24  C   UNK A   0       1.870   9.094  19.294  0.00  0.00    +0.000 C 
BRANCH  24  25
ATOM     25  C   UNK A   0       1.290   9.599  17.973  0.00  0.00    +0.000 C 
BRANCH  25  31
ATOM     26  N   UNK A   0      -5.552  11.468  17.169  0.00  0.00    +0.000 N 
ATOM     27  C   UNK A   0      -4.297  11.404  17.683  0.00  0.00    +0.000 A 
ATOM     28  N   UNK A   0      -3.388  10.675  17.097  0.00  0.00    +0.000 NA
ATOM     29  C   UNK A   0      -2.191  10.697  17.723  0.00  0.00    +0.000 A 
ATOM     30  N   UNK A   0      -1.092  10.011  17.296  0.00  0.00    +0.000 N 
ATOM     31  C   UNK A   0      -0.042  10.241  18.161  0.00  0.00    +0.000 A 
ATOM     32  C   UNK A   0      -0.493  11.107  19.146  0.00  0.00    +0.000 A 
ATOM     33  C   UNK A   0      -1.846  11.386  18.859  0.00  0.00    +0.000 A 
ATOM     34  C   UNK A   0      -2.862  12.184  19.496  0.00  0.00    +0.000 A 
ATOM     35  O   UNK A   0      -2.690  12.853  20.510  0.00  0.00    +0.000 OA
ATOM     36  N   UNK A   0      -4.073  12.135  18.830  0.00  0.00    +0.000 N 
ATOM     37  H   UNK A   0      -5.709  10.746  16.473  0.00  0.00    +0.000 HD
ATOM     38  H   UNK A   0      -6.311  11.543  17.833  0.00  0.00    +0.000 HD
ATOM     39  H   UNK A   0      -1.075   9.420  16.476  0.00  0.00    +0.000 HD
ATOM     40  H   UNK A   0      -4.801  12.712  19.213  0.00  0.00    +0.000 HD
ENDBRANCH  25  31
ENDBRANCH  24  25
ENDBRANCH  23  24
ENDBRANCH  22  23
ENDBRANCH   1  22
TORSDOF 13
ENDMDL
MODEL 8
REMARK VINA RESULT:      -7.5      1.420      1.933
REMARK  Name = 
REMARK  13 active torsions:
REMARK  status: ('A' for Active; 'I' for Inactive)
REMARK    1  A    between atoms: C_6  and  C_7
REMARK    2  A    between atoms: C_7  and  C_8
REMARK    3  A    between atoms: C_8  and  C_9
REMARK    4  A    between atoms: C_9  and  C_10
REMARK    5  A    between atoms: C_10  and  C_11
REMARK    6  A    between atoms: C_14  and  C_15
REMARK    7  A    between atoms: N_17  and  CA_18
REMARK    8  A    between atoms: CA_18  and  CB_19
REMARK    9  A    between atoms: CA_18  and  C_24
REMARK   10  A    between atoms: CB_19  and  CG_20
REMARK   11  A    between atoms: CG_20  and  CD_21
REMARK   12  A    between atoms: CD_21  and  OE2_23
REMARK   13  A    between atoms: C_24  and  OXT_26
REMARK                            x       y       z     vdW  Elec       q    Type
REMARK                         _______ _______ _______ _____ _____    ______ ____
ROOT
ATOM      1  C   UNK A   0       2.107   6.771  19.994  0.00  0.00    +0.000 A 
ATOM      2  C   UNK A   0       2.479   7.131  18.712  0.00  0.00    +0.000 A 
ATOM      3  S   UNK A   0       1.959   8.704  18.289  0.00  0.00    +0.000 S 
ATOM      4  C   UNK A   0       1.223   8.951  19.818  0.00  0.00    +0.000 A 
ATOM      5  C   UNK A   0       1.369   7.828  20.598  0.00  0.00    +0.000 A 
ATOM      6  F   UNK A   0       0.889   7.741  21.812  0.00  0.00    +0.000 F 
ENDROOT
BRANCH   4   7
ATOM      7  C   UNK A   0       0.581  10.219  20.105  0.00  0.00    +0.000 C 
ATOM      8  O   UNK A   0       0.826  10.908  21.095  0.00  0.00    +0.000 OA
ATOM      9  N   GLU A   1      -0.342  10.646  19.172  0.00  0.00    +0.000 N 
ATOM     10  H   GLU A   1      -0.537  10.073  18.354  0.00  0.00    +0.000 HD
BRANCH   9  11
ATOM     11  CA  GLU A   1      -1.062  11.910  19.316  0.00  0.00    +0.000 C 
BRANCH  11  12
ATOM     12  C   GLU A   1      -2.491  11.676  18.819  0.00  0.00    +0.000 C 
ATOM     13  O   GLU A   1      -2.853  10.638  18.278  0.00  0.00    +0.000 OA
BRANCH  12  14
ATOM     14  OXT GLU A   1      -3.340  12.703  19.046  0.00  0.00    +0.000 OA
ATOM     15  HXT GLU A   1      -2.952  13.599  18.934  0.00  0.00    +0.000 HD
ENDBRANCH  12  14
ENDBRANCH  11  12
BRANCH  11  16
ATOM     16  CB  GLU A   1      -0.380  13.029  18.503  0.00  0.00    +0.000 C 
BRANCH  16  17
ATOM     17  CG  GLU A   1       0.597  13.891  19.293  0.00  0.00    +0.000 C 
BRANCH  17  18
ATOM     18  CD  GLU A   1       0.562  15.311  18.806  0.00  0.00    +0.000 C 
ATOM     19  OE1 GLU A   1       1.579  15.919  18.496  0.00  0.00    +0.000 OA
BRANCH  18  20
ATOM     20  OE2 GLU A   1      -0.677  15.813  18.649  0.00  0.00    +0.000 OA
ATOM     21  HE2 GLU A   1      -1.362  15.404  19.215  0.00  0.00    +0.000 HD
ENDBRANCH  18  20
ENDBRANCH  17  18
ENDBRANCH  16  17
ENDBRANCH  11  16
ENDBRANCH   9  11
ENDBRANCH   4   7
BRANCH   1  22
ATOM     22  C   UNK A   0       2.455   5.471  20.656  0.00  0.00    +0.000 C 
BRANCH  22  23
ATOM     23  C   UNK A   0       1.491   4.344  20.286  0.00  0.00    +0.000 C 
BRANCH  23  24
ATOM     24  C   UNK A   0       1.914   3.642  18.996  0.00  0.00    +0.000 C 
BRANCH  24  25
ATOM     25  C   UNK A   0       3.252   2.930  19.189  0.00  0.00    +0.000 C 
BRANCH  25  31
ATOM     26  N   UNK A   0       7.540   5.244  13.972  0.00  0.00    +0.000 N 
ATOM     27  C   UNK A   0       7.021   5.063  15.214  0.00  0.00    +0.000 A 
ATOM     28  N   UNK A   0       5.988   4.285  15.382  0.00  0.00    +0.000 NA
ATOM     29  C   UNK A   0       5.574   4.207  16.666  0.00  0.00    +0.000 A 
ATOM     30  N   UNK A   0       4.514   3.457  17.083  0.00  0.00    +0.000 N 
ATOM     31  C   UNK A   0       4.353   3.606  18.445  0.00  0.00    +0.000 A 
ATOM     32  C   UNK A   0       5.349   4.460  18.894  0.00  0.00    +0.000 A 
ATOM     33  C   UNK A   0       6.111   4.831  17.765  0.00  0.00    +0.000 A 
ATOM     34  C   UNK A   0       7.248   5.690  17.561  0.00  0.00    +0.000 A 
ATOM     35  O   UNK A   0       7.829   6.303  18.452  0.00  0.00    +0.000 OA
ATOM     36  N   UNK A   0       7.642   5.747  16.236  0.00  0.00    +0.000 N 
ATOM     37  H   UNK A   0       6.912   4.902  13.251  0.00  0.00    +0.000 HD
ATOM     38  H   UNK A   0       7.912   6.161  13.765  0.00  0.00    +0.000 HD
ATOM     39  H   UNK A   0       3.939   2.895  16.470  0.00  0.00    +0.000 HD
ATOM     40  H   UNK A   0       8.460   6.300  16.052  0.00  0.00    +0.000 HD
ENDBRANCH  25  31
ENDBRANCH  24  25
ENDBRANCH  23  24
ENDBRANCH  22  23
ENDBRANCH   1  22
TORSDOF 13
ENDMDL
MODEL 9
REMARK VINA RESULT:      -7.5      1.222      2.215
REMARK  Name = 
REMARK  13 active torsions:
REMARK  status: ('A' for Active; 'I' for Inactive)
REMARK    1  A    between atoms: C_6  and  C_7
REMARK    2  A    between atoms: C_7  and  C_8
REMARK    3  A    between atoms: C_8  and  C_9
REMARK    4  A    between atoms: C_9  and  C_10
REMARK    5  A    between atoms: C_10  and  C_11
REMARK    6  A    between atoms: C_14  and  C_15
REMARK    7  A    between atoms: N_17  and  CA_18
REMARK    8  A    between atoms: CA_18  and  CB_19
REMARK    9  A    between atoms: CA_18  and  C_24
REMARK   10  A    between atoms: CB_19  and  CG_20
REMARK   11  A    between atoms: CG_20  and  CD_21
REMARK   12  A    between atoms: CD_21  and  OE2_23
REMARK   13  A    between atoms: C_24  and  OXT_26
REMARK                            x       y       z     vdW  Elec       q    Type
REMARK                         _______ _______ _______ _____ _____    ______ ____
ROOT
ATOM      1  C   UNK A   0       2.069   6.795  19.991  0.00  0.00    +0.000 A 
ATOM      2  C   UNK A   0       2.621   6.975  18.737  0.00  0.00    +0.000 A 
ATOM      3  S   UNK A   0       2.233   8.494  18.055  0.00  0.00    +0.000 S 
ATOM      4  C   UNK A   0       1.316   8.958  19.428  0.00  0.00    +0.000 A 
ATOM      5  C   UNK A   0       1.307   7.942  20.354  0.00  0.00    +0.000 A 
ATOM      6  F   UNK A   0       0.670   8.026  21.494  0.00  0.00    +0.000 F 
ENDROOT
BRANCH   4   7
ATOM      7  C   UNK A   0       0.702  10.271  19.466  0.00  0.00    +0.000 C 
ATOM      8  O   UNK A   0       1.332  11.327  19.523  0.00  0.00    +0.000 OA
ATOM      9  N   GLU A   1      -0.677  10.287  19.417  0.00  0.00    +0.000 N 
ATOM     10  H   GLU A   1      -1.193   9.411  19.367  0.00  0.00    +0.000 HD
BRANCH   9  11
ATOM     11  CA  GLU A   1      -1.440  11.535  19.435  0.00  0.00    +0.000 C 
BRANCH  11  12
ATOM     12  C   GLU A   1      -1.200  12.231  18.093  0.00  0.00    +0.000 C 
ATOM     13  O   GLU A   1      -0.675  13.333  17.992  0.00  0.00    +0.000 OA
BRANCH  12  14
ATOM     14  OXT GLU A   1      -1.596  11.522  17.013  0.00  0.00    +0.000 OA
ATOM     15  HXT GLU A   1      -0.891  10.988  16.582  0.00  0.00    +0.000 HD
ENDBRANCH  12  14
ENDBRANCH  11  12
BRANCH  11  16
ATOM     16  CB  GLU A   1      -0.993  12.436  20.603  0.00  0.00    +0.000 C 
BRANCH  16  17
ATOM     17  CG  GLU A   1      -2.091  12.786  21.600  0.00  0.00    +0.000 C 
BRANCH  17  18
ATOM     18  CD  GLU A   1      -2.708  14.113  21.262  0.00  0.00    +0.000 C 
ATOM     19  OE1 GLU A   1      -3.610  14.602  21.931  0.00  0.00    +0.000 OA
BRANCH  18  20
ATOM     20  OE2 GLU A   1      -2.121  14.751  20.233  0.00  0.00    +0.000 OA
ATOM     21  HE2 GLU A   1      -1.160  14.905  20.336  0.00  0.00    +0.000 HD
ENDBRANCH  18  20
ENDBRANCH  17  18
ENDBRANCH  16  17
ENDBRANCH  11  16
ENDBRANCH   9  11
ENDBRANCH   4   7
BRANCH   1  22
ATOM     22  C   UNK A   0       2.267   5.581  20.851  0.00  0.00    +0.000 C 
BRANCH  22  23
ATOM     23  C   UNK A   0       1.340   4.428  20.467  0.00  0.00    +0.000 C 
BRANCH  23  24
ATOM     24  C   UNK A   0       2.127   3.161  20.132  0.00  0.00    +0.000 C 
BRANCH  24  25
ATOM     25  C   UNK A   0       2.259   2.999  18.619  0.00  0.00    +0.000 C 
BRANCH  25  31
ATOM     26  N   UNK A   0       7.493   5.365  14.381  0.00  0.00    +0.000 N 
ATOM     27  C   UNK A   0       6.835   4.974  15.502  0.00  0.00    +0.000 A 
ATOM     28  N   UNK A   0       5.605   4.551  15.423  0.00  0.00    +0.000 NA
ATOM     29  C   UNK A   0       5.074   4.206  16.617  0.00  0.00    +0.000 A 
ATOM     30  N   UNK A   0       3.803   3.738  16.782  0.00  0.00    +0.000 N 
ATOM     31  C   UNK A   0       3.575   3.491  18.120  0.00  0.00    +0.000 A 
ATOM     32  C   UNK A   0       4.739   3.797  18.807  0.00  0.00    +0.000 A 
ATOM     33  C   UNK A   0       5.675   4.246  17.850  0.00  0.00    +0.000 A 
ATOM     34  C   UNK A   0       7.033   4.720  17.921  0.00  0.00    +0.000 A 
ATOM     35  O   UNK A   0       7.691   4.801  18.954  0.00  0.00    +0.000 OA
ATOM     36  N   UNK A   0       7.541   5.065  16.682  0.00  0.00    +0.000 N 
ATOM     37  H   UNK A   0       6.858   5.486  13.598  0.00  0.00    +0.000 HD
ATOM     38  H   UNK A   0       8.143   6.133  14.480  0.00  0.00    +0.000 HD
ATOM     39  H   UNK A   0       3.142   3.612  16.028  0.00  0.00    +0.000 HD
ATOM     40  H   UNK A   0       8.502   5.360  16.676  0.00  0.00    +0.000 HD
ENDBRANCH  25  31
ENDBRANCH  24  25
ENDBRANCH  23  24
ENDBRANCH  22  23
ENDBRANCH   1  22
TORSDOF 13
ENDMDL
