MODEL 1
REMARK VINA RESULT:      -7.9      0.000      0.000
REMARK  Name = 
REMARK  9 active torsions:
REMARK  status: ('A' for Active; 'I' for Inactive)
REMARK    1  A    between atoms: C_1  and  O_2
REMARK    2  A    between atoms: O_2  and  C_3
REMARK    3  A    between atoms: C_6  and  C_7
REMARK    4  A    between atoms: C_7  and  C_8
REMARK    5  A    between atoms: C_11  and  O_12
REMARK    6  A    between atoms: O_12  and  C_13
REMARK    7  A    between atoms: N_19  and  C_20
REMARK    8  A    between atoms: C_20  and  C_21
REMARK    9  A    between atoms: C_21  and  N_22
REMARK                            x       y       z     vdW  Elec       q    Type
REMARK                         _______ _______ _______ _____ _____    ______ ____
ROOT
ATOM      1  C   UNL     1       0.697  10.259  19.226  0.00  0.00    +0.000 C 
ATOM      2  N   UNL     1       0.629   9.624  20.534  0.00  0.00    +0.000 N 
ATOM      3  C   UNL     1       1.299   8.429  20.596  0.00  0.00    +0.000 C 
ATOM      4  O   UNL     1       1.370   7.761  21.615  0.00  0.00    +0.000 OA
ATOM      5  N   UNL     1       1.864   8.173  19.395  0.00  0.00    +0.000 N 
ATOM      6  C   UNL     1       1.601   9.188  18.522  0.00  0.00    +0.000 C 
ATOM      7  O   UNL     1       2.034   9.240  17.373  0.00  0.00    +0.000 OA
ATOM      8  H   UNL     1       0.135   9.969  21.338  0.00  0.00    +0.000 HD
ENDROOT
BRANCH   1  12
ATOM      9  C   UNL     1       2.618  14.191  19.447  0.00  0.00    +0.000 A 
ATOM     10  C   UNL     1       2.581  13.491  18.244  0.00  0.00    +0.000 A 
ATOM     11  C   UNL     1       1.974  12.232  18.171  0.00  0.00    +0.000 A 
ATOM     12  C   UNL     1       1.381  11.640  19.303  0.00  0.00    +0.000 A 
ATOM     13  C   UNL     1       1.519  12.324  20.527  0.00  0.00    +0.000 A 
ATOM     14  C   UNL     1       2.119  13.588  20.596  0.00  0.00    +0.000 A 
BRANCH   9  16
ATOM     15  C   UNL     1       3.537  15.883  18.092  0.00  0.00    +0.000 C 
ATOM     16  O   UNL     1       3.200  15.427  19.400  0.00  0.00    +0.000 OA
ENDBRANCH   9  16
ENDBRANCH   1  12
BRANCH   1  17
ATOM     17  C   UNL     1      -0.703  10.392  18.620  0.00  0.00    +0.000 A 
ATOM     18  C   UNL     1      -1.059   9.745  17.427  0.00  0.00    +0.000 A 
ATOM     19  C   UNL     1      -2.231  10.091  16.753  0.00  0.00    +0.000 A 
ATOM     20  C   UNL     1      -3.080  11.069  17.260  0.00  0.00    +0.000 A 
ATOM     21  C   UNL     1      -2.784  11.669  18.476  0.00  0.00    +0.000 A 
ATOM     22  C   UNL     1      -1.614  11.326  19.156  0.00  0.00    +0.000 A 
BRANCH  20  23
ATOM     23  O   UNL     1      -4.125  11.406  16.442  0.00  0.00    +0.000 OA
ATOM     24  C   UNL     1      -5.255  11.976  17.088  0.00  0.00    +0.000 C 
ENDBRANCH  20  23
ENDBRANCH   1  17
BRANCH   5  25
ATOM     25  C   UNL     1       2.718   7.041  19.100  0.00  0.00    +0.000 C 
BRANCH  25  26
ATOM     26  C   UNL     1       1.983   5.868  18.425  0.00  0.00    +0.000 C 
BRANCH  26  27
ATOM     27  N   UNL     1       2.108   4.555  19.091  0.00  0.00    +0.000 NA
ATOM     28  C   UNL     1       3.484   4.264  19.523  0.00  0.00    +0.000 C 
ATOM     29  C   UNL     1       3.580   2.886  20.182  0.00  0.00    +0.000 C 
ATOM     30  C   UNL     1       2.613   2.757  21.352  0.00  0.00    +0.000 C 
ATOM     31  C   UNL     1       1.204   3.143  20.923  0.00  0.00    +0.000 C 
ATOM     32  C   UNL     1       1.187   4.512  20.244  0.00  0.00    +0.000 C 
ENDBRANCH  26  27
ENDBRANCH  25  26
ENDBRANCH   5  25
TORSDOF 7
ENDMDL
MODEL 2
REMARK VINA RESULT:      -7.7      0.608      1.087
REMARK  Name = 
REMARK  9 active torsions:
REMARK  status: ('A' for Active; 'I' for Inactive)
REMARK    1  A    between atoms: C_1  and  O_2
REMARK    2  A    between atoms: O_2  and  C_3
REMARK    3  A    between atoms: C_6  and  C_7
REMARK    4  A    between atoms: C_7  and  C_8
REMARK    5  A    between atoms: C_11  and  O_12
REMARK    6  A    between atoms: O_12  and  C_13
REMARK    7  A    between atoms: N_19  and  C_20
REMARK    8  A    between atoms: C_20  and  C_21
REMARK    9  A    between atoms: C_21  and  N_22
REMARK                            x       y       z     vdW  Elec       q    Type
REMARK                         _______ _______ _______ _____ _____    ______ ____
ROOT
ATOM      1  C   UNL     1       0.728  10.242  19.237  0.00  0.00    +0.000 C 
ATOM      2  N   UNL     1       0.601   9.619  20.545  0.00  0.00    +0.000 N 
ATOM      3  C   UNL     1       1.265   8.423  20.646  0.00  0.00    +0.000 C 
ATOM      4  O   UNL     1       1.289   7.763  21.674  0.00  0.00    +0.000 OA
ATOM      5  N   UNL     1       1.882   8.156  19.474  0.00  0.00    +0.000 N 
ATOM      6  C   UNL     1       1.659   9.164  18.582  0.00  0.00    +0.000 C 
ATOM      7  O   UNL     1       2.143   9.205  17.452  0.00  0.00    +0.000 OA
ATOM      8  H   UNL     1       0.073   9.971  21.324  0.00  0.00    +0.000 HD
ENDROOT
BRANCH   1  12
ATOM      9  C   UNL     1       2.688  14.152  19.508  0.00  0.00    +0.000 A 
ATOM     10  C   UNL     1       2.096  13.581  20.631  0.00  0.00    +0.000 A 
ATOM     11  C   UNL     1       1.463  12.335  20.546  0.00  0.00    +0.000 A 
ATOM     12  C   UNL     1       1.411  11.623  19.333  0.00  0.00    +0.000 A 
ATOM     13  C   UNL     1       1.930  12.267  18.193  0.00  0.00    +0.000 A 
ATOM     14  C   UNL     1       2.570  13.509  18.280  0.00  0.00    +0.000 A 
BRANCH   9  16
ATOM     15  C   UNL     1       2.439  16.475  19.800  0.00  0.00    +0.000 C 
ATOM     16  O   UNL     1       3.312  15.353  19.708  0.00  0.00    +0.000 OA
ENDBRANCH   9  16
ENDBRANCH   1  12
BRANCH   1  17
ATOM     17  C   UNL     1      -0.644  10.374  18.568  0.00  0.00    +0.000 A 
ATOM     18  C   UNL     1      -0.997   9.611  17.445  0.00  0.00    +0.000 A 
ATOM     19  C   UNL     1      -2.127   9.933  16.694  0.00  0.00    +0.000 A 
ATOM     20  C   UNL     1      -2.938  11.005  17.053  0.00  0.00    +0.000 A 
ATOM     21  C   UNL     1      -2.648  11.727  18.203  0.00  0.00    +0.000 A 
ATOM     22  C   UNL     1      -1.519  11.407  18.960  0.00  0.00    +0.000 A 
BRANCH  20  23
ATOM     23  O   UNL     1      -3.938  11.296  16.164  0.00  0.00    +0.000 OA
ATOM     24  C   UNL     1      -3.862  10.632  14.910  0.00  0.00    +0.000 C 
ENDBRANCH  20  23
ENDBRANCH   1  17
BRANCH   5  25
ATOM     25  C   UNL     1       2.745   7.020  19.226  0.00  0.00    +0.000 C 
BRANCH  25  26
ATOM     26  C   UNL     1       2.047   5.858  18.495  0.00  0.00    +0.000 C 
BRANCH  26  27
ATOM     27  N   UNL     1       2.130   4.536  19.151  0.00  0.00    +0.000 NA
ATOM     28  C   UNL     1       3.497   4.198  19.580  0.00  0.00    +0.000 C 
ATOM     29  C   UNL     1       3.548   2.813  20.228  0.00  0.00    +0.000 C 
ATOM     30  C   UNL     1       2.577   2.705  21.397  0.00  0.00    +0.000 C 
ATOM     31  C   UNL     1       1.181   3.138  20.969  0.00  0.00    +0.000 C 
ATOM     32  C   UNL     1       1.208   4.512  20.302  0.00  0.00    +0.000 C 
ENDBRANCH  26  27
ENDBRANCH  25  26
ENDBRANCH   5  25
TORSDOF 7
ENDMDL
MODEL 3
REMARK VINA RESULT:      -7.7      1.121      5.136
REMARK  Name = 
REMARK  9 active torsions:
REMARK  status: ('A' for Active; 'I' for Inactive)
REMARK    1  A    between atoms: C_1  and  O_2
REMARK    2  A    between atoms: O_2  and  C_3
REMARK    3  A    between atoms: C_6  and  C_7
REMARK    4  A    between atoms: C_7  and  C_8
REMARK    5  A    between atoms: C_11  and  O_12
REMARK    6  A    between atoms: O_12  and  C_13
REMARK    7  A    between atoms: N_19  and  C_20
REMARK    8  A    between atoms: C_20  and  C_21
REMARK    9  A    between atoms: C_21  and  N_22
REMARK                            x       y       z     vdW  Elec       q    Type
REMARK                         _______ _______ _______ _____ _____    ______ ____
ROOT
ATOM      1  C   UNL     1       0.563  10.664  18.827  0.00  0.00    +0.000 C 
ATOM      2  N   UNL     1       1.332  10.010  17.780  0.00  0.00    +0.000 N 
ATOM      3  C   UNL     1       1.918   8.837  18.184  0.00  0.00    +0.000 C 
ATOM      4  O   UNL     1       2.586   8.138  17.438  0.00  0.00    +0.000 OA
ATOM      5  N   UNL     1       1.597   8.601  19.475  0.00  0.00    +0.000 N 
ATOM      6  C   UNL     1       0.786   9.590  19.949  0.00  0.00    +0.000 C 
ATOM      7  O   UNL     1       0.302   9.604  21.079  0.00  0.00    +0.000 OA
ATOM      8  H   UNL     1       1.474  10.349  16.845  0.00  0.00    +0.000 HD
ENDROOT
BRANCH   1  12
ATOM      9  C   UNL     1      -3.664  11.037  17.735  0.00  0.00    +0.000 A 
ATOM     10  C   UNL     1      -2.832  10.159  17.045  0.00  0.00    +0.000 A 
ATOM     11  C   UNL     1      -1.480  10.042  17.387  0.00  0.00    +0.000 A 
ATOM     12  C   UNL     1      -0.924  10.799  18.436  0.00  0.00    +0.000 A 
ATOM     13  C   UNL     1      -1.762  11.750  19.050  0.00  0.00    +0.000 A 
ATOM     14  C   UNL     1      -3.117  11.859  18.713  0.00  0.00    +0.000 A 
BRANCH   9  16
ATOM     15  C   UNL     1      -5.916  10.875  18.404  0.00  0.00    +0.000 C 
ATOM     16  O   UNL     1      -4.975  11.045  17.347  0.00  0.00    +0.000 OA
ENDBRANCH   9  16
ENDBRANCH   1  12
BRANCH   1  17
ATOM     17  C   UNL     1       1.155  12.039  19.150  0.00  0.00    +0.000 A 
ATOM     18  C   UNL     1       1.623  12.898  18.145  0.00  0.00    +0.000 A 
ATOM     19  C   UNL     1       2.399  14.012  18.467  0.00  0.00    +0.000 A 
ATOM     20  C   UNL     1       2.707  14.305  19.791  0.00  0.00    +0.000 A 
ATOM     21  C   UNL     1       2.192  13.510  20.806  0.00  0.00    +0.000 A 
ATOM     22  C   UNL     1       1.414  12.395  20.489  0.00  0.00    +0.000 A 
BRANCH  20  23
ATOM     23  O   UNL     1       3.579  15.347  19.964  0.00  0.00    +0.000 OA
ATOM     24  C   UNL     1       4.382  15.673  18.838  0.00  0.00    +0.000 C 
ENDBRANCH  20  23
ENDBRANCH   1  17
BRANCH   5  25
ATOM     25  C   UNL     1       1.966   7.418  20.223  0.00  0.00    +0.000 C 
BRANCH  25  26
ATOM     26  C   UNL     1       2.884   6.454  19.448  0.00  0.00    +0.000 C 
BRANCH  26  27
ATOM     27  N   UNL     1       2.518   5.023  19.506  0.00  0.00    +0.000 NA
ATOM     28  C   UNL     1       1.529   4.730  20.555  0.00  0.00    +0.000 C 
ATOM     29  C   UNL     1       1.198   3.236  20.604  0.00  0.00    +0.000 C 
ATOM     30  C   UNL     1       0.713   2.726  19.253  0.00  0.00    +0.000 C 
ATOM     31  C   UNL     1       1.697   3.108  18.156  0.00  0.00    +0.000 C 
ATOM     32  C   UNL     1       2.008   4.604  18.187  0.00  0.00    +0.000 C 
ENDBRANCH  26  27
ENDBRANCH  25  26
ENDBRANCH   5  25
TORSDOF 7
ENDMDL
MODEL 4
REMARK VINA RESULT:      -7.7      0.859      1.478
REMARK  Name = 
REMARK  9 active torsions:
REMARK  status: ('A' for Active; 'I' for Inactive)
REMARK    1  A    between atoms: C_1  and  O_2
REMARK    2  A    between atoms: O_2  and  C_3
REMARK    3  A    between atoms: C_6  and  C_7
REMARK    4  A    between atoms: C_7  and  C_8
REMARK    5  A    between atoms: C_11  and  O_12
REMARK    6  A    between atoms: O_12  and  C_13
REMARK    7  A    between atoms: N_19  and  C_20
REMARK    8  A    between atoms: C_20  and  C_21
REMARK    9  A    between atoms: C_21  and  N_22
REMARK                            x       y       z     vdW  Elec       q    Type
REMARK                         _______ _______ _______ _____ _____    ______ ____
ROOT
ATOM      1  C   UNL     1       0.689  10.317  19.229  0.00  0.00    +0.000 C 
ATOM      2  N   UNL     1       0.631   9.630  20.510  0.00  0.00    +0.000 N 
ATOM      3  C   UNL     1       1.318   8.443  20.525  0.00  0.00    +0.000 C 
ATOM      4  O   UNL     1       1.399   7.736  21.517  0.00  0.00    +0.000 OA
ATOM      5  N   UNL     1       1.888   8.244  19.316  0.00  0.00    +0.000 N 
ATOM      6  C   UNL     1       1.610   9.289  18.483  0.00  0.00    +0.000 C 
ATOM      7  O   UNL     1       2.043   9.393  17.338  0.00  0.00    +0.000 OA
ATOM      8  H   UNL     1       0.131   9.935  21.327  0.00  0.00    +0.000 HD
ENDROOT
BRANCH   1  12
ATOM      9  C   UNL     1       2.593  14.246  19.604  0.00  0.00    +0.000 A 
ATOM     10  C   UNL     1       2.078  13.602  20.726  0.00  0.00    +0.000 A 
ATOM     11  C   UNL     1       1.464  12.350  20.609  0.00  0.00    +0.000 A 
ATOM     12  C   UNL     1       1.353  11.704  19.362  0.00  0.00    +0.000 A 
ATOM     13  C   UNL     1       1.792  12.421  18.232  0.00  0.00    +0.000 A 
ATOM     14  C   UNL     1       2.415  13.669  18.351  0.00  0.00    +0.000 A 
BRANCH   9  16
ATOM     15  C   UNL     1       3.740  16.081  18.674  0.00  0.00    +0.000 C 
ATOM     16  O   UNL     1       3.207  15.447  19.834  0.00  0.00    +0.000 OA
ENDBRANCH   9  16
ENDBRANCH   1  12
BRANCH   1  17
ATOM     17  C   UNL     1      -0.712  10.454  18.627  0.00  0.00    +0.000 A 
ATOM     18  C   UNL     1      -1.076   9.802  17.440  0.00  0.00    +0.000 A 
ATOM     19  C   UNL     1      -2.248  10.150  16.768  0.00  0.00    +0.000 A 
ATOM     20  C   UNL     1      -3.090  11.135  17.272  0.00  0.00    +0.000 A 
ATOM     21  C   UNL     1      -2.788  11.740  18.484  0.00  0.00    +0.000 A 
ATOM     22  C   UNL     1      -1.616  11.395  19.161  0.00  0.00    +0.000 A 
BRANCH  20  23
ATOM     23  O   UNL     1      -4.137  11.473  16.456  0.00  0.00    +0.000 OA
ATOM     24  C   UNL     1      -5.296  11.968  17.111  0.00  0.00    +0.000 C 
ENDBRANCH  20  23
ENDBRANCH   1  17
BRANCH   5  25
ATOM     25  C   UNL     1       2.759   7.138  18.976  0.00  0.00    +0.000 C 
BRANCH  25  26
ATOM     26  C   UNL     1       2.044   5.988  18.242  0.00  0.00    +0.000 C 
BRANCH  26  27
ATOM     27  N   UNL     1       2.327   4.626  18.740  0.00  0.00    +0.000 NA
ATOM     28  C   UNL     1       1.439   3.609  18.155  0.00  0.00    +0.000 C 
ATOM     29  C   UNL     1       1.742   2.217  18.715  0.00  0.00    +0.000 C 
ATOM     30  C   UNL     1       3.203   1.837  18.507  0.00  0.00    +0.000 C 
ATOM     31  C   UNL     1       4.118   2.932  19.036  0.00  0.00    +0.000 C 
ATOM     32  C   UNL     1       3.738   4.296  18.462  0.00  0.00    +0.000 C 
ENDBRANCH  26  27
ENDBRANCH  25  26
ENDBRANCH   5  25
TORSDOF 7
ENDMDL
MODEL 5
REMARK VINA RESULT:      -7.6      0.947      1.081
REMARK  Name = 
REMARK  9 active torsions:
REMARK  status: ('A' for Active; 'I' for Inactive)
REMARK    1  A    between atoms: C_1  and  O_2
REMARK    2  A    between atoms: O_2  and  C_3
REMARK    3  A    between atoms: C_6  and  C_7
REMARK    4  A    between atoms: C_7  and  C_8
REMARK    5  A    between atoms: C_11  and  O_12
REMARK    6  A    between atoms: O_12  and  C_13
REMARK    7  A    between atoms: N_19  and  C_20
REMARK    8  A    between atoms: C_20  and  C_21
REMARK    9  A    between atoms: C_21  and  N_22
REMARK                            x       y       z     vdW  Elec       q    Type
REMARK                         _______ _______ _______ _____ _____    ______ ____
ROOT
ATOM      1  C   UNL     1       0.613  10.417  19.284  0.00  0.00    +0.000 C 
ATOM      2  N   UNL     1       0.532   9.881  20.634  0.00  0.00    +0.000 N 
ATOM      3  C   UNL     1       1.180   8.682  20.785  0.00  0.00    +0.000 C 
ATOM      4  O   UNL     1       1.238   8.089  21.851  0.00  0.00    +0.000 OA
ATOM      5  N   UNL     1       1.742   8.329  19.608  0.00  0.00    +0.000 N 
ATOM      6  C   UNL     1       1.498   9.282  18.662  0.00  0.00    +0.000 C 
ATOM      7  O   UNL     1       1.933   9.242  17.513  0.00  0.00    +0.000 OA
ATOM      8  H   UNL     1       0.044  10.293  21.410  0.00  0.00    +0.000 HD
ENDROOT
BRANCH   1  12
ATOM      9  C   UNL     1       2.606  14.320  19.223  0.00  0.00    +0.000 A 
ATOM     10  C   UNL     1       2.481  13.573  18.055  0.00  0.00    +0.000 A 
ATOM     11  C   UNL     1       1.851  12.324  18.072  0.00  0.00    +0.000 A 
ATOM     12  C   UNL     1       1.322  11.788  19.262  0.00  0.00    +0.000 A 
ATOM     13  C   UNL     1       1.549  12.517  20.445  0.00  0.00    +0.000 A 
ATOM     14  C   UNL     1       2.172  13.772  20.426  0.00  0.00    +0.000 A 
BRANCH   9  16
ATOM     15  C   UNL     1       4.485  15.520  18.467  0.00  0.00    +0.000 C 
ATOM     16  O   UNL     1       3.203  15.543  19.090  0.00  0.00    +0.000 OA
ENDBRANCH   9  16
ENDBRANCH   1  12
BRANCH   1  17
ATOM     17  C   UNL     1      -0.784  10.532  18.667  0.00  0.00    +0.000 A 
ATOM     18  C   UNL     1      -1.116   9.894  17.462  0.00  0.00    +0.000 A 
ATOM     19  C   UNL     1      -2.288  10.226  16.782  0.00  0.00    +0.000 A 
ATOM     20  C   UNL     1      -3.161  11.181  17.293  0.00  0.00    +0.000 A 
ATOM     21  C   UNL     1      -2.888  11.770  18.521  0.00  0.00    +0.000 A 
ATOM     22  C   UNL     1      -1.717  11.440  19.206  0.00  0.00    +0.000 A 
BRANCH  20  23
ATOM     23  O   UNL     1      -4.205  11.508  16.470  0.00  0.00    +0.000 OA
ATOM     24  C   UNL     1      -5.361  12.023  17.115  0.00  0.00    +0.000 C 
ENDBRANCH  20  23
ENDBRANCH   1  17
BRANCH   5  25
ATOM     25  C   UNL     1       2.576   7.163  19.397  0.00  0.00    +0.000 C 
BRANCH  25  26
ATOM     26  C   UNL     1       1.981   5.863  19.970  0.00  0.00    +0.000 C 
BRANCH  26  27
ATOM     27  N   UNL     1       1.806   4.752  19.011  0.00  0.00    +0.000 NA
ATOM     28  C   UNL     1       2.988   4.544  18.160  0.00  0.00    +0.000 C 
ATOM     29  C   UNL     1       2.760   3.406  17.162  0.00  0.00    +0.000 C 
ATOM     30  C   UNL     1       2.372   2.112  17.867  0.00  0.00    +0.000 C 
ATOM     31  C   UNL     1       1.203   2.352  18.812  0.00  0.00    +0.000 C 
ATOM     32  C   UNL     1       1.485   3.520  19.757  0.00  0.00    +0.000 C 
ENDBRANCH  26  27
ENDBRANCH  25  26
ENDBRANCH   5  25
TORSDOF 7
ENDMDL
MODEL 6
REMARK VINA RESULT:      -7.6      0.830      1.278
REMARK  Name = 
REMARK  9 active torsions:
REMARK  status: ('A' for Active; 'I' for Inactive)
REMARK    1  A    between atoms: C_1  and  O_2
REMARK    2  A    between atoms: O_2  and  C_3
REMARK    3  A    between atoms: C_6  and  C_7
REMARK    4  A    between atoms: C_7  and  C_8
REMARK    5  A    between atoms: C_11  and  O_12
REMARK    6  A    between atoms: O_12  and  C_13
REMARK    7  A    between atoms: N_19  and  C_20
REMARK    8  A    between atoms: C_20  and  C_21
REMARK    9  A    between atoms: C_21  and  N_22
REMARK                            x       y       z     vdW  Elec       q    Type
REMARK                         _______ _______ _______ _____ _____    ______ ____
ROOT
ATOM      1  C   UNL     1       0.747  10.529  19.187  0.00  0.00    +0.000 C 
ATOM      2  N   UNL     1       0.628   9.852  20.470  0.00  0.00    +0.000 N 
ATOM      3  C   UNL     1       1.256   8.632  20.503  0.00  0.00    +0.000 C 
ATOM      4  O   UNL     1       1.282   7.927  21.499  0.00  0.00    +0.000 OA
ATOM      5  N   UNL     1       1.839   8.400  19.306  0.00  0.00    +0.000 N 
ATOM      6  C   UNL     1       1.629   9.453  18.464  0.00  0.00    +0.000 C 
ATOM      7  O   UNL     1       2.090   9.530  17.327  0.00  0.00    +0.000 OA
ATOM      8  H   UNL     1       0.129  10.184  21.275  0.00  0.00    +0.000 HD
ENDROOT
BRANCH   1  12
ATOM      9  C   UNL     1       2.794  14.382  19.589  0.00  0.00    +0.000 A 
ATOM     10  C   UNL     1       2.780  13.715  18.367  0.00  0.00    +0.000 A 
ATOM     11  C   UNL     1       2.133  12.481  18.237  0.00  0.00    +0.000 A 
ATOM     12  C   UNL     1       1.475  11.882  19.329  0.00  0.00    +0.000 A 
ATOM     13  C   UNL     1       1.589  12.529  20.574  0.00  0.00    +0.000 A 
ATOM     14  C   UNL     1       2.229  13.768  20.702  0.00  0.00    +0.000 A 
BRANCH   9  16
ATOM     15  C   UNL     1       2.576  16.706  19.901  0.00  0.00    +0.000 C 
ATOM     16  O   UNL     1       3.420  15.598  19.598  0.00  0.00    +0.000 OA
ENDBRANCH   9  16
ENDBRANCH   1  12
BRANCH   1  17
ATOM     17  C   UNL     1      -0.634  10.732  18.557  0.00  0.00    +0.000 A 
ATOM     18  C   UNL     1      -1.542  11.682  19.050  0.00  0.00    +0.000 A 
ATOM     19  C   UNL     1      -2.877  11.665  18.647  0.00  0.00    +0.000 A 
ATOM     20  C   UNL     1      -3.332  10.720  17.734  0.00  0.00    +0.000 A 
ATOM     21  C   UNL     1      -2.435   9.818  17.177  0.00  0.00    +0.000 A 
ATOM     22  C   UNL     1      -1.097   9.831  17.576  0.00  0.00    +0.000 A 
BRANCH  20  23
ATOM     23  O   UNL     1      -4.685  10.728  17.520  0.00  0.00    +0.000 OA
ATOM     24  C   UNL     1      -5.220  11.938  17.003  0.00  0.00    +0.000 C 
ENDBRANCH  20  23
ENDBRANCH   1  17
BRANCH   5  25
ATOM     25  C   UNL     1       2.661   7.250  18.988  0.00  0.00    +0.000 C 
BRANCH  25  26
ATOM     26  C   UNL     1       1.914   6.149  18.211  0.00  0.00    +0.000 C 
BRANCH  26  27
ATOM     27  N   UNL     1       1.451   4.994  19.008  0.00  0.00    +0.000 NA
ATOM     28  C   UNL     1       1.462   3.735  18.246  0.00  0.00    +0.000 C 
ATOM     29  C   UNL     1       0.949   2.569  19.094  0.00  0.00    +0.000 C 
ATOM     30  C   UNL     1       1.747   2.422  20.384  0.00  0.00    +0.000 C 
ATOM     31  C   UNL     1       1.805   3.749  21.127  0.00  0.00    +0.000 C 
ATOM     32  C   UNL     1       2.293   4.873  20.214  0.00  0.00    +0.000 C 
ENDBRANCH  26  27
ENDBRANCH  25  26
ENDBRANCH   5  25
TORSDOF 7
ENDMDL
MODEL 7
REMARK VINA RESULT:      -7.6      1.421      4.942
REMARK  Name = 
REMARK  9 active torsions:
REMARK  status: ('A' for Active; 'I' for Inactive)
REMARK    1  A    between atoms: C_1  and  O_2
REMARK    2  A    between atoms: O_2  and  C_3
REMARK    3  A    between atoms: C_6  and  C_7
REMARK    4  A    between atoms: C_7  and  C_8
REMARK    5  A    between atoms: C_11  and  O_12
REMARK    6  A    between atoms: O_12  and  C_13
REMARK    7  A    between atoms: N_19  and  C_20
REMARK    8  A    between atoms: C_20  and  C_21
REMARK    9  A    between atoms: C_21  and  N_22
REMARK                            x       y       z     vdW  Elec       q    Type
REMARK                         _______ _______ _______ _____ _____    ______ ____
ROOT
ATOM      1  C   UNL     1       0.427  10.738  18.841  0.00  0.00    +0.000 C 
ATOM      2  N   UNL     1       1.296  10.250  17.781  0.00  0.00    +0.000 N 
ATOM      3  C   UNL     1       1.952   9.090  18.105  0.00  0.00    +0.000 C 
ATOM      4  O   UNL     1       2.709   8.520  17.335  0.00  0.00    +0.000 OA
ATOM      5  N   UNL     1       1.587   8.703  19.347  0.00  0.00    +0.000 N 
ATOM      6  C   UNL     1       0.678   9.578  19.867  0.00  0.00    +0.000 C 
ATOM      7  O   UNL     1       0.139   9.443  20.963  0.00  0.00    +0.000 OA
ATOM      8  H   UNL     1       1.457  10.690  16.893  0.00  0.00    +0.000 HD
ENDROOT
BRANCH   1  12
ATOM      9  C   UNL     1      -3.746  10.930  17.515  0.00  0.00    +0.000 A 
ATOM     10  C   UNL     1      -3.314  11.692  18.596  0.00  0.00    +0.000 A 
ATOM     11  C   UNL     1      -1.983  11.629  19.027  0.00  0.00    +0.000 A 
ATOM     12  C   UNL     1      -1.045  10.801  18.380  0.00  0.00    +0.000 A 
ATOM     13  C   UNL     1      -1.531   9.967  17.354  0.00  0.00    +0.000 A 
ATOM     14  C   UNL     1      -2.860  10.038  16.919  0.00  0.00    +0.000 A 
BRANCH   9  16
ATOM     15  C   UNL     1      -5.814  11.939  18.013  0.00  0.00    +0.000 C 
ATOM     16  O   UNL     1      -5.054  11.095  17.152  0.00  0.00    +0.000 OA
ENDBRANCH   9  16
ENDBRANCH   1  12
BRANCH   1  17
ATOM     17  C   UNL     1       0.891  12.114  19.327  0.00  0.00    +0.000 A 
ATOM     18  C   UNL     1       0.906  12.453  20.688  0.00  0.00    +0.000 A 
ATOM     19  C   UNL     1       1.067  13.780  21.088  0.00  0.00    +0.000 A 
ATOM     20  C   UNL     1       1.235  14.791  20.147  0.00  0.00    +0.000 A 
ATOM     21  C   UNL     1       1.298  14.467  18.798  0.00  0.00    +0.000 A 
ATOM     22  C   UNL     1       1.139  13.141  18.393  0.00  0.00    +0.000 A 
BRANCH  20  23
ATOM     23  O   UNL     1       1.252  16.060  20.660  0.00  0.00    +0.000 OA
ATOM     24  C   UNL     1       0.052  16.804  20.507  0.00  0.00    +0.000 C 
ENDBRANCH  20  23
ENDBRANCH   1  17
BRANCH   5  25
ATOM     25  C   UNL     1       2.011   7.482  19.999  0.00  0.00    +0.000 C 
BRANCH  25  26
ATOM     26  C   UNL     1       2.743   6.501  19.064  0.00  0.00    +0.000 C 
BRANCH  26  27
ATOM     27  N   UNL     1       2.460   5.066  19.279  0.00  0.00    +0.000 NA
ATOM     28  C   UNL     1       1.600   4.825  20.449  0.00  0.00    +0.000 C 
ATOM     29  C   UNL     1       1.353   3.329  20.657  0.00  0.00    +0.000 C 
ATOM     30  C   UNL     1       0.759   2.681  19.412  0.00  0.00    +0.000 C 
ATOM     31  C   UNL     1       1.606   3.006  18.189  0.00  0.00    +0.000 C 
ATOM     32  C   UNL     1       1.840   4.510  18.062  0.00  0.00    +0.000 C 
ENDBRANCH  26  27
ENDBRANCH  25  26
ENDBRANCH   5  25
TORSDOF 7
ENDMDL
MODEL 8
REMARK VINA RESULT:      -7.6      0.828      1.535
REMARK  Name = 
REMARK  9 active torsions:
REMARK  status: ('A' for Active; 'I' for Inactive)
REMARK    1  A    between atoms: C_1  and  O_2
REMARK    2  A    between atoms: O_2  and  C_3
REMARK    3  A    between atoms: C_6  and  C_7
REMARK    4  A    between atoms: C_7  and  C_8
REMARK    5  A    between atoms: C_11  and  O_12
REMARK    6  A    between atoms: O_12  and  C_13
REMARK    7  A    between atoms: N_19  and  C_20
REMARK    8  A    between atoms: C_20  and  C_21
REMARK    9  A    between atoms: C_21  and  N_22
REMARK                            x       y       z     vdW  Elec       q    Type
REMARK                         _______ _______ _______ _____ _____    ______ ____
ROOT
ATOM      1  C   UNL     1       0.780  10.521  19.157  0.00  0.00    +0.000 C 
ATOM      2  N   UNL     1       0.611   9.844  20.434  0.00  0.00    +0.000 N 
ATOM      3  C   UNL     1       1.234   8.623  20.491  0.00  0.00    +0.000 C 
ATOM      4  O   UNL     1       1.220   7.917  21.487  0.00  0.00    +0.000 OA
ATOM      5  N   UNL     1       1.862   8.389  19.317  0.00  0.00    +0.000 N 
ATOM      6  C   UNL     1       1.688   9.442  18.468  0.00  0.00    +0.000 C 
ATOM      7  O   UNL     1       2.192   9.518  17.350  0.00  0.00    +0.000 OA
ATOM      8  H   UNL     1       0.082  10.178  21.219  0.00  0.00    +0.000 HD
ENDROOT
BRANCH   1  12
ATOM      9  C   UNL     1       2.861  14.348  19.636  0.00  0.00    +0.000 A 
ATOM     10  C   UNL     1       2.254  13.733  20.728  0.00  0.00    +0.000 A 
ATOM     11  C   UNL     1       1.583  12.514  20.577  0.00  0.00    +0.000 A 
ATOM     12  C   UNL     1       1.506  11.872  19.326  0.00  0.00    +0.000 A 
ATOM     13  C   UNL     1       2.042  12.562  18.222  0.00  0.00    +0.000 A 
ATOM     14  C   UNL     1       2.720  13.778  18.375  0.00  0.00    +0.000 A 
BRANCH   9  16
ATOM     15  C   UNL     1       4.885  15.541  19.482  0.00  0.00    +0.000 C 
ATOM     16  O   UNL     1       3.522  15.515  19.899  0.00  0.00    +0.000 OA
ENDBRANCH   9  16
ENDBRANCH   1  12
BRANCH   1  17
ATOM     17  C   UNL     1      -0.575  10.727  18.474  0.00  0.00    +0.000 A 
ATOM     18  C   UNL     1      -1.473  11.719  18.895  0.00  0.00    +0.000 A 
ATOM     19  C   UNL     1      -2.795  11.716  18.450  0.00  0.00    +0.000 A 
ATOM     20  C   UNL     1      -3.245  10.741  17.566  0.00  0.00    +0.000 A 
ATOM     21  C   UNL     1      -2.354   9.794  17.079  0.00  0.00    +0.000 A 
ATOM     22  C   UNL     1      -1.029   9.794  17.520  0.00  0.00    +0.000 A 
BRANCH  20  23
ATOM     23  O   UNL     1      -4.590  10.772  17.309  0.00  0.00    +0.000 OA
ATOM     24  C   UNL     1      -5.338  11.728  18.046  0.00  0.00    +0.000 C 
ENDBRANCH  20  23
ENDBRANCH   1  17
BRANCH   5  25
ATOM     25  C   UNL     1       2.693   7.237  19.031  0.00  0.00    +0.000 C 
BRANCH  25  26
ATOM     26  C   UNL     1       1.984   6.153  18.197  0.00  0.00    +0.000 C 
BRANCH  26  27
ATOM     27  N   UNL     1       1.476   4.987  18.948  0.00  0.00    +0.000 NA
ATOM     28  C   UNL     1       1.532   3.739  18.169  0.00  0.00    +0.000 C 
ATOM     29  C   UNL     1       0.971   2.560  18.968  0.00  0.00    +0.000 C 
ATOM     30  C   UNL     1       1.691   2.393  20.301  0.00  0.00    +0.000 C 
ATOM     31  C   UNL     1       1.706   3.710  21.065  0.00  0.00    +0.000 C 
ATOM     32  C   UNL     1       2.246   4.847  20.199  0.00  0.00    +0.000 C 
ENDBRANCH  26  27
ENDBRANCH  25  26
ENDBRANCH   5  25
TORSDOF 7
ENDMDL
MODEL 9
REMARK VINA RESULT:      -7.6      0.995      1.558
REMARK  Name = 
REMARK  9 active torsions:
REMARK  status: ('A' for Active; 'I' for Inactive)
REMARK    1  A    between atoms: C_1  and  O_2
REMARK    2  A    between atoms: O_2  and  C_3
REMARK    3  A    between atoms: C_6  and  C_7
REMARK    4  A    between atoms: C_7  and  C_8
REMARK    5  A    between atoms: C_11  and  O_12
REMARK    6  A    between atoms: O_12  and  C_13
REMARK    7  A    between atoms: N_19  and  C_20
REMARK    8  A    between atoms: C_20  and  C_21
REMARK    9  A    between atoms: C_21  and  N_22
REMARK                            x       y       z     vdW  Elec       q    Type
REMARK                         _______ _______ _______ _____ _____    ______ ____
ROOT
ATOM      1  C   UNL     1       0.605  10.330  19.214  0.00  0.00    +0.000 C 
ATOM      2  N   UNL     1       0.478   9.659  20.499  0.00  0.00    +0.000 N 
ATOM      3  C   UNL     1       1.205   8.498  20.582  0.00  0.00    +0.000 C 
ATOM      4  O   UNL     1       1.238   7.808  21.589  0.00  0.00    +0.000 OA
ATOM      5  N   UNL     1       1.866   8.303  19.421  0.00  0.00    +0.000 N 
ATOM      6  C   UNL     1       1.612   9.325  18.553  0.00  0.00    +0.000 C 
ATOM      7  O   UNL     1       2.122   9.429  17.440  0.00  0.00    +0.000 OA
ATOM      8  H   UNL     1      -0.088   9.957  21.273  0.00  0.00    +0.000 HD
ENDROOT
BRANCH   1  12
ATOM      9  C   UNL     1       2.337  14.331  19.655  0.00  0.00    +0.000 A 
ATOM     10  C   UNL     1       1.928  13.612  20.775  0.00  0.00    +0.000 A 
ATOM     11  C   UNL     1       1.369  12.336  20.637  0.00  0.00    +0.000 A 
ATOM     12  C   UNL     1       1.208  11.741  19.371  0.00  0.00    +0.000 A 
ATOM     13  C   UNL     1       1.537  12.529  18.251  0.00  0.00    +0.000 A 
ATOM     14  C   UNL     1       2.105  13.802  18.390  0.00  0.00    +0.000 A 
BRANCH   9  16
ATOM     15  C   UNL     1       3.930  15.544  20.894  0.00  0.00    +0.000 C 
ATOM     16  O   UNL     1       2.906  15.549  19.903  0.00  0.00    +0.000 OA
ENDBRANCH   9  16
ENDBRANCH   1  12
BRANCH   1  17
ATOM     17  C   UNL     1      -0.754  10.407  18.512  0.00  0.00    +0.000 A 
ATOM     18  C   UNL     1      -1.051   9.625  17.386  0.00  0.00    +0.000 A 
ATOM     19  C   UNL     1      -2.174   9.902  16.605  0.00  0.00    +0.000 A 
ATOM     20  C   UNL     1      -3.031  10.945  16.937  0.00  0.00    +0.000 A 
ATOM     21  C   UNL     1      -2.796  11.684  18.089  0.00  0.00    +0.000 A 
ATOM     22  C   UNL     1      -1.675  11.410  18.875  0.00  0.00    +0.000 A 
BRANCH  20  23
ATOM     23  O   UNL     1      -4.019  11.194  16.022  0.00  0.00    +0.000 OA
ATOM     24  C   UNL     1      -3.887  10.528  14.774  0.00  0.00    +0.000 C 
ENDBRANCH  20  23
ENDBRANCH   1  17
BRANCH   5  25
ATOM     25  C   UNL     1       2.798   7.224  19.162  0.00  0.00    +0.000 C 
BRANCH  25  26
ATOM     26  C   UNL     1       2.237   6.128  18.236  0.00  0.00    +0.000 C 
BRANCH  26  27
ATOM     27  N   UNL     1       2.296   4.747  18.757  0.00  0.00    +0.000 NA
ATOM     28  C   UNL     1       1.390   4.528  19.896  0.00  0.00    +0.000 C 
ATOM     29  C   UNL     1       1.500   3.096  20.426  0.00  0.00    +0.000 C 
ATOM     30  C   UNL     1       1.239   2.072  19.329  0.00  0.00    +0.000 C 
ATOM     31  C   UNL     1       2.118   2.354  18.118  0.00  0.00    +0.000 C 
ATOM     32  C   UNL     1       1.984   3.807  17.663  0.00  0.00    +0.000 C 
ENDBRANCH  26  27
ENDBRANCH  25  26
ENDBRANCH   5  25
TORSDOF 7
ENDMDL
