MODEL 1
REMARK VINA RESULT:      -9.4      0.000      0.000
REMARK  Name = 
REMARK  6 active torsions:
REMARK  status: ('A' for Active; 'I' for Inactive)
REMARK    1  A    between atoms: C_2  and  C_4
REMARK    2  A    between atoms: C_4  and  C_5
REMARK    3  A    between atoms: C_5  and  C_6
REMARK    4  A    between atoms: C_6  and  C_7
REMARK    5  A    between atoms: C_10  and  N_11
REMARK    6  A    between atoms: N_11  and  C_12
REMARK                            x       y       z     vdW  Elec       q    Type
REMARK                         _______ _______ _______ _____ _____    ______ ____
ROOT
ATOM      1  N   UNL     1       3.334   6.338  19.907  0.00  0.00    +0.000 N 
ATOM      2  H   UNL     1       3.556   6.147  20.882  0.00  0.00    +0.000 HD
ENDROOT
BRANCH   1   3
ATOM      3  C   UNL     1       3.638   5.186  19.104  0.00  0.00    +0.000 A 
ATOM      4  C   UNL     1       4.260   5.191  17.797  0.00  0.00    +0.000 A 
ATOM      5  C   UNL     1       4.452   6.264  16.893  0.00  0.00    +0.000 A 
ATOM      6  C   UNL     1       5.244   6.159  15.746  0.00  0.00    +0.000 A 
ATOM      7  C   UNL     1       5.815   4.941  15.441  0.00  0.00    +0.000 A 
ATOM      8  C   UNL     1       5.455   3.828  16.185  0.00  0.00    +0.000 A 
ATOM      9  C   UNL     1       4.586   3.941  17.258  0.00  0.00    +0.000 A 
ATOM     10  N   UNL     1       3.931   2.855  17.640  0.00  0.00    +0.000 NA
ATOM     11  C   UNL     1       2.983   3.046  18.563  0.00  0.00    +0.000 A 
ATOM     12  C   UNL     1       1.664   2.729  18.307  0.00  0.00    +0.000 A 
ATOM     13  C   UNL     1       0.662   3.019  19.244  0.00  0.00    +0.000 A 
ATOM     14  C   UNL     1       1.034   3.410  20.524  0.00  0.00    +0.000 A 
ATOM     15  C   UNL     1       2.346   3.806  20.729  0.00  0.00    +0.000 A 
ATOM     16  C   UNL     1       3.144   3.950  19.578  0.00  0.00    +0.000 A 
ENDBRANCH   1   3
BRANCH   1  20
ATOM     17  C   UNL     1       0.656   9.564  19.810  0.00  0.00    +0.000 A 
ATOM     18  C   UNL     1       1.346   9.204  18.650  0.00  0.00    +0.000 A 
ATOM     19  C   UNL     1       2.192   8.090  18.662  0.00  0.00    +0.000 A 
ATOM     20  C   UNL     1       2.311   7.294  19.813  0.00  0.00    +0.000 A 
ATOM     21  C   UNL     1       1.458   7.547  20.877  0.00  0.00    +0.000 A 
ATOM     22  C   UNL     1       0.732   8.728  20.925  0.00  0.00    +0.000 A 
BRANCH  17  23
ATOM     23  C   UNL     1      -0.220  10.787  19.865  0.00  0.00    +0.000 C 
BRANCH  23  24
ATOM     24  C   UNL     1      -0.781  11.161  18.489  0.00  0.00    +0.000 C 
BRANCH  24  25
ATOM     25  C   UNL     1      -2.049  10.385  18.110  0.00  0.00    +0.000 C 
BRANCH  25  27
ATOM     26  N   UNL     1      -2.467  11.423  15.973  0.00  0.00    +0.000 N 
ATOM     27  C   UNL     1      -2.978  11.175  17.211  0.00  0.00    +0.000 C 
ATOM     28  O   UNL     1      -4.088  11.573  17.536  0.00  0.00    +0.000 OA
ATOM     29  H   UNL     1      -3.022  12.014  15.352  0.00  0.00    +0.000 HD
ATOM     30  H   UNL     1      -1.493  11.261  15.749  0.00  0.00    +0.000 HD
ENDBRANCH  25  27
ENDBRANCH  24  25
ENDBRANCH  23  24
ENDBRANCH  17  23
ENDBRANCH   1  20
TORSDOF 6
ENDMDL
MODEL 2
REMARK VINA RESULT:      -9.2      2.076      2.369
REMARK  Name = 
REMARK  6 active torsions:
REMARK  status: ('A' for Active; 'I' for Inactive)
REMARK    1  A    between atoms: C_2  and  C_4
REMARK    2  A    between atoms: C_4  and  C_5
REMARK    3  A    between atoms: C_5  and  C_6
REMARK    4  A    between atoms: C_6  and  C_7
REMARK    5  A    between atoms: C_10  and  N_11
REMARK    6  A    between atoms: N_11  and  C_12
REMARK                            x       y       z     vdW  Elec       q    Type
REMARK                         _______ _______ _______ _____ _____    ______ ____
ROOT
ATOM      1  N   UNL     1       3.326   6.421  19.865  0.00  0.00    +0.000 N 
ATOM      2  H   UNL     1       3.551   6.252  20.843  0.00  0.00    +0.000 HD
ENDROOT
BRANCH   1   3
ATOM      3  C   UNL     1       3.638   5.256  19.084  0.00  0.00    +0.000 A 
ATOM      4  C   UNL     1       4.264   5.240  17.779  0.00  0.00    +0.000 A 
ATOM      5  C   UNL     1       4.453   6.297  16.855  0.00  0.00    +0.000 A 
ATOM      6  C   UNL     1       5.249   6.175  15.713  0.00  0.00    +0.000 A 
ATOM      7  C   UNL     1       5.828   4.954  15.432  0.00  0.00    +0.000 A 
ATOM      8  C   UNL     1       5.471   3.853  16.196  0.00  0.00    +0.000 A 
ATOM      9  C   UNL     1       4.598   3.982  17.264  0.00  0.00    +0.000 A 
ATOM     10  N   UNL     1       3.948   2.900  17.665  0.00  0.00    +0.000 NA
ATOM     11  C   UNL     1       2.996   3.103  18.581  0.00  0.00    +0.000 A 
ATOM     12  C   UNL     1       1.679   2.775  18.328  0.00  0.00    +0.000 A 
ATOM     13  C   UNL     1       0.673   3.077  19.256  0.00  0.00    +0.000 A 
ATOM     14  C   UNL     1       1.040   3.493  20.529  0.00  0.00    +0.000 A 
ATOM     15  C   UNL     1       2.349   3.900  20.731  0.00  0.00    +0.000 A 
ATOM     16  C   UNL     1       3.149   4.027  19.579  0.00  0.00    +0.000 A 
ENDBRANCH   1   3
BRANCH   1  20
ATOM     17  C   UNL     1       0.627   9.626  19.686  0.00  0.00    +0.000 A 
ATOM     18  C   UNL     1       1.287   9.214  18.526  0.00  0.00    +0.000 A 
ATOM     19  C   UNL     1       2.139   8.106  18.569  0.00  0.00    +0.000 A 
ATOM     20  C   UNL     1       2.294   7.367  19.752  0.00  0.00    +0.000 A 
ATOM     21  C   UNL     1       1.470   7.667  20.827  0.00  0.00    +0.000 A 
ATOM     22  C   UNL     1       0.737   8.845  20.838  0.00  0.00    +0.000 A 
BRANCH  17  23
ATOM     23  C   UNL     1      -0.256  10.846  19.707  0.00  0.00    +0.000 C 
BRANCH  23  24
ATOM     24  C   UNL     1       0.334  12.001  18.892  0.00  0.00    +0.000 C 
BRANCH  24  25
ATOM     25  C   UNL     1       1.524  12.689  19.572  0.00  0.00    +0.000 C 
BRANCH  25  27
ATOM     26  N   UNL     1       2.616  12.417  17.439  0.00  0.00    +0.000 N 
ATOM     27  C   UNL     1       2.585  13.144  18.590  0.00  0.00    +0.000 C 
ATOM     28  O   UNL     1       3.361  14.069  18.784  0.00  0.00    +0.000 OA
ATOM     29  H   UNL     1       3.360  12.634  16.773  0.00  0.00    +0.000 HD
ATOM     30  H   UNL     1       2.110  11.546  17.336  0.00  0.00    +0.000 HD
ENDBRANCH  25  27
ENDBRANCH  24  25
ENDBRANCH  23  24
ENDBRANCH  17  23
ENDBRANCH   1  20
TORSDOF 6
ENDMDL
MODEL 3
REMARK VINA RESULT:      -9.1      2.145      2.402
REMARK  Name = 
REMARK  6 active torsions:
REMARK  status: ('A' for Active; 'I' for Inactive)
REMARK    1  A    between atoms: C_2  and  C_4
REMARK    2  A    between atoms: C_4  and  C_5
REMARK    3  A    between atoms: C_5  and  C_6
REMARK    4  A    between atoms: C_6  and  C_7
REMARK    5  A    between atoms: C_10  and  N_11
REMARK    6  A    between atoms: N_11  and  C_12
REMARK                            x       y       z     vdW  Elec       q    Type
REMARK                         _______ _______ _______ _____ _____    ______ ____
ROOT
ATOM      1  N   UNL     1       3.355   6.312  19.782  0.00  0.00    +0.000 N 
ATOM      2  H   UNL     1       3.483   6.121  20.773  0.00  0.00    +0.000 HD
ENDROOT
BRANCH   1   3
ATOM      3  C   UNL     1       3.660   5.136  19.015  0.00  0.00    +0.000 A 
ATOM      4  C   UNL     1       4.296   5.100  17.715  0.00  0.00    +0.000 A 
ATOM      5  C   UNL     1       4.504   6.146  16.782  0.00  0.00    +0.000 A 
ATOM      6  C   UNL     1       5.307   6.004  15.648  0.00  0.00    +0.000 A 
ATOM      7  C   UNL     1       5.874   4.774  15.383  0.00  0.00    +0.000 A 
ATOM      8  C   UNL     1       5.499   3.685  16.155  0.00  0.00    +0.000 A 
ATOM      9  C   UNL     1       4.620   3.834  17.214  0.00  0.00    +0.000 A 
ATOM     10  N   UNL     1       3.954   2.763  17.620  0.00  0.00    +0.000 NA
ATOM     11  C   UNL     1       2.998   2.986  18.527  0.00  0.00    +0.000 A 
ATOM     12  C   UNL     1       1.679   2.670  18.267  0.00  0.00    +0.000 A 
ATOM     13  C   UNL     1       0.669   2.993  19.184  0.00  0.00    +0.000 A 
ATOM     14  C   UNL     1       1.031   3.417  20.456  0.00  0.00    +0.000 A 
ATOM     15  C   UNL     1       2.343   3.811  20.664  0.00  0.00    +0.000 A 
ATOM     16  C   UNL     1       3.153   3.917  19.518  0.00  0.00    +0.000 A 
ENDBRANCH   1   3
BRANCH   1  20
ATOM     17  C   UNL     1       0.908   9.692  19.357  0.00  0.00    +0.000 A 
ATOM     18  C   UNL     1       1.545   9.154  18.235  0.00  0.00    +0.000 A 
ATOM     19  C   UNL     1       2.310   7.991  18.362  0.00  0.00    +0.000 A 
ATOM     20  C   UNL     1       2.399   7.323  19.594  0.00  0.00    +0.000 A 
ATOM     21  C   UNL     1       1.592   7.755  20.636  0.00  0.00    +0.000 A 
ATOM     22  C   UNL     1       0.951   8.983  20.559  0.00  0.00    +0.000 A 
BRANCH  17  23
ATOM     23  C   UNL     1       0.121  10.973  19.286  0.00  0.00    +0.000 C 
BRANCH  23  24
ATOM     24  C   UNL     1      -1.066  10.979  20.253  0.00  0.00    +0.000 C 
BRANCH  24  25
ATOM     25  C   UNL     1      -0.938  12.014  21.379  0.00  0.00    +0.000 C 
BRANCH  25  27
ATOM     26  N   UNL     1      -2.368  11.769  23.305  0.00  0.00    +0.000 N 
ATOM     27  C   UNL     1      -1.171  11.424  22.755  0.00  0.00    +0.000 C 
ATOM     28  O   UNL     1      -0.377  10.705  23.347  0.00  0.00    +0.000 OA
ATOM     29  H   UNL     1      -2.545  11.459  24.263  0.00  0.00    +0.000 HD
ATOM     30  H   UNL     1      -2.952  12.498  22.915  0.00  0.00    +0.000 HD
ENDBRANCH  25  27
ENDBRANCH  24  25
ENDBRANCH  23  24
ENDBRANCH  17  23
ENDBRANCH   1  20
TORSDOF 6
ENDMDL
MODEL 4
REMARK VINA RESULT:      -9.1      1.582      2.035
REMARK  Name = 
REMARK  6 active torsions:
REMARK  status: ('A' for Active; 'I' for Inactive)
REMARK    1  A    between atoms: C_2  and  C_4
REMARK    2  A    between atoms: C_4  and  C_5
REMARK    3  A    between atoms: C_5  and  C_6
REMARK    4  A    between atoms: C_6  and  C_7
REMARK    5  A    between atoms: C_10  and  N_11
REMARK    6  A    between atoms: N_11  and  C_12
REMARK                            x       y       z     vdW  Elec       q    Type
REMARK                         _______ _______ _______ _____ _____    ______ ____
ROOT
ATOM      1  N   UNL     1       2.454   6.685  18.180  0.00  0.00    +0.000 N 
ATOM      2  H   UNL     1       2.290   6.624  17.178  0.00  0.00    +0.000 HD
ENDROOT
BRANCH   1   3
ATOM      3  C   UNL     1       3.528   5.805  18.552  0.00  0.00    +0.000 A 
ATOM      4  C   UNL     1       4.935   6.007  18.281  0.00  0.00    +0.000 A 
ATOM      5  C   UNL     1       5.562   6.908  17.385  0.00  0.00    +0.000 A 
ATOM      6  C   UNL     1       6.942   7.128  17.369  0.00  0.00    +0.000 A 
ATOM      7  C   UNL     1       7.743   6.392  18.219  0.00  0.00    +0.000 A 
ATOM      8  C   UNL     1       7.176   5.350  18.937  0.00  0.00    +0.000 A 
ATOM      9  C   UNL     1       5.819   5.087  18.856  0.00  0.00    +0.000 A 
ATOM     10  N   UNL     1       5.406   3.868  19.170  0.00  0.00    +0.000 NA
ATOM     11  C   UNL     1       4.119   3.611  18.916  0.00  0.00    +0.000 A 
ATOM     12  C   UNL     1       3.750   2.601  18.050  0.00  0.00    +0.000 A 
ATOM     13  C   UNL     1       2.404   2.398  17.716  0.00  0.00    +0.000 A 
ATOM     14  C   UNL     1       1.426   3.063  18.445  0.00  0.00    +0.000 A 
ATOM     15  C   UNL     1       1.816   4.129  19.239  0.00  0.00    +0.000 A 
ATOM     16  C   UNL     1       3.149   4.559  19.099  0.00  0.00    +0.000 A 
ENDBRANCH   1   3
BRANCH   1  20
ATOM     17  C   UNL     1       0.793  10.306  19.490  0.00  0.00    +0.000 A 
ATOM     18  C   UNL     1       0.991   9.267  20.402  0.00  0.00    +0.000 A 
ATOM     19  C   UNL     1       1.602   8.081  19.983  0.00  0.00    +0.000 A 
ATOM     20  C   UNL     1       2.073   7.945  18.667  0.00  0.00    +0.000 A 
ATOM     21  C   UNL     1       2.056   9.062  17.844  0.00  0.00    +0.000 A 
ATOM     22  C   UNL     1       1.324  10.184  18.205  0.00  0.00    +0.000 A 
BRANCH  17  23
ATOM     23  C   UNL     1       0.088  11.579  19.876  0.00  0.00    +0.000 C 
BRANCH  23  24
ATOM     24  C   UNL     1      -0.662  12.207  18.698  0.00  0.00    +0.000 C 
BRANCH  24  25
ATOM     25  C   UNL     1      -2.107  11.712  18.554  0.00  0.00    +0.000 C 
BRANCH  25  27
ATOM     26  N   UNL     1      -2.318  11.509  16.160  0.00  0.00    +0.000 N 
ATOM     27  C   UNL     1      -2.311  10.829  17.340  0.00  0.00    +0.000 C 
ATOM     28  O   UNL     1      -2.464   9.616  17.381  0.00  0.00    +0.000 OA
ATOM     29  H   UNL     1      -2.526  10.972  15.316  0.00  0.00    +0.000 HD
ATOM     30  H   UNL     1      -2.374  12.519  16.119  0.00  0.00    +0.000 HD
ENDBRANCH  25  27
ENDBRANCH  24  25
ENDBRANCH  23  24
ENDBRANCH  17  23
ENDBRANCH   1  20
TORSDOF 6
ENDMDL
MODEL 5
REMARK VINA RESULT:      -8.9      2.622      3.190
REMARK  Name = 
REMARK  6 active torsions:
REMARK  status: ('A' for Active; 'I' for Inactive)
REMARK    1  A    between atoms: C_2  and  C_4
REMARK    2  A    between atoms: C_4  and  C_5
REMARK    3  A    between atoms: C_5  and  C_6
REMARK    4  A    between atoms: C_6  and  C_7
REMARK    5  A    between atoms: C_10  and  N_11
REMARK    6  A    between atoms: N_11  and  C_12
REMARK                            x       y       z     vdW  Elec       q    Type
REMARK                         _______ _______ _______ _____ _____    ______ ____
ROOT
ATOM      1  N   UNL     1       2.682   6.919  17.977  0.00  0.00    +0.000 N 
ATOM      2  H   UNL     1       2.807   7.109  16.985  0.00  0.00    +0.000 HD
ENDROOT
BRANCH   1   3
ATOM      3  C   UNL     1       3.699   6.009  18.430  0.00  0.00    +0.000 A 
ATOM      4  C   UNL     1       5.127   6.161  18.253  0.00  0.00    +0.000 A 
ATOM      5  C   UNL     1       5.843   7.028  17.392  0.00  0.00    +0.000 A 
ATOM      6  C   UNL     1       7.227   7.202  17.468  0.00  0.00    +0.000 A 
ATOM      7  C   UNL     1       7.944   6.452  18.378  0.00  0.00    +0.000 A 
ATOM      8  C   UNL     1       7.295   5.439  19.067  0.00  0.00    +0.000 A 
ATOM      9  C   UNL     1       5.938   5.219  18.897  0.00  0.00    +0.000 A 
ATOM     10  N   UNL     1       5.464   4.019  19.196  0.00  0.00    +0.000 NA
ATOM     11  C   UNL     1       4.188   3.801  18.858  0.00  0.00    +0.000 A 
ATOM     12  C   UNL     1       3.845   2.793  17.979  0.00  0.00    +0.000 A 
ATOM     13  C   UNL     1       2.518   2.630  17.558  0.00  0.00    +0.000 A 
ATOM     14  C   UNL     1       1.516   3.337  18.211  0.00  0.00    +0.000 A 
ATOM     15  C   UNL     1       1.889   4.400  19.019  0.00  0.00    +0.000 A 
ATOM     16  C   UNL     1       3.242   4.784  18.964  0.00  0.00    +0.000 A 
ENDBRANCH   1   3
BRANCH   1  20
ATOM     17  C   UNL     1       0.328   9.859  19.821  0.00  0.00    +0.000 A 
ATOM     18  C   UNL     1       1.006   8.924  20.607  0.00  0.00    +0.000 A 
ATOM     19  C   UNL     1       1.842   7.982  19.999  0.00  0.00    +0.000 A 
ATOM     20  C   UNL     1       2.054   8.002  18.611  0.00  0.00    +0.000 A 
ATOM     21  C   UNL     1       1.540   9.066  17.884  0.00  0.00    +0.000 A 
ATOM     22  C   UNL     1       0.598   9.911  18.452  0.00  0.00    +0.000 A 
BRANCH  17  23
ATOM     23  C   UNL     1      -0.627  10.856  20.420  0.00  0.00    +0.000 C 
BRANCH  23  24
ATOM     24  C   UNL     1      -0.156  11.362  21.787  0.00  0.00    +0.000 C 
BRANCH  24  25
ATOM     25  C   UNL     1      -1.142  11.071  22.925  0.00  0.00    +0.000 C 
BRANCH  25  27
ATOM     26  N   UNL     1      -1.613  13.379  23.440  0.00  0.00    +0.000 N 
ATOM     27  C   UNL     1      -2.162  12.175  23.121  0.00  0.00    +0.000 C 
ATOM     28  O   UNL     1      -3.372  12.030  23.016  0.00  0.00    +0.000 OA
ATOM     29  H   UNL     1      -2.259  14.141  23.656  0.00  0.00    +0.000 HD
ATOM     30  H   UNL     1      -0.641  13.477  23.706  0.00  0.00    +0.000 HD
ENDBRANCH  25  27
ENDBRANCH  24  25
ENDBRANCH  23  24
ENDBRANCH  17  23
ENDBRANCH   1  20
TORSDOF 6
ENDMDL
MODEL 6
REMARK VINA RESULT:      -8.9      1.140      3.432
REMARK  Name = 
REMARK  6 active torsions:
REMARK  status: ('A' for Active; 'I' for Inactive)
REMARK    1  A    between atoms: C_2  and  C_4
REMARK    2  A    between atoms: C_4  and  C_5
REMARK    3  A    between atoms: C_5  and  C_6
REMARK    4  A    between atoms: C_6  and  C_7
REMARK    5  A    between atoms: C_10  and  N_11
REMARK    6  A    between atoms: N_11  and  C_12
REMARK                            x       y       z     vdW  Elec       q    Type
REMARK                         _______ _______ _______ _____ _____    ______ ____
ROOT
ATOM      1  N   UNL     1       3.190   7.393  18.520  0.00  0.00    +0.000 N 
ATOM      2  H   UNL     1       3.957   7.617  19.150  0.00  0.00    +0.000 HD
ENDROOT
BRANCH   1   3
ATOM      3  C   UNL     1       3.321   6.041  18.052  0.00  0.00    +0.000 A 
ATOM      4  C   UNL     1       2.594   4.889  18.541  0.00  0.00    +0.000 A 
ATOM      5  C   UNL     1       1.831   4.739  19.725  0.00  0.00    +0.000 A 
ATOM      6  C   UNL     1       1.022   3.628  19.973  0.00  0.00    +0.000 A 
ATOM      7  C   UNL     1       1.011   2.595  19.057  0.00  0.00    +0.000 A 
ATOM      8  C   UNL     1       1.920   2.621  18.010  0.00  0.00    +0.000 A 
ATOM      9  C   UNL     1       2.784   3.690  17.844  0.00  0.00    +0.000 A 
ATOM     10  N   UNL     1       3.894   3.487  17.152  0.00  0.00    +0.000 NA
ATOM     11  C   UNL     1       4.774   4.494  17.161  0.00  0.00    +0.000 A 
ATOM     12  C   UNL     1       6.051   4.321  17.656  0.00  0.00    +0.000 A 
ATOM     13  C   UNL     1       6.937   5.403  17.749  0.00  0.00    +0.000 A 
ATOM     14  C   UNL     1       6.604   6.597  17.121  0.00  0.00    +0.000 A 
ATOM     15  C   UNL     1       5.291   6.775  16.714  0.00  0.00    +0.000 A 
ATOM     16  C   UNL     1       4.367   5.800  17.134  0.00  0.00    +0.000 A 
ENDBRANCH   1   3
BRANCH   1  20
ATOM     17  C   UNL     1       0.168  10.125  19.518  0.00  0.00    +0.000 A 
ATOM     18  C   UNL     1       0.485   9.906  18.175  0.00  0.00    +0.000 A 
ATOM     19  C   UNL     1       1.448   8.950  17.836  0.00  0.00    +0.000 A 
ATOM     20  C   UNL     1       2.058   8.165  18.827  0.00  0.00    +0.000 A 
ATOM     21  C   UNL     1       1.575   8.253  20.125  0.00  0.00    +0.000 A 
ATOM     22  C   UNL     1       0.733   9.294  20.487  0.00  0.00    +0.000 A 
BRANCH  17  23
ATOM     23  C   UNL     1      -0.818  11.182  19.939  0.00  0.00    +0.000 C 
BRANCH  23  24
ATOM     24  C   UNL     1      -1.429  11.915  18.740  0.00  0.00    +0.000 C 
BRANCH  24  25
ATOM     25  C   UNL     1      -2.927  11.646  18.554  0.00  0.00    +0.000 C 
BRANCH  25  27
ATOM     26  N   UNL     1      -2.274  11.476  16.239  0.00  0.00    +0.000 N 
ATOM     27  C   UNL     1      -3.293  11.301  17.124  0.00  0.00    +0.000 C 
ATOM     28  O   UNL     1      -4.394  10.906  16.765  0.00  0.00    +0.000 OA
ATOM     29  H   UNL     1      -2.487  11.329  15.250  0.00  0.00    +0.000 HD
ATOM     30  H   UNL     1      -1.423  11.967  16.484  0.00  0.00    +0.000 HD
ENDBRANCH  25  27
ENDBRANCH  24  25
ENDBRANCH  23  24
ENDBRANCH  17  23
ENDBRANCH   1  20
TORSDOF 6
ENDMDL
MODEL 7
REMARK VINA RESULT:      -8.9      0.816      1.262
REMARK  Name = 
REMARK  6 active torsions:
REMARK  status: ('A' for Active; 'I' for Inactive)
REMARK    1  A    between atoms: C_2  and  C_4
REMARK    2  A    between atoms: C_4  and  C_5
REMARK    3  A    between atoms: C_5  and  C_6
REMARK    4  A    between atoms: C_6  and  C_7
REMARK    5  A    between atoms: C_10  and  N_11
REMARK    6  A    between atoms: N_11  and  C_12
REMARK                            x       y       z     vdW  Elec       q    Type
REMARK                         _______ _______ _______ _____ _____    ______ ____
ROOT
ATOM      1  N   UNL     1       3.033   6.424  19.954  0.00  0.00    +0.000 N 
ATOM      2  H   UNL     1       2.759   6.117  20.885  0.00  0.00    +0.000 HD
ENDROOT
BRANCH   1   3
ATOM      3  C   UNL     1       3.454   5.294  19.172  0.00  0.00    +0.000 A 
ATOM      4  C   UNL     1       4.152   5.340  17.906  0.00  0.00    +0.000 A 
ATOM      5  C   UNL     1       4.334   6.425  17.013  0.00  0.00    +0.000 A 
ATOM      6  C   UNL     1       5.198   6.371  15.917  0.00  0.00    +0.000 A 
ATOM      7  C   UNL     1       5.860   5.190  15.648  0.00  0.00    +0.000 A 
ATOM      8  C   UNL     1       5.523   4.056  16.371  0.00  0.00    +0.000 A 
ATOM      9  C   UNL     1       4.585   4.114  17.388  0.00  0.00    +0.000 A 
ATOM     10  N   UNL     1       3.975   2.989  17.731  0.00  0.00    +0.000 NA
ATOM     11  C   UNL     1       2.963   3.121  18.595  0.00  0.00    +0.000 A 
ATOM     12  C   UNL     1       1.683   2.725  18.260  0.00  0.00    +0.000 A 
ATOM     13  C   UNL     1       0.611   2.952  19.134  0.00  0.00    +0.000 A 
ATOM     14  C   UNL     1       0.881   3.361  20.434  0.00  0.00    +0.000 A 
ATOM     15  C   UNL     1       2.152   3.835  20.717  0.00  0.00    +0.000 A 
ATOM     16  C   UNL     1       3.007   4.030  19.617  0.00  0.00    +0.000 A 
ENDBRANCH   1   3
BRANCH   1  20
ATOM     17  C   UNL     1       0.551   9.590  18.768  0.00  0.00    +0.000 A 
ATOM     18  C   UNL     1       0.624   9.238  20.118  0.00  0.00    +0.000 A 
ATOM     19  C   UNL     1       1.498   8.225  20.525  0.00  0.00    +0.000 A 
ATOM     20  C   UNL     1       2.346   7.596  19.600  0.00  0.00    +0.000 A 
ATOM     21  C   UNL     1       2.407   8.107  18.312  0.00  0.00    +0.000 A 
ATOM     22  C   UNL     1       1.445   9.004  17.870  0.00  0.00    +0.000 A 
BRANCH  17  23
ATOM     23  C   UNL     1      -0.414  10.632  18.270  0.00  0.00    +0.000 C 
BRANCH  23  24
ATOM     24  C   UNL     1      -1.853  10.349  18.713  0.00  0.00    +0.000 C 
BRANCH  24  25
ATOM     25  C   UNL     1      -2.749   9.815  17.589  0.00  0.00    +0.000 C 
BRANCH  25  27
ATOM     26  N   UNL     1      -3.893  11.835  16.937  0.00  0.00    +0.000 N 
ATOM     27  C   UNL     1      -3.046  10.852  16.525  0.00  0.00    +0.000 C 
ATOM     28  O   UNL     1      -2.589  10.835  15.390  0.00  0.00    +0.000 OA
ATOM     29  H   UNL     1      -4.185  12.520  16.237  0.00  0.00    +0.000 HD
ATOM     30  H   UNL     1      -4.417  11.770  17.801  0.00  0.00    +0.000 HD
ENDBRANCH  25  27
ENDBRANCH  24  25
ENDBRANCH  23  24
ENDBRANCH  17  23
ENDBRANCH   1  20
TORSDOF 6
ENDMDL
MODEL 8
REMARK VINA RESULT:      -8.8      1.097      3.593
REMARK  Name = 
REMARK  6 active torsions:
REMARK  status: ('A' for Active; 'I' for Inactive)
REMARK    1  A    between atoms: C_2  and  C_4
REMARK    2  A    between atoms: C_4  and  C_5
REMARK    3  A    between atoms: C_5  and  C_6
REMARK    4  A    between atoms: C_6  and  C_7
REMARK    5  A    between atoms: C_10  and  N_11
REMARK    6  A    between atoms: N_11  and  C_12
REMARK                            x       y       z     vdW  Elec       q    Type
REMARK                         _______ _______ _______ _____ _____    ______ ____
ROOT
ATOM      1  N   UNL     1       2.843   7.200  19.496  0.00  0.00    +0.000 N 
ATOM      2  H   UNL     1       3.220   7.049  20.429  0.00  0.00    +0.000 HD
ENDROOT
BRANCH   1   3
ATOM      3  C   UNL     1       2.842   5.963  18.764  0.00  0.00    +0.000 A 
ATOM      4  C   UNL     1       2.208   4.727  19.170  0.00  0.00    +0.000 A 
ATOM      5  C   UNL     1       1.708   4.343  20.439  0.00  0.00    +0.000 A 
ATOM      6  C   UNL     1       0.945   3.190  20.638  0.00  0.00    +0.000 A 
ATOM      7  C   UNL     1       0.717   2.349  19.567  0.00  0.00    +0.000 A 
ATOM      8  C   UNL     1       1.386   2.588  18.376  0.00  0.00    +0.000 A 
ATOM      9  C   UNL     1       2.219   3.685  18.236  0.00  0.00    +0.000 A 
ATOM     10  N   UNL     1       3.154   3.635  17.299  0.00  0.00    +0.000 NA
ATOM     11  C   UNL     1       4.039   4.638  17.311  0.00  0.00    +0.000 A 
ATOM     12  C   UNL     1       5.387   4.398  17.484  0.00  0.00    +0.000 A 
ATOM     13  C   UNL     1       6.297   5.459  17.590  0.00  0.00    +0.000 A 
ATOM     14  C   UNL     1       5.866   6.743  17.283  0.00  0.00    +0.000 A 
ATOM     15  C   UNL     1       4.502   6.972  17.203  0.00  0.00    +0.000 A 
ATOM     16  C   UNL     1       3.665   5.918  17.617  0.00  0.00    +0.000 A 
ENDBRANCH   1   3
BRANCH   1  20
ATOM     17  C   UNL     1      -0.224  10.057  19.355  0.00  0.00    +0.000 A 
ATOM     18  C   UNL     1       0.127   9.480  20.578  0.00  0.00    +0.000 A 
ATOM     19  C   UNL     1       1.191   8.574  20.639  0.00  0.00    +0.000 A 
ATOM     20  C   UNL     1       1.949   8.282  19.494  0.00  0.00    +0.000 A 
ATOM     21  C   UNL     1       1.717   9.025  18.345  0.00  0.00    +0.000 A 
ATOM     22  C   UNL     1       0.578   9.810  18.240  0.00  0.00    +0.000 A 
BRANCH  17  23
ATOM     23  C   UNL     1      -1.396  10.993  19.226  0.00  0.00    +0.000 C 
BRANCH  23  24
ATOM     24  C   UNL     1      -1.813  11.202  17.767  0.00  0.00    +0.000 C 
BRANCH  24  25
ATOM     25  C   UNL     1      -2.904  10.233  17.294  0.00  0.00    +0.000 C 
BRANCH  25  27
ATOM     26  N   UNL     1      -3.580  10.464  14.990  0.00  0.00    +0.000 N 
ATOM     27  C   UNL     1      -3.839  10.847  16.271  0.00  0.00    +0.000 C 
ATOM     28  O   UNL     1      -4.747  11.622  16.537  0.00  0.00    +0.000 OA
ATOM     29  H   UNL     1      -4.133  10.906  14.253  0.00  0.00    +0.000 HD
ATOM     30  H   UNL     1      -2.732   9.973  14.734  0.00  0.00    +0.000 HD
ENDBRANCH  25  27
ENDBRANCH  24  25
ENDBRANCH  23  24
ENDBRANCH  17  23
ENDBRANCH   1  20
TORSDOF 6
ENDMDL
MODEL 9
REMARK VINA RESULT:      -8.7      2.425      2.879
REMARK  Name = 
REMARK  6 active torsions:
REMARK  status: ('A' for Active; 'I' for Inactive)
REMARK    1  A    between atoms: C_2  and  C_4
REMARK    2  A    between atoms: C_4  and  C_5
REMARK    3  A    between atoms: C_5  and  C_6
REMARK    4  A    between atoms: C_6  and  C_7
REMARK    5  A    between atoms: C_10  and  N_11
REMARK    6  A    between atoms: N_11  and  C_12
REMARK                            x       y       z     vdW  Elec       q    Type
REMARK                         _______ _______ _______ _____ _____    ______ ____
ROOT
ATOM      1  N   UNL     1       2.259   6.415  18.445  0.00  0.00    +0.000 N 
ATOM      2  H   UNL     1       1.877   6.216  17.523  0.00  0.00    +0.000 HD
ENDROOT
BRANCH   1   3
ATOM      3  C   UNL     1       3.360   5.532  18.718  0.00  0.00    +0.000 A 
ATOM      4  C   UNL     1       4.552   5.373  17.913  0.00  0.00    +0.000 A 
ATOM      5  C   UNL     1       4.807   5.792  16.583  0.00  0.00    +0.000 A 
ATOM      6  C   UNL     1       6.075   5.741  16.000  0.00  0.00    +0.000 A 
ATOM      7  C   UNL     1       7.119   5.201  16.723  0.00  0.00    +0.000 A 
ATOM      8  C   UNL     1       6.844   4.580  17.932  0.00  0.00    +0.000 A 
ATOM      9  C   UNL     1       5.557   4.555  18.442  0.00  0.00    +0.000 A 
ATOM     10  N   UNL     1       5.257   3.607  19.317  0.00  0.00    +0.000 NA
ATOM     11  C   UNL     1       3.966   3.517  19.652  0.00  0.00    +0.000 A 
ATOM     12  C   UNL     1       3.248   2.361  19.423  0.00  0.00    +0.000 A 
ATOM     13  C   UNL     1       1.873   2.305  19.690  0.00  0.00    +0.000 A 
ATOM     14  C   UNL     1       1.287   3.341  20.406  0.00  0.00    +0.000 A 
ATOM     15  C   UNL     1       1.999   4.522  20.545  0.00  0.00    +0.000 A 
ATOM     16  C   UNL     1       3.183   4.631  19.791  0.00  0.00    +0.000 A 
ENDBRANCH   1   3
BRANCH   1  20
ATOM     17  C   UNL     1       1.052  10.326  19.361  0.00  0.00    +0.000 A 
ATOM     18  C   UNL     1       1.152   9.377  20.382  0.00  0.00    +0.000 A 
ATOM     19  C   UNL     1       1.615   8.090  20.090  0.00  0.00    +0.000 A 
ATOM     20  C   UNL     1       2.036   7.757  18.793  0.00  0.00    +0.000 A 
ATOM     21  C   UNL     1       2.127   8.771  17.851  0.00  0.00    +0.000 A 
ATOM     22  C   UNL     1       1.535  10.003  18.092  0.00  0.00    +0.000 A 
BRANCH  17  23
ATOM     23  C   UNL     1       0.505  11.706  19.611  0.00  0.00    +0.000 C 
BRANCH  23  24
ATOM     24  C   UNL     1      -0.827  11.674  20.365  0.00  0.00    +0.000 C 
BRANCH  24  25
ATOM     25  C   UNL     1      -0.784  12.390  21.721  0.00  0.00    +0.000 C 
BRANCH  25  27
ATOM     26  N   UNL     1      -2.381  11.683  23.384  0.00  0.00    +0.000 N 
ATOM     27  C   UNL     1      -1.132  11.480  22.882  0.00  0.00    +0.000 C 
ATOM     28  O   UNL     1      -0.383  10.635  23.352  0.00  0.00    +0.000 OA
ATOM     29  H   UNL     1      -2.640  11.147  24.215  0.00  0.00    +0.000 HD
ATOM     30  H   UNL     1      -2.941  12.488  23.131  0.00  0.00    +0.000 HD
ENDBRANCH  25  27
ENDBRANCH  24  25
ENDBRANCH  23  24
ENDBRANCH  17  23
ENDBRANCH   1  20
TORSDOF 6
ENDMDL
