MODEL 1
REMARK VINA RESULT:      -7.5      0.000      0.000
REMARK  Name = 
REMARK  9 active torsions:
REMARK  status: ('A' for Active; 'I' for Inactive)
REMARK    1  A    between atoms: C_1  and  O_2
REMARK    2  A    between atoms: O_2  and  C_3
REMARK    3  A    between atoms: C_9  and  C_10
REMARK    4  A    between atoms: N_12  and  C_13
REMARK    5  A    between atoms: C_13  and  C_14
REMARK    6  A    between atoms: C_14  and  C_15
REMARK    7  A    between atoms: C_18  and  C_19
REMARK    8  A    between atoms: C_20  and  C_21
REMARK    9  A    between atoms: N_23  and  O_24
REMARK                            x       y       z     vdW  Elec       q    Type
REMARK                         _______ _______ _______ _____ _____    ______ ____
ROOT
ATOM      1  C   UNL     1       2.441   6.115  19.176  0.00  0.00    +0.000 C 
ENDROOT
BRANCH   1   2
ATOM      2  C   UNL     1       3.318   5.583  18.063  0.00  0.00    +0.000 A 
ATOM      3  C   UNL     1       4.251   6.385  17.395  0.00  0.00    +0.000 A 
ATOM      4  C   UNL     1       5.037   5.866  16.363  0.00  0.00    +0.000 A 
ATOM      5  C   UNL     1       4.940   4.520  15.996  0.00  0.00    +0.000 A 
ATOM      6  C   UNL     1       4.023   3.710  16.675  0.00  0.00    +0.000 A 
ATOM      7  C   UNL     1       3.231   4.231  17.706  0.00  0.00    +0.000 A 
BRANCH   5   8
ATOM      8  C   UNL     1       5.777   4.029  14.891  0.00  0.00    +0.000 C 
ATOM      9  C   UNL     1       5.484   4.212  13.594  0.00  0.00    +0.000 C 
BRANCH   9  10
ATOM     10  C   UNL     1       6.365   3.665  12.538  0.00  0.00    +0.000 C 
ATOM     11  O   UNL     1       7.213   4.325  11.940  0.00  0.00    +0.000 OA
ATOM     12  N   UNL     1       6.152   2.335  12.297  0.00  0.00    +0.000 N 
ATOM     13  H   UNL     1       5.497   1.742  12.792  0.00  0.00    +0.000 HD
BRANCH  12  14
ATOM     14  O   UNL     1       6.971   1.719  11.328  0.00  0.00    +0.000 OA
ATOM     15  H   UNL     1       7.759   2.306  11.318  0.00  0.00    +0.000 HD
ENDBRANCH  12  14
ENDBRANCH   9  10
ENDBRANCH   5   8
ENDBRANCH   1   2
BRANCH   1  16
ATOM     16  C   UNL     1       2.682   7.588  19.523  0.00  0.00    +0.000 C 
BRANCH  16  19
ATOM     17  C   UNL     1       1.207   9.157  18.313  0.00  0.00    +0.000 C 
ATOM     18  O   UNL     1       1.973   9.219  17.355  0.00  0.00    +0.000 OA
ATOM     19  N   UNL     1       1.475   8.380  19.415  0.00  0.00    +0.000 N 
ATOM     20  H   UNL     1       0.835   8.420  20.201  0.00  0.00    +0.000 HD
BRANCH  17  27
ATOM     21  C   UNL     1      -0.467  10.860  19.297  0.00  0.00    +0.000 A 
ATOM     22  C   UNL     1      -1.693  11.528  19.162  0.00  0.00    +0.000 A 
ATOM     23  C   UNL     1      -2.529  11.277  18.074  0.00  0.00    +0.000 A 
ATOM     24  C   UNL     1      -2.145  10.359  17.104  0.00  0.00    +0.000 A 
ATOM     25 CL   UNL     1      -3.178  10.055  15.763  0.00  0.00    +0.000 Cl
ATOM     26  C   UNL     1      -0.929   9.693  17.211  0.00  0.00    +0.000 A 
ATOM     27  C   UNL     1      -0.074   9.938  18.302  0.00  0.00    +0.000 A 
BRANCH  21  29
ATOM     28  C   UNL     1      -0.164  11.058  21.651  0.00  0.00    +0.000 C 
ATOM     29  O   UNL     1       0.393  11.112  20.339  0.00  0.00    +0.000 OA
ENDBRANCH  21  29
ENDBRANCH  17  27
ENDBRANCH  16  19
ENDBRANCH   1  16
TORSDOF 8
ENDMDL
MODEL 2
REMARK VINA RESULT:      -7.4      1.741      2.630
REMARK  Name = 
REMARK  9 active torsions:
REMARK  status: ('A' for Active; 'I' for Inactive)
REMARK    1  A    between atoms: C_1  and  O_2
REMARK    2  A    between atoms: O_2  and  C_3
REMARK    3  A    between atoms: C_9  and  C_10
REMARK    4  A    between atoms: N_12  and  C_13
REMARK    5  A    between atoms: C_13  and  C_14
REMARK    6  A    between atoms: C_14  and  C_15
REMARK    7  A    between atoms: C_18  and  C_19
REMARK    8  A    between atoms: C_20  and  C_21
REMARK    9  A    between atoms: N_23  and  O_24
REMARK                            x       y       z     vdW  Elec       q    Type
REMARK                         _______ _______ _______ _____ _____    ______ ____
ROOT
ATOM      1  C   UNL     1       1.085   8.131  20.618  0.00  0.00    +0.000 C 
ENDROOT
BRANCH   1   2
ATOM      2  C   UNL     1       2.075   7.438  19.708  0.00  0.00    +0.000 A 
ATOM      3  C   UNL     1       2.484   7.988  18.487  0.00  0.00    +0.000 A 
ATOM      4  C   UNL     1       3.391   7.316  17.663  0.00  0.00    +0.000 A 
ATOM      5  C   UNL     1       3.945   6.094  18.057  0.00  0.00    +0.000 A 
ATOM      6  C   UNL     1       3.555   5.550  19.286  0.00  0.00    +0.000 A 
ATOM      7  C   UNL     1       2.641   6.220  20.108  0.00  0.00    +0.000 A 
BRANCH   5   8
ATOM      8  C   UNL     1       4.881   5.420  17.144  0.00  0.00    +0.000 C 
ATOM      9  C   UNL     1       5.261   5.922  15.958  0.00  0.00    +0.000 C 
BRANCH   9  10
ATOM     10  C   UNL     1       6.189   5.171  15.083  0.00  0.00    +0.000 C 
ATOM     11  O   UNL     1       7.401   5.369  15.037  0.00  0.00    +0.000 OA
ATOM     12  N   UNL     1       5.562   4.215  14.332  0.00  0.00    +0.000 N 
ATOM     13  H   UNL     1       4.576   3.987  14.368  0.00  0.00    +0.000 HD
BRANCH  12  14
ATOM     14  O   UNL     1       6.374   3.424  13.492  0.00  0.00    +0.000 OA
ATOM     15  H   UNL     1       7.238   3.889  13.539  0.00  0.00    +0.000 HD
ENDBRANCH  12  14
ENDBRANCH   9  10
ENDBRANCH   5   8
ENDBRANCH   1   2
BRANCH   1  16
ATOM     16  C   UNL     1       0.976   9.645  20.401  0.00  0.00    +0.000 C 
BRANCH  16  19
ATOM     17  C   UNL     1      -0.442  10.319  18.494  0.00  0.00    +0.000 C 
ATOM     18  O   UNL     1       0.501  10.271  17.709  0.00  0.00    +0.000 OA
ATOM     19  N   UNL     1      -0.299  10.025  19.829  0.00  0.00    +0.000 N 
ATOM     20  H   UNL     1      -1.101  10.143  20.438  0.00  0.00    +0.000 HD
BRANCH  17  27
ATOM     21  C   UNL     1      -2.763  11.422  18.754  0.00  0.00    +0.000 A 
ATOM     22  C   UNL     1      -4.005  11.718  18.173  0.00  0.00    +0.000 A 
ATOM     23  C   UNL     1      -4.309  11.292  16.880  0.00  0.00    +0.000 A 
ATOM     24  C   UNL     1      -3.372  10.570  16.150  0.00  0.00    +0.000 A 
ATOM     25 CL   UNL     1      -3.751  10.050  14.556  0.00  0.00    +0.000 Cl
ATOM     26  C   UNL     1      -2.131  10.275  16.702  0.00  0.00    +0.000 A 
ATOM     27  C   UNL     1      -1.808  10.701  18.005  0.00  0.00    +0.000 A 
BRANCH  21  29
ATOM     28  C   UNL     1      -3.262  12.855  20.590  0.00  0.00    +0.000 C 
ATOM     29  O   UNL     1      -2.422  11.858  20.012  0.00  0.00    +0.000 OA
ENDBRANCH  21  29
ENDBRANCH  17  27
ENDBRANCH  16  19
ENDBRANCH   1  16
TORSDOF 8
ENDMDL
MODEL 3
REMARK VINA RESULT:      -7.4      2.677      3.883
REMARK  Name = 
REMARK  9 active torsions:
REMARK  status: ('A' for Active; 'I' for Inactive)
REMARK    1  A    between atoms: C_1  and  O_2
REMARK    2  A    between atoms: O_2  and  C_3
REMARK    3  A    between atoms: C_9  and  C_10
REMARK    4  A    between atoms: N_12  and  C_13
REMARK    5  A    between atoms: C_13  and  C_14
REMARK    6  A    between atoms: C_14  and  C_15
REMARK    7  A    between atoms: C_18  and  C_19
REMARK    8  A    between atoms: C_20  and  C_21
REMARK    9  A    between atoms: N_23  and  O_24
REMARK                            x       y       z     vdW  Elec       q    Type
REMARK                         _______ _______ _______ _____ _____    ______ ____
ROOT
ATOM      1  C   UNL     1       1.192   7.378  20.828  0.00  0.00    +0.000 C 
ENDROOT
BRANCH   1   2
ATOM      2  C   UNL     1       2.158   6.787  19.824  0.00  0.00    +0.000 A 
ATOM      3  C   UNL     1       2.587   7.491  18.692  0.00  0.00    +0.000 A 
ATOM      4  C   UNL     1       3.471   6.912  17.777  0.00  0.00    +0.000 A 
ATOM      5  C   UNL     1       3.980   5.628  17.989  0.00  0.00    +0.000 A 
ATOM      6  C   UNL     1       3.570   4.928  19.130  0.00  0.00    +0.000 A 
ATOM      7  C   UNL     1       2.680   5.506  20.044  0.00  0.00    +0.000 A 
BRANCH   5   8
ATOM      8  C   UNL     1       4.893   5.058  16.986  0.00  0.00    +0.000 C 
ATOM      9  C   UNL     1       5.360   5.741  15.928  0.00  0.00    +0.000 C 
BRANCH   9  10
ATOM     10  C   UNL     1       6.256   5.089  14.946  0.00  0.00    +0.000 C 
ATOM     11  O   UNL     1       7.447   5.365  14.816  0.00  0.00    +0.000 OA
ATOM     12  N   UNL     1       5.627   4.131  14.199  0.00  0.00    +0.000 N 
ATOM     13  H   UNL     1       4.662   3.841  14.300  0.00  0.00    +0.000 HD
BRANCH  12  14
ATOM     14  O   UNL     1       6.413   3.432  13.260  0.00  0.00    +0.000 OA
ATOM     15  H   UNL     1       6.292   2.498  13.541  0.00  0.00    +0.000 HD
ENDBRANCH  12  14
ENDBRANCH   9  10
ENDBRANCH   5   8
ENDBRANCH   1   2
BRANCH   1  16
ATOM     16  C   UNL     1       1.609   8.746  21.379  0.00  0.00    +0.000 C 
BRANCH  16  19
ATOM     17  C   UNL     1      -0.049  10.254  22.421  0.00  0.00    +0.000 C 
ATOM     18  O   UNL     1       0.307   9.944  23.555  0.00  0.00    +0.000 OA
ATOM     19  N   UNL     1       0.538   9.718  21.299  0.00  0.00    +0.000 N 
ATOM     20  H   UNL     1       0.159   9.964  20.391  0.00  0.00    +0.000 HD
BRANCH  17  27
ATOM     21  C   UNL     1      -1.336  12.033  21.062  0.00  0.00    +0.000 A 
ATOM     22  C   UNL     1      -2.414  12.929  21.007  0.00  0.00    +0.000 A 
ATOM     23  C   UNL     1      -3.282  13.071  22.089  0.00  0.00    +0.000 A 
ATOM     24  C   UNL     1      -3.087  12.312  23.237  0.00  0.00    +0.000 A 
ATOM     25 CL   UNL     1      -4.163  12.488  24.567  0.00  0.00    +0.000 Cl
ATOM     26  C   UNL     1      -2.033  11.409  23.309  0.00  0.00    +0.000 A 
ATOM     27  C   UNL     1      -1.149  11.253  22.224  0.00  0.00    +0.000 A 
BRANCH  21  29
ATOM     28  C   UNL     1      -1.083  11.790  18.706  0.00  0.00    +0.000 C 
ATOM     29  O   UNL     1      -0.484  11.846  19.999  0.00  0.00    +0.000 OA
ENDBRANCH  21  29
ENDBRANCH  17  27
ENDBRANCH  16  19
ENDBRANCH   1  16
TORSDOF 8
ENDMDL
MODEL 4
REMARK VINA RESULT:      -7.3      2.914      4.248
REMARK  Name = 
REMARK  9 active torsions:
REMARK  status: ('A' for Active; 'I' for Inactive)
REMARK    1  A    between atoms: C_1  and  O_2
REMARK    2  A    between atoms: O_2  and  C_3
REMARK    3  A    between atoms: C_9  and  C_10
REMARK    4  A    between atoms: N_12  and  C_13
REMARK    5  A    between atoms: C_13  and  C_14
REMARK    6  A    between atoms: C_14  and  C_15
REMARK    7  A    between atoms: C_18  and  C_19
REMARK    8  A    between atoms: C_20  and  C_21
REMARK    9  A    between atoms: N_23  and  O_24
REMARK                            x       y       z     vdW  Elec       q    Type
REMARK                         _______ _______ _______ _____ _____    ______ ____
ROOT
ATOM      1  C   UNL     1       1.077   7.727  21.096  0.00  0.00    +0.000 C 
ENDROOT
BRANCH   1   2
ATOM      2  C   UNL     1       1.991   7.380  19.941  0.00  0.00    +0.000 A 
ATOM      3  C   UNL     1       2.714   6.182  19.892  0.00  0.00    +0.000 A 
ATOM      4  C   UNL     1       3.560   5.896  18.816  0.00  0.00    +0.000 A 
ATOM      5  C   UNL     1       3.675   6.783  17.741  0.00  0.00    +0.000 A 
ATOM      6  C   UNL     1       2.938   7.973  17.777  0.00  0.00    +0.000 A 
ATOM      7  C   UNL     1       2.096   8.261  18.857  0.00  0.00    +0.000 A 
BRANCH   5   8
ATOM      8  C   UNL     1       4.593   6.443  16.643  0.00  0.00    +0.000 C 
ATOM      9  C   UNL     1       5.042   5.200  16.403  0.00  0.00    +0.000 C 
BRANCH   9  10
ATOM     10  C   UNL     1       5.985   4.941  15.292  0.00  0.00    +0.000 C 
ATOM     11  O   UNL     1       5.777   4.135  14.388  0.00  0.00    +0.000 OA
ATOM     12  N   UNL     1       7.119   5.704  15.362  0.00  0.00    +0.000 N 
ATOM     13  H   UNL     1       7.314   6.411  16.062  0.00  0.00    +0.000 HD
BRANCH  12  14
ATOM     14  O   UNL     1       8.061   5.550  14.325  0.00  0.00    +0.000 OA
ATOM     15  H   UNL     1       8.795   5.078  14.777  0.00  0.00    +0.000 HD
ENDBRANCH  12  14
ENDBRANCH   9  10
ENDBRANCH   5   8
ENDBRANCH   1   2
BRANCH   1  16
ATOM     16  C   UNL     1       1.229   9.162  21.615  0.00  0.00    +0.000 C 
BRANCH  16  19
ATOM     17  C   UNL     1      -0.109  11.238  21.665  0.00  0.00    +0.000 C 
ATOM     18  O   UNL     1       0.895  11.946  21.631  0.00  0.00    +0.000 OA
ATOM     19  N   UNL     1      -0.036   9.865  21.657  0.00  0.00    +0.000 N 
ATOM     20  H   UNL     1      -0.895   9.336  21.751  0.00  0.00    +0.000 HD
BRANCH  17  27
ATOM     21  C   UNL     1      -2.116  12.476  20.612  0.00  0.00    +0.000 A 
ATOM     22  C   UNL     1      -3.396  13.021  20.789  0.00  0.00    +0.000 A 
ATOM     23  C   UNL     1      -4.021  12.986  22.036  0.00  0.00    +0.000 A 
ATOM     24  C   UNL     1      -3.377  12.398  23.117  0.00  0.00    +0.000 A 
ATOM     25 CL   UNL     1      -4.155  12.354  24.650  0.00  0.00    +0.000 Cl
ATOM     26  C   UNL     1      -2.113  11.840  22.962  0.00  0.00    +0.000 A 
ATOM     27  C   UNL     1      -1.470  11.866  21.710  0.00  0.00    +0.000 A 
BRANCH  21  29
ATOM     28  C   UNL     1      -2.131  11.726  18.351  0.00  0.00    +0.000 C 
ATOM     29  O   UNL     1      -1.488  12.464  19.389  0.00  0.00    +0.000 OA
ENDBRANCH  21  29
ENDBRANCH  17  27
ENDBRANCH  16  19
ENDBRANCH   1  16
TORSDOF 8
ENDMDL
MODEL 5
REMARK VINA RESULT:      -7.2      4.921      7.615
REMARK  Name = 
REMARK  9 active torsions:
REMARK  status: ('A' for Active; 'I' for Inactive)
REMARK    1  A    between atoms: C_1  and  O_2
REMARK    2  A    between atoms: O_2  and  C_3
REMARK    3  A    between atoms: C_9  and  C_10
REMARK    4  A    between atoms: N_12  and  C_13
REMARK    5  A    between atoms: C_13  and  C_14
REMARK    6  A    between atoms: C_14  and  C_15
REMARK    7  A    between atoms: C_18  and  C_19
REMARK    8  A    between atoms: C_20  and  C_21
REMARK    9  A    between atoms: N_23  and  O_24
REMARK                            x       y       z     vdW  Elec       q    Type
REMARK                         _______ _______ _______ _____ _____    ______ ____
ROOT
ATOM      1  C   UNL     1       6.677   4.100  16.031  0.00  0.00    +0.000 C 
ENDROOT
BRANCH   1   2
ATOM      2  C   UNL     1       7.166   5.283  16.837  0.00  0.00    +0.000 A 
ATOM      3  C   UNL     1       7.669   5.148  18.137  0.00  0.00    +0.000 A 
ATOM      4  C   UNL     1       8.102   6.263  18.860  0.00  0.00    +0.000 A 
ATOM      5  C   UNL     1       8.079   7.539  18.289  0.00  0.00    +0.000 A 
ATOM      6  C   UNL     1       7.596   7.676  16.982  0.00  0.00    +0.000 A 
ATOM      7  C   UNL     1       7.157   6.560  16.260  0.00  0.00    +0.000 A 
BRANCH   5   8
ATOM      8  C   UNL     1       8.529   8.681  19.099  0.00  0.00    +0.000 C 
ATOM      9  C   UNL     1       8.990   9.831  18.580  0.00  0.00    +0.000 C 
BRANCH   9  10
ATOM     10  C   UNL     1       9.448  10.927  19.464  0.00  0.00    +0.000 C 
ATOM     11  O   UNL     1       9.802  12.032  19.059  0.00  0.00    +0.000 OA
ATOM     12  N   UNL     1       9.429  10.590  20.790  0.00  0.00    +0.000 N 
ATOM     13  H   UNL     1       9.106   9.709  21.172  0.00  0.00    +0.000 HD
BRANCH  12  14
ATOM     14  O   UNL     1       9.817  11.585  21.710  0.00  0.00    +0.000 OA
ATOM     15  H   UNL     1       9.354  11.304  22.530  0.00  0.00    +0.000 HD
ENDBRANCH  12  14
ENDBRANCH   9  10
ENDBRANCH   5   8
ENDBRANCH   1   2
BRANCH   1  16
ATOM     16  C   UNL     1       5.187   4.150  15.671  0.00  0.00    +0.000 C 
BRANCH  16  19
ATOM     17  C   UNL     1       3.822   3.687  17.677  0.00  0.00    +0.000 C 
ATOM     18  O   UNL     1       3.999   2.476  17.581  0.00  0.00    +0.000 OA
ATOM     19  N   UNL     1       4.370   4.580  16.787  0.00  0.00    +0.000 N 
ATOM     20  H   UNL     1       4.136   5.562  16.881  0.00  0.00    +0.000 HD
BRANCH  17  27
ATOM     21  C   UNL     1       2.668   5.602  18.969  0.00  0.00    +0.000 A 
ATOM     22  C   UNL     1       1.875   5.983  20.062  0.00  0.00    +0.000 A 
ATOM     23  C   UNL     1       1.427   5.038  20.985  0.00  0.00    +0.000 A 
ATOM     24  C   UNL     1       1.759   3.699  20.821  0.00  0.00    +0.000 A 
ATOM     25 CL   UNL     1       1.200   2.538  21.960  0.00  0.00    +0.000 Cl
ATOM     26  C   UNL     1       2.533   3.297  19.739  0.00  0.00    +0.000 A 
ATOM     27  C   UNL     1       2.991   4.238  18.798  0.00  0.00    +0.000 A 
BRANCH  21  29
ATOM     28  C   UNL     1       2.625   7.844  18.166  0.00  0.00    +0.000 C 
ATOM     29  O   UNL     1       3.095   6.505  18.025  0.00  0.00    +0.000 OA
ENDBRANCH  21  29
ENDBRANCH  17  27
ENDBRANCH  16  19
ENDBRANCH   1  16
TORSDOF 8
ENDMDL
MODEL 6
REMARK VINA RESULT:      -7.2      3.948      8.640
REMARK  Name = 
REMARK  9 active torsions:
REMARK  status: ('A' for Active; 'I' for Inactive)
REMARK    1  A    between atoms: C_1  and  O_2
REMARK    2  A    between atoms: O_2  and  C_3
REMARK    3  A    between atoms: C_9  and  C_10
REMARK    4  A    between atoms: N_12  and  C_13
REMARK    5  A    between atoms: C_13  and  C_14
REMARK    6  A    between atoms: C_14  and  C_15
REMARK    7  A    between atoms: C_18  and  C_19
REMARK    8  A    between atoms: C_20  and  C_21
REMARK    9  A    between atoms: N_23  and  O_24
REMARK                            x       y       z     vdW  Elec       q    Type
REMARK                         _______ _______ _______ _____ _____    ______ ____
ROOT
ATOM      1  C   UNL     1       1.874   3.819  20.139  0.00  0.00    +0.000 C 
ENDROOT
BRANCH   1   2
ATOM      2  C   UNL     1       1.915   5.278  19.741  0.00  0.00    +0.000 A 
ATOM      3  C   UNL     1       2.065   5.688  18.410  0.00  0.00    +0.000 A 
ATOM      4  C   UNL     1       2.111   7.045  18.077  0.00  0.00    +0.000 A 
ATOM      5  C   UNL     1       1.970   8.028  19.061  0.00  0.00    +0.000 A 
ATOM      6  C   UNL     1       1.801   7.622  20.389  0.00  0.00    +0.000 A 
ATOM      7  C   UNL     1       1.759   6.263  20.724  0.00  0.00    +0.000 A 
BRANCH   5   8
ATOM      8  C   UNL     1       2.045   9.441  18.659  0.00  0.00    +0.000 C 
ATOM      9  C   UNL     1       1.145  10.370  19.021  0.00  0.00    +0.000 C 
BRANCH   9  10
ATOM     10  C   UNL     1       1.275  11.768  18.555  0.00  0.00    +0.000 C 
ATOM     11  O   UNL     1       0.533  12.682  18.908  0.00  0.00    +0.000 OA
ATOM     12  N   UNL     1       2.321  11.950  17.691  0.00  0.00    +0.000 N 
ATOM     13  H   UNL     1       2.983  11.239  17.406  0.00  0.00    +0.000 HD
BRANCH  12  14
ATOM     14  O   UNL     1       2.543  13.261  17.220  0.00  0.00    +0.000 OA
ATOM     15  H   UNL     1       1.798  13.387  16.592  0.00  0.00    +0.000 HD
ENDBRANCH  12  14
ENDBRANCH   9  10
ENDBRANCH   5   8
ENDBRANCH   1   2
BRANCH   1  16
ATOM     16  C   UNL     1       3.252   3.161  20.280  0.00  0.00    +0.000 C 
BRANCH  16  19
ATOM     17  C   UNL     1       4.348   3.134  18.066  0.00  0.00    +0.000 C 
ATOM     18  O   UNL     1       3.670   2.183  17.686  0.00  0.00    +0.000 OA
ATOM     19  N   UNL     1       4.205   3.678  19.321  0.00  0.00    +0.000 N 
ATOM     20  H   UNL     1       4.837   4.421  19.599  0.00  0.00    +0.000 HD
BRANCH  17  27
ATOM     21  C   UNL     1       6.505   4.465  17.572  0.00  0.00    +0.000 A 
ATOM     22  C   UNL     1       7.382   4.983  16.607  0.00  0.00    +0.000 A 
ATOM     23  C   UNL     1       7.127   4.813  15.246  0.00  0.00    +0.000 A 
ATOM     24  C   UNL     1       5.997   4.119  14.834  0.00  0.00    +0.000 A 
ATOM     25 CL   UNL     1       5.691   3.910  13.154  0.00  0.00    +0.000 Cl
ATOM     26  C   UNL     1       5.121   3.586  15.773  0.00  0.00    +0.000 A 
ATOM     27  C   UNL     1       5.365   3.746  17.150  0.00  0.00    +0.000 A 
BRANCH  21  29
ATOM     28  C   UNL     1       7.499   5.724  19.332  0.00  0.00    +0.000 C 
ATOM     29  O   UNL     1       6.747   4.585  18.920  0.00  0.00    +0.000 OA
ENDBRANCH  21  29
ENDBRANCH  17  27
ENDBRANCH  16  19
ENDBRANCH   1  16
TORSDOF 8
ENDMDL
MODEL 7
REMARK VINA RESULT:      -7.1      2.825      4.092
REMARK  Name = 
REMARK  9 active torsions:
REMARK  status: ('A' for Active; 'I' for Inactive)
REMARK    1  A    between atoms: C_1  and  O_2
REMARK    2  A    between atoms: O_2  and  C_3
REMARK    3  A    between atoms: C_9  and  C_10
REMARK    4  A    between atoms: N_12  and  C_13
REMARK    5  A    between atoms: C_13  and  C_14
REMARK    6  A    between atoms: C_14  and  C_15
REMARK    7  A    between atoms: C_18  and  C_19
REMARK    8  A    between atoms: C_20  and  C_21
REMARK    9  A    between atoms: N_23  and  O_24
REMARK                            x       y       z     vdW  Elec       q    Type
REMARK                         _______ _______ _______ _____ _____    ______ ____
ROOT
ATOM      1  C   UNL     1       1.547   2.284  19.813  0.00  0.00    +0.000 C 
ENDROOT
BRANCH   1   2
ATOM      2  C   UNL     1       2.573   2.823  18.840  0.00  0.00    +0.000 A 
ATOM      3  C   UNL     1       2.233   3.242  17.548  0.00  0.00    +0.000 A 
ATOM      4  C   UNL     1       3.207   3.723  16.668  0.00  0.00    +0.000 A 
ATOM      5  C   UNL     1       4.541   3.836  17.071  0.00  0.00    +0.000 A 
ATOM      6  C   UNL     1       4.881   3.437  18.369  0.00  0.00    +0.000 A 
ATOM      7  C   UNL     1       3.907   2.950  19.248  0.00  0.00    +0.000 A 
BRANCH   5   8
ATOM      8  C   UNL     1       5.529   4.332  16.101  0.00  0.00    +0.000 C 
ATOM      9  C   UNL     1       5.663   3.846  14.856  0.00  0.00    +0.000 C 
BRANCH   9  10
ATOM     10  C   UNL     1       6.700   4.382  13.945  0.00  0.00    +0.000 C 
ATOM     11  O   UNL     1       6.787   4.087  12.755  0.00  0.00    +0.000 OA
ATOM     12  N   UNL     1       7.555   5.254  14.561  0.00  0.00    +0.000 N 
ATOM     13  H   UNL     1       7.497   5.559  15.525  0.00  0.00    +0.000 HD
BRANCH  12  14
ATOM     14  O   UNL     1       8.557   5.842  13.761  0.00  0.00    +0.000 OA
ATOM     15  H   UNL     1       8.410   6.802  13.914  0.00  0.00    +0.000 HD
ENDBRANCH  12  14
ENDBRANCH   9  10
ENDBRANCH   5   8
ENDBRANCH   1   2
BRANCH   1  16
ATOM     16  C   UNL     1       1.218   3.228  20.975  0.00  0.00    +0.000 C 
BRANCH  16  19
ATOM     17  C   UNL     1       1.967   5.577  20.816  0.00  0.00    +0.000 C 
ATOM     18  O   UNL     1       2.993   5.346  21.451  0.00  0.00    +0.000 OA
ATOM     19  N   UNL     1       1.045   4.597  20.535  0.00  0.00    +0.000 N 
ATOM     20  H   UNL     1       0.188   4.862  20.062  0.00  0.00    +0.000 HD
BRANCH  17  27
ATOM     21  C   UNL     1       2.191   7.499  19.105  0.00  0.00    +0.000 A 
ATOM     22  C   UNL     1       1.850   8.812  18.748  0.00  0.00    +0.000 A 
ATOM     23  C   UNL     1       1.045   9.592  19.579  0.00  0.00    +0.000 A 
ATOM     24  C   UNL     1       0.567   9.067  20.773  0.00  0.00    +0.000 A 
ATOM     25 CL   UNL     1      -0.427  10.032  21.791  0.00  0.00    +0.000 Cl
ATOM     26  C   UNL     1       0.883   7.763  21.141  0.00  0.00    +0.000 A 
ATOM     27  C   UNL     1       1.691   6.962  20.312  0.00  0.00    +0.000 A 
BRANCH  21  29
ATOM     28  C   UNL     1       3.877   7.353  17.429  0.00  0.00    +0.000 C 
ATOM     29  O   UNL     1       2.953   6.694  18.292  0.00  0.00    +0.000 OA
ENDBRANCH  21  29
ENDBRANCH  17  27
ENDBRANCH  16  19
ENDBRANCH   1  16
TORSDOF 8
ENDMDL
MODEL 8
REMARK VINA RESULT:      -7.1      1.634      2.239
REMARK  Name = 
REMARK  9 active torsions:
REMARK  status: ('A' for Active; 'I' for Inactive)
REMARK    1  A    between atoms: C_1  and  O_2
REMARK    2  A    between atoms: O_2  and  C_3
REMARK    3  A    between atoms: C_9  and  C_10
REMARK    4  A    between atoms: N_12  and  C_13
REMARK    5  A    between atoms: C_13  and  C_14
REMARK    6  A    between atoms: C_14  and  C_15
REMARK    7  A    between atoms: C_18  and  C_19
REMARK    8  A    between atoms: C_20  and  C_21
REMARK    9  A    between atoms: N_23  and  O_24
REMARK                            x       y       z     vdW  Elec       q    Type
REMARK                         _______ _______ _______ _____ _____    ______ ____
ROOT
ATOM      1  C   UNL     1       1.306   6.950  20.809  0.00  0.00    +0.000 C 
ENDROOT
BRANCH   1   2
ATOM      2  C   UNL     1       2.287   6.422  19.786  0.00  0.00    +0.000 A 
ATOM      3  C   UNL     1       2.700   7.178  18.682  0.00  0.00    +0.000 A 
ATOM      4  C   UNL     1       3.599   6.656  17.748  0.00  0.00    +0.000 A 
ATOM      5  C   UNL     1       4.141   5.377  17.914  0.00  0.00    +0.000 A 
ATOM      6  C   UNL     1       3.746   4.626  19.026  0.00  0.00    +0.000 A 
ATOM      7  C   UNL     1       2.841   5.146  19.959  0.00  0.00    +0.000 A 
BRANCH   5   8
ATOM      8  C   UNL     1       5.069   4.868  16.892  0.00  0.00    +0.000 C 
ATOM      9  C   UNL     1       5.390   5.540  15.774  0.00  0.00    +0.000 C 
BRANCH   9  10
ATOM     10  C   UNL     1       6.313   4.949  14.779  0.00  0.00    +0.000 C 
ATOM     11  O   UNL     1       7.504   5.240  14.691  0.00  0.00    +0.000 OA
ATOM     12  N   UNL     1       5.709   4.028  13.967  0.00  0.00    +0.000 N 
ATOM     13  H   UNL     1       4.745   3.725  14.031  0.00  0.00    +0.000 HD
BRANCH  12  14
ATOM     14  O   UNL     1       6.522   3.386  13.010  0.00  0.00    +0.000 OA
ATOM     15  H   UNL     1       5.982   2.601  12.770  0.00  0.00    +0.000 HD
ENDBRANCH  12  14
ENDBRANCH   9  10
ENDBRANCH   5   8
ENDBRANCH   1   2
BRANCH   1  16
ATOM     16  C   UNL     1       1.547   8.405  21.227  0.00  0.00    +0.000 C 
BRANCH  16  19
ATOM     17  C   UNL     1       0.309  10.134  19.969  0.00  0.00    +0.000 C 
ATOM     18  O   UNL     1       1.225  10.276  19.163  0.00  0.00    +0.000 OA
ATOM     19  N   UNL     1       0.382   9.238  21.009  0.00  0.00    +0.000 N 
ATOM     20  H   UNL     1      -0.378   9.211  21.678  0.00  0.00    +0.000 HD
BRANCH  17  27
ATOM     21  C   UNL     1      -1.421  11.864  20.796  0.00  0.00    +0.000 A 
ATOM     22  C   UNL     1      -2.609  12.565  20.540  0.00  0.00    +0.000 A 
ATOM     23  C   UNL     1      -3.328  12.350  19.364  0.00  0.00    +0.000 A 
ATOM     24  C   UNL     1      -2.863  11.437  18.426  0.00  0.00    +0.000 A 
ATOM     25 CL   UNL     1      -3.751  11.178  16.976  0.00  0.00    +0.000 Cl
ATOM     26  C   UNL     1      -1.682  10.739  18.653  0.00  0.00    +0.000 A 
ATOM     27  C   UNL     1      -0.944  10.947  19.834  0.00  0.00    +0.000 A 
BRANCH  21  29
ATOM     28  C   UNL     1      -1.167  13.060  22.840  0.00  0.00    +0.000 C 
ATOM     29  O   UNL     1      -0.674  12.079  21.929  0.00  0.00    +0.000 OA
ENDBRANCH  21  29
ENDBRANCH  17  27
ENDBRANCH  16  19
ENDBRANCH   1  16
TORSDOF 8
ENDMDL
MODEL 9
REMARK VINA RESULT:      -7.1      2.111      2.852
REMARK  Name = 
REMARK  9 active torsions:
REMARK  status: ('A' for Active; 'I' for Inactive)
REMARK    1  A    between atoms: C_1  and  O_2
REMARK    2  A    between atoms: O_2  and  C_3
REMARK    3  A    between atoms: C_9  and  C_10
REMARK    4  A    between atoms: N_12  and  C_13
REMARK    5  A    between atoms: C_13  and  C_14
REMARK    6  A    between atoms: C_14  and  C_15
REMARK    7  A    between atoms: C_18  and  C_19
REMARK    8  A    between atoms: C_20  and  C_21
REMARK    9  A    between atoms: N_23  and  O_24
REMARK                            x       y       z     vdW  Elec       q    Type
REMARK                         _______ _______ _______ _____ _____    ______ ____
ROOT
ATOM      1  C   UNL     1       3.169   6.873  18.635  0.00  0.00    +0.000 C 
ENDROOT
BRANCH   1   2
ATOM      2  C   UNL     1       3.899   6.110  17.552  0.00  0.00    +0.000 A 
ATOM      3  C   UNL     1       3.833   4.716  17.442  0.00  0.00    +0.000 A 
ATOM      4  C   UNL     1       4.529   4.039  16.436  0.00  0.00    +0.000 A 
ATOM      5  C   UNL     1       5.280   4.743  15.489  0.00  0.00    +0.000 A 
ATOM      6  C   UNL     1       5.333   6.138  15.583  0.00  0.00    +0.000 A 
ATOM      7  C   UNL     1       4.640   6.815  16.594  0.00  0.00    +0.000 A 
BRANCH   5   8
ATOM      8  C   UNL     1       6.009   3.981  14.463  0.00  0.00    +0.000 C 
ATOM      9  C   UNL     1       5.692   3.995  13.158  0.00  0.00    +0.000 C 
BRANCH   9  10
ATOM     10  C   UNL     1       6.459   3.180  12.188  0.00  0.00    +0.000 C 
ATOM     11  O   UNL     1       7.477   3.569  11.618  0.00  0.00    +0.000 OA
ATOM     12  N   UNL     1       5.927   1.935  11.994  0.00  0.00    +0.000 N 
ATOM     13  H   UNL     1       5.118   1.556  12.472  0.00  0.00    +0.000 HD
BRANCH  12  14
ATOM     14  O   UNL     1       6.612   1.074  11.111  0.00  0.00    +0.000 OA
ATOM     15  H   UNL     1       6.434   0.190  11.501  0.00  0.00    +0.000 HD
ENDBRANCH  12  14
ENDBRANCH   9  10
ENDBRANCH   5   8
ENDBRANCH   1   2
BRANCH   1  16
ATOM     16  C   UNL     1       2.044   7.780  18.123  0.00  0.00    +0.000 C 
BRANCH  16  19
ATOM     17  C   UNL     1       0.785   9.801  18.784  0.00  0.00    +0.000 C 
ATOM     18  O   UNL     1       0.019   9.697  17.829  0.00  0.00    +0.000 OA
ATOM     19  N   UNL     1       1.802   8.903  19.005  0.00  0.00    +0.000 N 
ATOM     20  H   UNL     1       2.440   9.076  19.774  0.00  0.00    +0.000 HD
BRANCH  17  27
ATOM     21  C   UNL     1       1.352  12.136  19.729  0.00  0.00    +0.000 A 
ATOM     22  C   UNL     1       1.097  13.113  20.703  0.00  0.00    +0.000 A 
ATOM     23  C   UNL     1       0.151  12.894  21.705  0.00  0.00    +0.000 A 
ATOM     24  C   UNL     1      -0.555  11.698  21.741  0.00  0.00    +0.000 A 
ATOM     25 CL   UNL     1      -1.722  11.435  22.976  0.00  0.00    +0.000 Cl
ATOM     26  C   UNL     1      -0.327  10.720  20.779  0.00  0.00    +0.000 A 
ATOM     27  C   UNL     1       0.622  10.927  19.760  0.00  0.00    +0.000 A 
BRANCH  21  29
ATOM     28  C   UNL     1       2.300  13.649  18.153  0.00  0.00    +0.000 C 
ATOM     29  O   UNL     1       2.252  12.337  18.710  0.00  0.00    +0.000 OA
ENDBRANCH  21  29
ENDBRANCH  17  27
ENDBRANCH  16  19
ENDBRANCH   1  16
TORSDOF 8
ENDMDL
