MODEL 1
REMARK VINA RESULT:      -7.9      0.000      0.000
REMARK  Name = 
REMARK  4 active torsions:
REMARK  status: ('A' for Active; 'I' for Inactive)
REMARK    1  A    between atoms: C_1  and  N_2
REMARK    2  A    between atoms: C_7  and  C_8
REMARK    3  A    between atoms: N_15  and  C_16
REMARK    4  A    between atoms: C_16  and  C_17
REMARK                            x       y       z     vdW  Elec       q    Type
REMARK                         _______ _______ _______ _____ _____    ______ ____
ROOT
ATOM      1  C   UNL     1       2.586   2.579  21.633  0.00  0.00    +0.000 C 
ATOM      2  N   UNL     1       2.894   3.225  20.376  0.00  0.00    +0.000 N 
ATOM      3  C   UNL     1       4.011   2.769  19.671  0.00  0.00    +0.000 A 
ATOM      4  O   UNL     1       4.720   1.830  20.003  0.00  0.00    +0.000 OA
ATOM      5  C   UNL     1       4.253   3.529  18.505  0.00  0.00    +0.000 A 
ATOM      6  N   UNL     1       5.195   3.353  17.543  0.00  0.00    +0.000 N 
ATOM      7  C   UNL     1       5.007   4.335  16.600  0.00  0.00    +0.000 A 
ATOM      8  N   UNL     1       4.034   5.157  16.972  0.00  0.00    +0.000 NA
ATOM      9  C   UNL     1       3.533   4.618  18.125  0.00  0.00    +0.000 A 
ATOM     10  N   UNL     1       2.427   5.032  18.851  0.00  0.00    +0.000 N 
ATOM     11  C   UNL     1       2.051   4.286  19.979  0.00  0.00    +0.000 A 
ATOM     12  O   UNL     1       1.026   4.545  20.618  0.00  0.00    +0.000 OA
ATOM     13  H   UNL     1       5.871   2.601  17.488  0.00  0.00    +0.000 HD
ENDROOT
BRANCH   7  14
ATOM     14  C   UNL     1       5.747   4.392  15.373  0.00  0.00    +0.000 A 
ATOM     15  C   UNL     1       5.403   3.837  14.154  0.00  0.00    +0.000 A 
ATOM     16  C   UNL     1       6.397   4.047  13.153  0.00  0.00    +0.000 A 
ATOM     17  C   UNL     1       7.472   4.762  13.631  0.00  0.00    +0.000 A 
ATOM     18  S   UNL     1       7.275   5.180  15.274  0.00  0.00    +0.000 S 
ENDBRANCH   7  14
BRANCH  10  19
ATOM     19  C   UNL     1       1.685   6.262  18.529  0.00  0.00    +0.000 C 
BRANCH  19  20
ATOM     20  C   UNL     1       2.357   7.580  18.976  0.00  0.00    +0.000 C 
ATOM     21  C   UNL     1       2.285   8.694  17.916  0.00  0.00    +0.000 C 
ATOM     22  C   UNL     1       1.066   9.612  17.993  0.00  0.00    +0.000 C 
ATOM     23  C   UNL     1       0.783  10.094  19.408  0.00  0.00    +0.000 C 
ATOM     24  C   UNL     1       0.617   8.916  20.354  0.00  0.00    +0.000 C 
ATOM     25  C   UNL     1       1.855   8.029  20.363  0.00  0.00    +0.000 C 
ENDBRANCH  19  20
ENDBRANCH  10  19
TORSDOF 3
ENDMDL
MODEL 2
REMARK VINA RESULT:      -7.6      2.827      6.239
REMARK  Name = 
REMARK  4 active torsions:
REMARK  status: ('A' for Active; 'I' for Inactive)
REMARK    1  A    between atoms: C_1  and  N_2
REMARK    2  A    between atoms: C_7  and  C_8
REMARK    3  A    between atoms: N_15  and  C_16
REMARK    4  A    between atoms: C_16  and  C_17
REMARK                            x       y       z     vdW  Elec       q    Type
REMARK                         _______ _______ _______ _____ _____    ______ ____
ROOT
ATOM      1  C   UNL     1       7.238   4.801  15.967  0.00  0.00    +0.000 C 
ATOM      2  N   UNL     1       5.934   5.188  16.462  0.00  0.00    +0.000 N 
ATOM      3  C   UNL     1       5.768   6.509  16.883  0.00  0.00    +0.000 A 
ATOM      4  O   UNL     1       6.621   7.384  16.816  0.00  0.00    +0.000 OA
ATOM      5  C   UNL     1       4.481   6.742  17.418  0.00  0.00    +0.000 A 
ATOM      6  N   UNL     1       3.932   7.901  17.864  0.00  0.00    +0.000 N 
ATOM      7  C   UNL     1       2.647   7.618  18.262  0.00  0.00    +0.000 A 
ATOM      8  N   UNL     1       2.399   6.320  18.148  0.00  0.00    +0.000 NA
ATOM      9  C   UNL     1       3.521   5.791  17.570  0.00  0.00    +0.000 A 
ATOM     10  N   UNL     1       3.726   4.493  17.132  0.00  0.00    +0.000 N 
ATOM     11  C   UNL     1       4.942   4.183  16.503  0.00  0.00    +0.000 A 
ATOM     12  O   UNL     1       5.155   3.071  16.010  0.00  0.00    +0.000 OA
ATOM     13  H   UNL     1       4.358   8.818  17.848  0.00  0.00    +0.000 HD
ENDROOT
BRANCH   7  14
ATOM     14  C   UNL     1       1.719   8.627  18.683  0.00  0.00    +0.000 A 
ATOM     15  C   UNL     1       1.152   9.625  17.913  0.00  0.00    +0.000 A 
ATOM     16  C   UNL     1       0.305  10.491  18.668  0.00  0.00    +0.000 A 
ATOM     17  C   UNL     1       0.242  10.127  19.994  0.00  0.00    +0.000 A 
ATOM     18  S   UNL     1       1.194   8.748  20.319  0.00  0.00    +0.000 S 
ENDBRANCH   7  14
BRANCH  10  19
ATOM     19  C   UNL     1       2.751   3.415  17.371  0.00  0.00    +0.000 C 
BRANCH  19  20
ATOM     20  C   UNL     1       2.968   2.597  18.663  0.00  0.00    +0.000 C 
ATOM     21  C   UNL     1       3.715   3.374  19.762  0.00  0.00    +0.000 C 
ATOM     22  C   UNL     1       2.841   4.160  20.737  0.00  0.00    +0.000 C 
ATOM     23  C   UNL     1       1.662   3.350  21.254  0.00  0.00    +0.000 C 
ATOM     24  C   UNL     1       0.824   2.823  20.101  0.00  0.00    +0.000 C 
ATOM     25  C   UNL     1       1.653   1.961  19.157  0.00  0.00    +0.000 C 
ENDBRANCH  19  20
ENDBRANCH  10  19
TORSDOF 3
ENDMDL
MODEL 3
REMARK VINA RESULT:      -7.4      2.278      4.746
REMARK  Name = 
REMARK  4 active torsions:
REMARK  status: ('A' for Active; 'I' for Inactive)
REMARK    1  A    between atoms: C_1  and  N_2
REMARK    2  A    between atoms: C_7  and  C_8
REMARK    3  A    between atoms: N_15  and  C_16
REMARK    4  A    between atoms: C_16  and  C_17
REMARK                            x       y       z     vdW  Elec       q    Type
REMARK                         _______ _______ _______ _____ _____    ______ ____
ROOT
ATOM      1  C   UNL     1       0.561   9.891  19.749  0.00  0.00    +0.000 C 
ATOM      2  N   UNL     1       1.476   8.820  19.415  0.00  0.00    +0.000 N 
ATOM      3  C   UNL     1       2.148   8.902  18.194  0.00  0.00    +0.000 A 
ATOM      4  O   UNL     1       2.070   9.834  17.405  0.00  0.00    +0.000 OA
ATOM      5  C   UNL     1       2.947   7.763  17.947  0.00  0.00    +0.000 A 
ATOM      6  N   UNL     1       3.787   7.509  16.910  0.00  0.00    +0.000 N 
ATOM      7  C   UNL     1       4.355   6.278  17.135  0.00  0.00    +0.000 A 
ATOM      8  N   UNL     1       3.851   5.726  18.231  0.00  0.00    +0.000 NA
ATOM      9  C   UNL     1       3.021   6.676  18.760  0.00  0.00    +0.000 A 
ATOM     10  N   UNL     1       2.341   6.640  19.967  0.00  0.00    +0.000 N 
ATOM     11  C   UNL     1       1.590   7.763  20.345  0.00  0.00    +0.000 A 
ATOM     12  O   UNL     1       1.034   7.834  21.446  0.00  0.00    +0.000 OA
ATOM     13  H   UNL     1       4.009   8.133  16.145  0.00  0.00    +0.000 HD
ENDROOT
BRANCH   7  14
ATOM     14  C   UNL     1       5.388   5.730  16.305  0.00  0.00    +0.000 A 
ATOM     15  C   UNL     1       5.266   5.253  15.013  0.00  0.00    +0.000 A 
ATOM     16  C   UNL     1       6.492   4.732  14.500  0.00  0.00    +0.000 A 
ATOM     17  C   UNL     1       7.519   4.829  15.411  0.00  0.00    +0.000 A 
ATOM     18  S   UNL     1       7.005   5.551  16.870  0.00  0.00    +0.000 S 
ENDBRANCH   7  14
BRANCH  10  19
ATOM     19  C   UNL     1       2.316   5.443  20.825  0.00  0.00    +0.000 C 
BRANCH  19  20
ATOM     20  C   UNL     1       1.190   4.429  20.518  0.00  0.00    +0.000 C 
ATOM     21  C   UNL     1       0.971   4.195  19.013  0.00  0.00    +0.000 C 
ATOM     22  C   UNL     1       1.783   3.061  18.388  0.00  0.00    +0.000 C 
ATOM     23  C   UNL     1       1.748   1.787  19.218  0.00  0.00    +0.000 C 
ATOM     24  C   UNL     1       2.223   2.056  20.637  0.00  0.00    +0.000 C 
ATOM     25  C   UNL     1       1.374   3.123  21.316  0.00  0.00    +0.000 C 
ENDBRANCH  19  20
ENDBRANCH  10  19
TORSDOF 3
ENDMDL
MODEL 4
REMARK VINA RESULT:      -7.3      2.755      6.469
REMARK  Name = 
REMARK  4 active torsions:
REMARK  status: ('A' for Active; 'I' for Inactive)
REMARK    1  A    between atoms: C_1  and  N_2
REMARK    2  A    between atoms: C_7  and  C_8
REMARK    3  A    between atoms: N_15  and  C_16
REMARK    4  A    between atoms: C_16  and  C_17
REMARK                            x       y       z     vdW  Elec       q    Type
REMARK                         _______ _______ _______ _____ _____    ______ ____
ROOT
ATOM      1  C   UNL     1       6.283   4.992  14.861  0.00  0.00    +0.000 C 
ATOM      2  N   UNL     1       5.428   5.238  16.002  0.00  0.00    +0.000 N 
ATOM      3  C   UNL     1       4.834   6.498  16.104  0.00  0.00    +0.000 A 
ATOM      4  O   UNL     1       4.933   7.395  15.279  0.00  0.00    +0.000 OA
ATOM      5  C   UNL     1       4.092   6.643  17.298  0.00  0.00    +0.000 A 
ATOM      6  N   UNL     1       3.331   7.687  17.716  0.00  0.00    +0.000 N 
ATOM      7  C   UNL     1       2.790   7.338  18.931  0.00  0.00    +0.000 A 
ATOM      8  N   UNL     1       3.240   6.152  19.318  0.00  0.00    +0.000 NA
ATOM      9  C   UNL     1       4.002   5.701  18.275  0.00  0.00    +0.000 A 
ATOM     10  N   UNL     1       4.602   4.460  18.128  0.00  0.00    +0.000 N 
ATOM     11  C   UNL     1       5.289   4.187  16.935  0.00  0.00    +0.000 A 
ATOM     12  O   UNL     1       5.770   3.074  16.702  0.00  0.00    +0.000 OA
ATOM     13  H   UNL     1       3.138   8.538  17.205  0.00  0.00    +0.000 HD
ENDROOT
BRANCH   7  14
ATOM     14  C   UNL     1       1.833   8.151  19.623  0.00  0.00    +0.000 A 
ATOM     15  C   UNL     1       1.314   7.951  20.889  0.00  0.00    +0.000 A 
ATOM     16  C   UNL     1       0.342   8.931  21.249  0.00  0.00    +0.000 A 
ATOM     17  C   UNL     1       0.147   9.859  20.250  0.00  0.00    +0.000 A 
ATOM     18  S   UNL     1       1.137   9.548  18.895  0.00  0.00    +0.000 S 
ENDBRANCH   7  14
BRANCH  10  19
ATOM     19  C   UNL     1       4.612   3.455  19.204  0.00  0.00    +0.000 C 
BRANCH  19  20
ATOM     20  C   UNL     1       3.464   2.422  19.158  0.00  0.00    +0.000 C 
ATOM     21  C   UNL     1       2.675   2.324  20.477  0.00  0.00    +0.000 C 
ATOM     22  C   UNL     1       1.466   3.249  20.602  0.00  0.00    +0.000 C 
ATOM     23  C   UNL     1       0.587   3.238  19.361  0.00  0.00    +0.000 C 
ATOM     24  C   UNL     1       1.397   3.593  18.124  0.00  0.00    +0.000 C 
ATOM     25  C   UNL     1       2.562   2.632  17.925  0.00  0.00    +0.000 C 
ENDBRANCH  19  20
ENDBRANCH  10  19
TORSDOF 3
ENDMDL
MODEL 5
REMARK VINA RESULT:      -7.1      2.839      6.409
REMARK  Name = 
REMARK  4 active torsions:
REMARK  status: ('A' for Active; 'I' for Inactive)
REMARK    1  A    between atoms: C_1  and  N_2
REMARK    2  A    between atoms: C_7  and  C_8
REMARK    3  A    between atoms: N_15  and  C_16
REMARK    4  A    between atoms: C_16  and  C_17
REMARK                            x       y       z     vdW  Elec       q    Type
REMARK                         _______ _______ _______ _____ _____    ______ ____
ROOT
ATOM      1  C   UNL     1       6.611   4.908  15.319  0.00  0.00    +0.000 C 
ATOM      2  N   UNL     1       5.630   5.329  16.295  0.00  0.00    +0.000 N 
ATOM      3  C   UNL     1       4.987   6.551  16.080  0.00  0.00    +0.000 A 
ATOM      4  O   UNL     1       5.146   7.271  15.104  0.00  0.00    +0.000 OA
ATOM      5  C   UNL     1       4.115   6.889  17.140  0.00  0.00    +0.000 A 
ATOM      6  N   UNL     1       3.279   7.953  17.260  0.00  0.00    +0.000 N 
ATOM      7  C   UNL     1       2.621   7.823  18.459  0.00  0.00    +0.000 A 
ATOM      8  N   UNL     1       3.065   6.763  19.122  0.00  0.00    +0.000 NA
ATOM      9  C   UNL     1       3.950   6.156  18.273  0.00  0.00    +0.000 A 
ATOM     10  N   UNL     1       4.603   4.945  18.441  0.00  0.00    +0.000 N 
ATOM     11  C   UNL     1       5.424   4.478  17.403  0.00  0.00    +0.000 A 
ATOM     12  O   UNL     1       5.963   3.368  17.449  0.00  0.00    +0.000 OA
ATOM     13  H   UNL     1       3.116   8.675  16.570  0.00  0.00    +0.000 HD
ENDROOT
BRANCH   7  14
ATOM     14  C   UNL     1       1.569   8.704  18.873  0.00  0.00    +0.000 A 
ATOM     15  C   UNL     1       0.831   9.566  18.083  0.00  0.00    +0.000 A 
ATOM     16  C   UNL     1      -0.108  10.335  18.833  0.00  0.00    +0.000 A 
ATOM     17  C   UNL     1      -0.067  10.037  20.177  0.00  0.00    +0.000 A 
ATOM     18  S   UNL     1       1.092   8.833  20.523  0.00  0.00    +0.000 S 
ENDBRANCH   7  14
BRANCH  10  19
ATOM     19  C   UNL     1       4.528   4.174  19.693  0.00  0.00    +0.000 C 
BRANCH  19  20
ATOM     20  C   UNL     1       3.603   2.938  19.659  0.00  0.00    +0.000 C 
ATOM     21  C   UNL     1       3.096   2.514  21.049  0.00  0.00    +0.000 C 
ATOM     22  C   UNL     1       1.778   3.141  21.500  0.00  0.00    +0.000 C 
ATOM     23  C   UNL     1       0.708   3.102  20.419  0.00  0.00    +0.000 C 
ATOM     24  C   UNL     1       1.203   3.770  19.147  0.00  0.00    +0.000 C 
ATOM     25  C   UNL     1       2.471   3.106  18.625  0.00  0.00    +0.000 C 
ENDBRANCH  19  20
ENDBRANCH  10  19
TORSDOF 3
ENDMDL
MODEL 6
REMARK VINA RESULT:      -7.0      2.348      6.353
REMARK  Name = 
REMARK  4 active torsions:
REMARK  status: ('A' for Active; 'I' for Inactive)
REMARK    1  A    between atoms: C_1  and  N_2
REMARK    2  A    between atoms: C_7  and  C_8
REMARK    3  A    between atoms: N_15  and  C_16
REMARK    4  A    between atoms: C_16  and  C_17
REMARK                            x       y       z     vdW  Elec       q    Type
REMARK                         _______ _______ _______ _____ _____    ______ ____
ROOT
ATOM      1  C   UNL     1       3.561   1.753  20.698  0.00  0.00    +0.000 C 
ATOM      2  N   UNL     1       3.310   3.108  20.258  0.00  0.00    +0.000 N 
ATOM      3  C   UNL     1       2.598   3.946  21.120  0.00  0.00    +0.000 A 
ATOM      4  O   UNL     1       2.217   3.645  22.242  0.00  0.00    +0.000 OA
ATOM      5  C   UNL     1       2.347   5.212  20.546  0.00  0.00    +0.000 A 
ATOM      6  N   UNL     1       1.748   6.302  21.094  0.00  0.00    +0.000 N 
ATOM      7  C   UNL     1       1.765   7.298  20.147  0.00  0.00    +0.000 A 
ATOM      8  N   UNL     1       2.284   6.851  19.010  0.00  0.00    +0.000 NA
ATOM      9  C   UNL     1       2.695   5.575  19.283  0.00  0.00    +0.000 A 
ATOM     10  N   UNL     1       3.407   4.714  18.463  0.00  0.00    +0.000 N 
ATOM     11  C   UNL     1       3.783   3.462  18.975  0.00  0.00    +0.000 A 
ATOM     12  O   UNL     1       4.494   2.683  18.332  0.00  0.00    +0.000 OA
ATOM     13  H   UNL     1       1.411   6.393  22.043  0.00  0.00    +0.000 HD
ENDROOT
BRANCH   7  14
ATOM     14  C   UNL     1       1.322   8.635  20.412  0.00  0.00    +0.000 A 
ATOM     15  C   UNL     1       0.989   9.187  21.635  0.00  0.00    +0.000 A 
ATOM     16  C   UNL     1       0.541  10.538  21.527  0.00  0.00    +0.000 A 
ATOM     17  C   UNL     1       0.548  10.984  20.225  0.00  0.00    +0.000 A 
ATOM     18  S   UNL     1       1.099   9.782  19.146  0.00  0.00    +0.000 S 
ENDBRANCH   7  14
BRANCH  10  19
ATOM     19  C   UNL     1       3.713   5.031  17.058  0.00  0.00    +0.000 C 
BRANCH  19  20
ATOM     20  C   UNL     1       4.928   5.959  16.835  0.00  0.00    +0.000 C 
ATOM     21  C   UNL     1       6.130   5.621  17.735  0.00  0.00    +0.000 C 
ATOM     22  C   UNL     1       7.136   4.626  17.159  0.00  0.00    +0.000 C 
ATOM     23  C   UNL     1       7.517   4.941  15.720  0.00  0.00    +0.000 C 
ATOM     24  C   UNL     1       6.280   5.011  14.839  0.00  0.00    +0.000 C 
ATOM     25  C   UNL     1       5.296   6.060  15.341  0.00  0.00    +0.000 C 
ENDBRANCH  19  20
ENDBRANCH  10  19
TORSDOF 3
ENDMDL
MODEL 7
REMARK VINA RESULT:      -6.9      2.556      6.424
REMARK  Name = 
REMARK  4 active torsions:
REMARK  status: ('A' for Active; 'I' for Inactive)
REMARK    1  A    between atoms: C_1  and  N_2
REMARK    2  A    between atoms: C_7  and  C_8
REMARK    3  A    between atoms: N_15  and  C_16
REMARK    4  A    between atoms: C_16  and  C_17
REMARK                            x       y       z     vdW  Elec       q    Type
REMARK                         _______ _______ _______ _____ _____    ______ ____
ROOT
ATOM      1  C   UNL     1       3.728   1.950  20.779  0.00  0.00    +0.000 C 
ATOM      2  N   UNL     1       3.567   3.350  20.450  0.00  0.00    +0.000 N 
ATOM      3  C   UNL     1       2.464   4.018  20.987  0.00  0.00    +0.000 A 
ATOM      4  O   UNL     1       1.650   3.530  21.759  0.00  0.00    +0.000 OA
ATOM      5  C   UNL     1       2.373   5.352  20.530  0.00  0.00    +0.000 A 
ATOM      6  N   UNL     1       1.486   6.321  20.875  0.00  0.00    +0.000 N 
ATOM      7  C   UNL     1       1.828   7.456  20.179  0.00  0.00    +0.000 A 
ATOM      8  N   UNL     1       2.845   7.212  19.362  0.00  0.00    +0.000 NA
ATOM      9  C   UNL     1       3.215   5.922  19.627  0.00  0.00    +0.000 A 
ATOM     10  N   UNL     1       4.302   5.224  19.125  0.00  0.00    +0.000 N 
ATOM     11  C   UNL     1       4.530   3.919  19.587  0.00  0.00    +0.000 A 
ATOM     12  O   UNL     1       5.528   3.274  19.250  0.00  0.00    +0.000 OA
ATOM     13  H   UNL     1       0.750   6.249  21.566  0.00  0.00    +0.000 HD
ENDROOT
BRANCH   7  14
ATOM     14  C   UNL     1       1.183   8.720  20.379  0.00  0.00    +0.000 A 
ATOM     15  C   UNL     1       0.849   9.658  19.420  0.00  0.00    +0.000 A 
ATOM     16  C   UNL     1       0.258  10.831  19.977  0.00  0.00    +0.000 A 
ATOM     17  C   UNL     1       0.150  10.756  21.348  0.00  0.00    +0.000 A 
ATOM     18  S   UNL     1       0.752   9.278  21.951  0.00  0.00    +0.000 S 
ENDBRANCH   7  14
BRANCH  10  19
ATOM     19  C   UNL     1       5.174   5.771  18.072  0.00  0.00    +0.000 C 
BRANCH  19  20
ATOM     20  C   UNL     1       4.651   5.615  16.627  0.00  0.00    +0.000 C 
ATOM     21  C   UNL     1       5.519   6.336  15.580  0.00  0.00    +0.000 C 
ATOM     22  C   UNL     1       6.648   5.510  14.965  0.00  0.00    +0.000 C 
ATOM     23  C   UNL     1       6.194   4.124  14.535  0.00  0.00    +0.000 C 
ATOM     24  C   UNL     1       5.568   3.376  15.700  0.00  0.00    +0.000 C 
ATOM     25  C   UNL     1       4.382   4.137  16.279  0.00  0.00    +0.000 C 
ENDBRANCH  19  20
ENDBRANCH  10  19
TORSDOF 3
ENDMDL
MODEL 8
REMARK VINA RESULT:      -6.9      2.495      6.429
REMARK  Name = 
REMARK  4 active torsions:
REMARK  status: ('A' for Active; 'I' for Inactive)
REMARK    1  A    between atoms: C_1  and  N_2
REMARK    2  A    between atoms: C_7  and  C_8
REMARK    3  A    between atoms: N_15  and  C_16
REMARK    4  A    between atoms: C_16  and  C_17
REMARK                            x       y       z     vdW  Elec       q    Type
REMARK                         _______ _______ _______ _____ _____    ______ ____
ROOT
ATOM      1  C   UNL     1       2.800   1.559  19.648  0.00  0.00    +0.000 C 
ATOM      2  N   UNL     1       2.900   2.998  19.770  0.00  0.00    +0.000 N 
ATOM      3  C   UNL     1       1.739   3.701  20.097  0.00  0.00    +0.000 A 
ATOM      4  O   UNL     1       0.653   3.196  20.345  0.00  0.00    +0.000 OA
ATOM      5  C   UNL     1       1.947   5.099  20.107  0.00  0.00    +0.000 A 
ATOM      6  N   UNL     1       1.084   6.095  20.438  0.00  0.00    +0.000 N 
ATOM      7  C   UNL     1       1.764   7.283  20.314  0.00  0.00    +0.000 A 
ATOM      8  N   UNL     1       2.989   7.073  19.852  0.00  0.00    +0.000 NA
ATOM      9  C   UNL     1       3.115   5.712  19.780  0.00  0.00    +0.000 A 
ATOM     10  N   UNL     1       4.246   4.974  19.467  0.00  0.00    +0.000 N 
ATOM     11  C   UNL     1       4.165   3.574  19.518  0.00  0.00    +0.000 A 
ATOM     12  O   UNL     1       5.155   2.858  19.338  0.00  0.00    +0.000 OA
ATOM     13  H   UNL     1       0.137   5.987  20.778  0.00  0.00    +0.000 HD
ENDROOT
BRANCH   7  14
ATOM     14  C   UNL     1       1.205   8.547  20.696  0.00  0.00    +0.000 A 
ATOM     15  C   UNL     1       0.817   8.951  21.961  0.00  0.00    +0.000 A 
ATOM     16  C   UNL     1       0.253  10.261  21.973  0.00  0.00    +0.000 A 
ATOM     17  C   UNL     1       0.229  10.827  20.718  0.00  0.00    +0.000 A 
ATOM     18  S   UNL     1       0.890   9.784  19.540  0.00  0.00    +0.000 S 
ENDBRANCH   7  14
BRANCH  10  19
ATOM     19  C   UNL     1       5.498   5.601  19.011  0.00  0.00    +0.000 C 
BRANCH  19  20
ATOM     20  C   UNL     1       5.486   6.131  17.560  0.00  0.00    +0.000 C 
ATOM     21  C   UNL     1       6.884   6.196  16.920  0.00  0.00    +0.000 C 
ATOM     22  C   UNL     1       7.333   4.946  16.165  0.00  0.00    +0.000 C 
ATOM     23  C   UNL     1       6.259   4.404  15.235  0.00  0.00    +0.000 C 
ATOM     24  C   UNL     1       4.975   4.127  15.999  0.00  0.00    +0.000 C 
ATOM     25  C   UNL     1       4.456   5.380  16.691  0.00  0.00    +0.000 C 
ENDBRANCH  19  20
ENDBRANCH  10  19
TORSDOF 3
ENDMDL
MODEL 9
REMARK VINA RESULT:      -6.8      2.918      6.379
REMARK  Name = 
REMARK  4 active torsions:
REMARK  status: ('A' for Active; 'I' for Inactive)
REMARK    1  A    between atoms: C_1  and  N_2
REMARK    2  A    between atoms: C_7  and  C_8
REMARK    3  A    between atoms: N_15  and  C_16
REMARK    4  A    between atoms: C_16  and  C_17
REMARK                            x       y       z     vdW  Elec       q    Type
REMARK                         _______ _______ _______ _____ _____    ______ ____
ROOT
ATOM      1  C   UNL     1       5.973   4.765  16.809  0.00  0.00    +0.000 C 
ATOM      2  N   UNL     1       4.891   5.472  17.460  0.00  0.00    +0.000 N 
ATOM      3  C   UNL     1       4.504   6.700  16.919  0.00  0.00    +0.000 A 
ATOM      4  O   UNL     1       4.967   7.203  15.904  0.00  0.00    +0.000 OA
ATOM      5  C   UNL     1       3.499   7.329  17.687  0.00  0.00    +0.000 A 
ATOM      6  N   UNL     1       2.832   8.488  17.449  0.00  0.00    +0.000 N 
ATOM      7  C   UNL     1       1.932   8.661  18.473  0.00  0.00    +0.000 A 
ATOM      8  N   UNL     1       2.063   7.697  19.375  0.00  0.00    +0.000 NA
ATOM      9  C   UNL     1       2.996   6.844  18.853  0.00  0.00    +0.000 A 
ATOM     10  N   UNL     1       3.404   5.616  19.351  0.00  0.00    +0.000 N 
ATOM     11  C   UNL     1       4.336   4.872  18.611  0.00  0.00    +0.000 A 
ATOM     12  O   UNL     1       4.675   3.734  18.950  0.00  0.00    +0.000 OA
ATOM     13  H   UNL     1       2.925   9.084  16.636  0.00  0.00    +0.000 HD
ENDROOT
BRANCH   7  14
ATOM     14  C   UNL     1       0.968   9.722  18.496  0.00  0.00    +0.000 A 
ATOM     15  C   UNL     1      -0.339   9.683  18.047  0.00  0.00    +0.000 A 
ATOM     16  C   UNL     1      -1.005  10.939  18.178  0.00  0.00    +0.000 A 
ATOM     17  C   UNL     1      -0.191  11.902  18.729  0.00  0.00    +0.000 A 
ATOM     18  S   UNL     1       1.361  11.290  19.090  0.00  0.00    +0.000 S 
ENDBRANCH   7  14
BRANCH  10  19
ATOM     19  C   UNL     1       2.959   5.105  20.658  0.00  0.00    +0.000 C 
BRANCH  19  20
ATOM     20  C   UNL     1       1.602   4.365  20.655  0.00  0.00    +0.000 C 
ATOM     21  C   UNL     1       0.887   4.403  19.293  0.00  0.00    +0.000 C 
ATOM     22  C   UNL     1       1.202   3.252  18.340  0.00  0.00    +0.000 C 
ATOM     23  C   UNL     1       1.149   1.893  19.022  0.00  0.00    +0.000 C 
ATOM     24  C   UNL     1       2.082   1.856  20.222  0.00  0.00    +0.000 C 
ATOM     25  C   UNL     1       1.734   2.941  21.232  0.00  0.00    +0.000 C 
ENDBRANCH  19  20
ENDBRANCH  10  19
TORSDOF 3
ENDMDL
