MODEL 1
REMARK VINA RESULT:      -8.0      0.000      0.000
REMARK  Name = 
REMARK  8 active torsions:
REMARK  status: ('A' for Active; 'I' for Inactive)
REMARK    1  A    between atoms: C_2  and  C_11
REMARK    2  A    between atoms: N_3  and  C_4
REMARK    3  A    between atoms: C_16  and  C_17
REMARK    4  A    between atoms: N_19  and  C_20
REMARK    5  A    between atoms: C_20  and  C_21
REMARK    6  A    between atoms: C_21  and  C_22
REMARK    7  A    between atoms: C_22  and  C_23
REMARK    8  A    between atoms: C_23  and  O_24
REMARK                            x       y       z     vdW  Elec       q    Type
REMARK                         _______ _______ _______ _____ _____    ______ ____
ROOT
ATOM      1  C   UNL     1       2.930   6.073  18.449  0.00  0.00    +0.000 C 
ATOM      2  C   UNL     1       1.893   4.912  18.334  0.00  0.00    +0.000 C 
ATOM      3  C   UNL     1       1.176   4.799  19.679  0.00  0.00    +0.000 C 
ATOM      4  C   UNL     1       2.071   4.315  20.564  0.00  0.00    +0.000 C 
ATOM      5  C   UNL     1       3.383   4.084  19.808  0.00  0.00    +0.000 C 
ATOM      6  C   UNL     1       3.956   5.509  19.522  0.00  0.00    +0.000 C 
ATOM      7  C   UNL     1       2.817   3.725  18.450  0.00  0.00    +0.000 C 
ATOM      8  C   UNL     1       2.360   2.329  18.104  0.00  0.00    +0.000 C 
ATOM      9  C   UNL     1       3.511   2.961  17.355  0.00  0.00    +0.000 C 
ENDROOT
BRANCH   1  11
ATOM     10  O   UNL     1       2.185   7.604  20.119  0.00  0.00    +0.000 OA
ATOM     11  C   UNL     1       2.334   7.395  18.910  0.00  0.00    +0.000 C 
ATOM     12  N   UNL     1       2.053   8.306  17.907  0.00  0.00    +0.000 N 
ATOM     13  H   UNL     1       2.114   7.992  16.947  0.00  0.00    +0.000 HD
BRANCH  12  14
ATOM     14  C   UNL     1       1.480   9.589  18.113  0.00  0.00    +0.000 A 
ATOM     15  C   UNL     1       2.251  10.752  18.222  0.00  0.00    +0.000 A 
ATOM     16  C   UNL     1       1.663  11.982  18.522  0.00  0.00    +0.000 A 
ATOM     17  C   UNL     1       0.290  12.063  18.696  0.00  0.00    +0.000 A 
ATOM     18 BR   UNL     1      -0.494  13.720  19.154  0.00  0.00    +0.000 Br
ATOM     19  C   UNL     1      -0.504  10.928  18.538  0.00  0.00    +0.000 A 
ATOM     20  C   UNL     1       0.089   9.694  18.235  0.00  0.00    +0.000 A 
ENDBRANCH  12  14
ENDBRANCH   1  11
BRANCH   6  21
ATOM     21  C   UNL     1       5.388   5.468  19.016  0.00  0.00    +0.000 C 
ATOM     22  O   UNL     1       6.329   5.106  19.716  0.00  0.00    +0.000 OA
ATOM     23  N   UNL     1       5.572   5.921  17.727  0.00  0.00    +0.000 N 
ATOM     24  H   UNL     1       4.785   6.331  17.228  0.00  0.00    +0.000 HD
BRANCH  23  25
ATOM     25  C   UNL     1       6.899   6.021  17.138  0.00  0.00    +0.000 C 
BRANCH  25  26
ATOM     26  C   UNL     1       7.255   4.775  16.325  0.00  0.00    +0.000 C 
BRANCH  26  27
ATOM     27  C   UNL     1       6.247   4.513  15.199  0.00  0.00    +0.000 C 
BRANCH  27  28
ATOM     28  C   UNL     1       6.900   4.545  13.819  0.00  0.00    +0.000 C 
BRANCH  28  29
ATOM     29  O   UNL     1       7.886   5.564  13.741  0.00  0.00    +0.000 OA
ATOM     30  H   UNL     1       8.643   5.284  14.284  0.00  0.00    +0.000 HD
ENDBRANCH  28  29
ENDBRANCH  27  28
ENDBRANCH  26  27
ENDBRANCH  25  26
ENDBRANCH  23  25
ENDBRANCH   6  21
TORSDOF 8
ENDMDL
MODEL 2
REMARK VINA RESULT:      -7.8      1.682      2.277
REMARK  Name = 
REMARK  8 active torsions:
REMARK  status: ('A' for Active; 'I' for Inactive)
REMARK    1  A    between atoms: C_2  and  C_11
REMARK    2  A    between atoms: N_3  and  C_4
REMARK    3  A    between atoms: C_16  and  C_17
REMARK    4  A    between atoms: N_19  and  C_20
REMARK    5  A    between atoms: C_20  and  C_21
REMARK    6  A    between atoms: C_21  and  C_22
REMARK    7  A    between atoms: C_22  and  C_23
REMARK    8  A    between atoms: C_23  and  O_24
REMARK                            x       y       z     vdW  Elec       q    Type
REMARK                         _______ _______ _______ _____ _____    ______ ____
ROOT
ATOM      1  C   UNL     1       3.000   6.002  18.375  0.00  0.00    +0.000 C 
ATOM      2  C   UNL     1       1.957   4.846  18.271  0.00  0.00    +0.000 C 
ATOM      3  C   UNL     1       1.262   4.728  19.627  0.00  0.00    +0.000 C 
ATOM      4  C   UNL     1       2.170   4.234  20.494  0.00  0.00    +0.000 C 
ATOM      5  C   UNL     1       3.467   4.003  19.714  0.00  0.00    +0.000 C 
ATOM      6  C   UNL     1       4.042   5.426  19.427  0.00  0.00    +0.000 C 
ATOM      7  C   UNL     1       2.877   3.654  18.364  0.00  0.00    +0.000 C 
ATOM      8  C   UNL     1       2.408   2.263  18.016  0.00  0.00    +0.000 C 
ATOM      9  C   UNL     1       3.549   2.895  17.252  0.00  0.00    +0.000 C 
ENDROOT
BRANCH   1  11
ATOM     10  O   UNL     1       2.340   7.547  20.068  0.00  0.00    +0.000 OA
ATOM     11  C   UNL     1       2.419   7.324  18.855  0.00  0.00    +0.000 C 
ATOM     12  N   UNL     1       2.069   8.219  17.859  0.00  0.00    +0.000 N 
ATOM     13  H   UNL     1       2.076   7.893  16.901  0.00  0.00    +0.000 HD
BRANCH  12  14
ATOM     14  C   UNL     1       1.495   9.498  18.083  0.00  0.00    +0.000 A 
ATOM     15  C   UNL     1       2.265  10.662  18.196  0.00  0.00    +0.000 A 
ATOM     16  C   UNL     1       1.677  11.888  18.513  0.00  0.00    +0.000 A 
ATOM     17  C   UNL     1       0.305  11.964  18.701  0.00  0.00    +0.000 A 
ATOM     18 BR   UNL     1      -0.478  13.614  19.183  0.00  0.00    +0.000 Br
ATOM     19  C   UNL     1      -0.488  10.829  18.541  0.00  0.00    +0.000 A 
ATOM     20  C   UNL     1       0.105   9.599  18.220  0.00  0.00    +0.000 A 
ENDBRANCH  12  14
ENDBRANCH   1  11
BRANCH   6  21
ATOM     21  C   UNL     1       5.465   5.382  18.897  0.00  0.00    +0.000 C 
ATOM     22  O   UNL     1       6.329   4.651  19.373  0.00  0.00    +0.000 OA
ATOM     23  N   UNL     1       5.741   6.265  17.874  0.00  0.00    +0.000 N 
ATOM     24  H   UNL     1       5.033   6.940  17.596  0.00  0.00    +0.000 HD
BRANCH  23  25
ATOM     25  C   UNL     1       7.082   6.396  17.324  0.00  0.00    +0.000 C 
BRANCH  25  26
ATOM     26  C   UNL     1       7.972   7.280  18.199  0.00  0.00    +0.000 C 
BRANCH  26  27
ATOM     27  C   UNL     1       7.921   8.752  17.772  0.00  0.00    +0.000 C 
BRANCH  27  28
ATOM     28  C   UNL     1       8.800   9.640  18.650  0.00  0.00    +0.000 C 
BRANCH  28  29
ATOM     29  O   UNL     1       9.008  10.909  18.050  0.00  0.00    +0.000 OA
ATOM     30  H   UNL     1       8.345  11.521  18.415  0.00  0.00    +0.000 HD
ENDBRANCH  28  29
ENDBRANCH  27  28
ENDBRANCH  26  27
ENDBRANCH  25  26
ENDBRANCH  23  25
ENDBRANCH   6  21
TORSDOF 8
ENDMDL
MODEL 3
REMARK VINA RESULT:      -7.7      1.787      1.948
REMARK  Name = 
REMARK  8 active torsions:
REMARK  status: ('A' for Active; 'I' for Inactive)
REMARK    1  A    between atoms: C_2  and  C_11
REMARK    2  A    between atoms: N_3  and  C_4
REMARK    3  A    between atoms: C_16  and  C_17
REMARK    4  A    between atoms: N_19  and  C_20
REMARK    5  A    between atoms: C_20  and  C_21
REMARK    6  A    between atoms: C_21  and  C_22
REMARK    7  A    between atoms: C_22  and  C_23
REMARK    8  A    between atoms: C_23  and  O_24
REMARK                            x       y       z     vdW  Elec       q    Type
REMARK                         _______ _______ _______ _____ _____    ______ ____
ROOT
ATOM      1  C   UNL     1       2.874   5.726  18.488  0.00  0.00    +0.000 C 
ATOM      2  C   UNL     1       1.926   4.486  18.509  0.00  0.00    +0.000 C 
ATOM      3  C   UNL     1       1.225   4.464  19.866  0.00  0.00    +0.000 C 
ATOM      4  C   UNL     1       2.156   4.145  20.787  0.00  0.00    +0.000 C 
ATOM      5  C   UNL     1       3.478   3.932  20.045  0.00  0.00    +0.000 C 
ATOM      6  C   UNL     1       3.943   5.356  19.602  0.00  0.00    +0.000 C 
ATOM      7  C   UNL     1       2.936   3.389  18.739  0.00  0.00    +0.000 C 
ATOM      8  C   UNL     1       2.583   1.935  18.548  0.00  0.00    +0.000 C 
ATOM      9  C   UNL     1       3.681   2.567  17.723  0.00  0.00    +0.000 C 
ENDROOT
BRANCH   1  11
ATOM     10  O   UNL     1       1.774   7.756  17.891  0.00  0.00    +0.000 OA
ATOM     11  C   UNL     1       2.183   7.042  18.813  0.00  0.00    +0.000 C 
ATOM     12  N   UNL     1       2.013   7.311  20.160  0.00  0.00    +0.000 N 
ATOM     13  H   UNL     1       2.479   6.711  20.829  0.00  0.00    +0.000 HD
BRANCH  12  14
ATOM     14  C   UNL     1       1.410   8.485  20.684  0.00  0.00    +0.000 A 
ATOM     15  C   UNL     1       1.021   8.602  22.023  0.00  0.00    +0.000 A 
ATOM     16  C   UNL     1       0.343   9.732  22.482  0.00  0.00    +0.000 A 
ATOM     17  C   UNL     1       0.065  10.770  21.605  0.00  0.00    +0.000 A 
ATOM     18 BR   UNL     1      -0.899  12.274  22.218  0.00  0.00    +0.000 Br
ATOM     19  C   UNL     1       0.491  10.699  20.279  0.00  0.00    +0.000 A 
ATOM     20  C   UNL     1       1.173   9.563  19.821  0.00  0.00    +0.000 A 
ENDBRANCH  12  14
ENDBRANCH   1  11
BRANCH   6  21
ATOM     21  C   UNL     1       5.372   5.367  19.088  0.00  0.00    +0.000 C 
ATOM     22  O   UNL     1       6.337   5.107  19.801  0.00  0.00    +0.000 OA
ATOM     23  N   UNL     1       5.522   5.746  17.770  0.00  0.00    +0.000 N 
ATOM     24  H   UNL     1       4.710   6.076  17.253  0.00  0.00    +0.000 HD
BRANCH  23  25
ATOM     25  C   UNL     1       6.837   5.885  17.164  0.00  0.00    +0.000 C 
BRANCH  25  26
ATOM     26  C   UNL     1       7.320   4.573  16.544  0.00  0.00    +0.000 C 
BRANCH  26  27
ATOM     27  C   UNL     1       6.277   3.964  15.598  0.00  0.00    +0.000 C 
BRANCH  27  28
ATOM     28  C   UNL     1       6.498   4.384  14.146  0.00  0.00    +0.000 C 
BRANCH  28  29
ATOM     29  O   UNL     1       6.263   3.302  13.258  0.00  0.00    +0.000 OA
ATOM     30  H   UNL     1       6.325   3.647  12.350  0.00  0.00    +0.000 HD
ENDBRANCH  28  29
ENDBRANCH  27  28
ENDBRANCH  26  27
ENDBRANCH  25  26
ENDBRANCH  23  25
ENDBRANCH   6  21
TORSDOF 8
ENDMDL
MODEL 4
REMARK VINA RESULT:      -7.7      1.636      1.744
REMARK  Name = 
REMARK  8 active torsions:
REMARK  status: ('A' for Active; 'I' for Inactive)
REMARK    1  A    between atoms: C_2  and  C_11
REMARK    2  A    between atoms: N_3  and  C_4
REMARK    3  A    between atoms: C_16  and  C_17
REMARK    4  A    between atoms: N_19  and  C_20
REMARK    5  A    between atoms: C_20  and  C_21
REMARK    6  A    between atoms: C_21  and  C_22
REMARK    7  A    between atoms: C_22  and  C_23
REMARK    8  A    between atoms: C_23  and  O_24
REMARK                            x       y       z     vdW  Elec       q    Type
REMARK                         _______ _______ _______ _____ _____    ______ ____
ROOT
ATOM      1  C   UNL     1       2.991   5.727  18.389  0.00  0.00    +0.000 C 
ATOM      2  C   UNL     1       2.059   4.475  18.367  0.00  0.00    +0.000 C 
ATOM      3  C   UNL     1       1.273   4.462  19.678  0.00  0.00    +0.000 C 
ATOM      4  C   UNL     1       2.148   4.167  20.660  0.00  0.00    +0.000 C 
ATOM      5  C   UNL     1       3.517   3.961  20.006  0.00  0.00    +0.000 C 
ATOM      6  C   UNL     1       3.992   5.385  19.573  0.00  0.00    +0.000 C 
ATOM      7  C   UNL     1       3.065   3.394  18.677  0.00  0.00    +0.000 C 
ATOM      8  C   UNL     1       2.742   1.933  18.484  0.00  0.00    +0.000 C 
ATOM      9  C   UNL     1       3.883   2.567  17.721  0.00  0.00    +0.000 C 
ENDROOT
BRANCH   1  11
ATOM     10  O   UNL     1       1.911   7.736  17.694  0.00  0.00    +0.000 OA
ATOM     11  C   UNL     1       2.266   7.038  18.651  0.00  0.00    +0.000 C 
ATOM     12  N   UNL     1       2.003   7.320  19.980  0.00  0.00    +0.000 N 
ATOM     13  H   UNL     1       2.430   6.733  20.685  0.00  0.00    +0.000 HD
BRANCH  12  14
ATOM     14  C   UNL     1       1.354   8.493  20.448  0.00  0.00    +0.000 A 
ATOM     15  C   UNL     1       1.036   9.566  19.607  0.00  0.00    +0.000 A 
ATOM     16  C   UNL     1       0.487  10.744  20.117  0.00  0.00    +0.000 A 
ATOM     17  C   UNL     1       0.230  10.851  21.476  0.00  0.00    +0.000 A 
ATOM     18 BR   UNL     1      -0.463  12.465  22.169  0.00  0.00    +0.000 Br
ATOM     19  C   UNL     1       0.488   9.774  22.324  0.00  0.00    +0.000 A 
ATOM     20  C   UNL     1       1.039   8.592  21.809  0.00  0.00    +0.000 A 
ENDBRANCH  12  14
ENDBRANCH   1  11
BRANCH   6  21
ATOM     21  C   UNL     1       5.450   5.407  19.150  0.00  0.00    +0.000 C 
ATOM     22  O   UNL     1       6.366   5.085  19.902  0.00  0.00    +0.000 OA
ATOM     23  N   UNL     1       5.687   5.870  17.873  0.00  0.00    +0.000 N 
ATOM     24  H   UNL     1       4.913   6.247  17.330  0.00  0.00    +0.000 HD
BRANCH  23  25
ATOM     25  C   UNL     1       7.040   6.029  17.360  0.00  0.00    +0.000 C 
BRANCH  25  26
ATOM     26  C   UNL     1       7.476   4.824  16.524  0.00  0.00    +0.000 C 
BRANCH  26  27
ATOM     27  C   UNL     1       6.362   4.337  15.589  0.00  0.00    +0.000 C 
BRANCH  27  28
ATOM     28  C   UNL     1       6.732   4.496  14.116  0.00  0.00    +0.000 C 
BRANCH  28  29
ATOM     29  O   UNL     1       7.740   5.481  13.944  0.00  0.00    +0.000 OA
ATOM     30  H   UNL     1       7.340   6.348  14.130  0.00  0.00    +0.000 HD
ENDBRANCH  28  29
ENDBRANCH  27  28
ENDBRANCH  26  27
ENDBRANCH  25  26
ENDBRANCH  23  25
ENDBRANCH   6  21
TORSDOF 8
ENDMDL
MODEL 5
REMARK VINA RESULT:      -7.7      1.615      2.558
REMARK  Name = 
REMARK  8 active torsions:
REMARK  status: ('A' for Active; 'I' for Inactive)
REMARK    1  A    between atoms: C_2  and  C_11
REMARK    2  A    between atoms: N_3  and  C_4
REMARK    3  A    between atoms: C_16  and  C_17
REMARK    4  A    between atoms: N_19  and  C_20
REMARK    5  A    between atoms: C_20  and  C_21
REMARK    6  A    between atoms: C_21  and  C_22
REMARK    7  A    between atoms: C_22  and  C_23
REMARK    8  A    between atoms: C_23  and  O_24
REMARK                            x       y       z     vdW  Elec       q    Type
REMARK                         _______ _______ _______ _____ _____    ______ ____
ROOT
ATOM      1  C   UNL     1       3.118   6.096  18.374  0.00  0.00    +0.000 C 
ATOM      2  C   UNL     1       2.129   4.926  18.073  0.00  0.00    +0.000 C 
ATOM      3  C   UNL     1       1.318   4.670  19.342  0.00  0.00    +0.000 C 
ATOM      4  C   UNL     1       2.158   4.126  20.245  0.00  0.00    +0.000 C 
ATOM      5  C   UNL     1       3.529   3.998  19.574  0.00  0.00    +0.000 C 
ATOM      6  C   UNL     1       4.078   5.456  19.465  0.00  0.00    +0.000 C 
ATOM      7  C   UNL     1       3.077   3.755  18.149  0.00  0.00    +0.000 C 
ATOM      8  C   UNL     1       2.690   2.389  17.641  0.00  0.00    +0.000 C 
ATOM      9  C   UNL     1       3.874   3.116  17.045  0.00  0.00    +0.000 C 
ENDROOT
BRANCH   1  11
ATOM     10  O   UNL     1       2.241   7.460  20.122  0.00  0.00    +0.000 OA
ATOM     11  C   UNL     1       2.450   7.353  18.908  0.00  0.00    +0.000 C 
ATOM     12  N   UNL     1       2.175   8.330  17.967  0.00  0.00    +0.000 N 
ATOM     13  H   UNL     1       2.290   8.096  16.989  0.00  0.00    +0.000 HD
BRANCH  12  14
ATOM     14  C   UNL     1       1.542   9.571  18.245  0.00  0.00    +0.000 A 
ATOM     15  C   UNL     1       0.166   9.681  18.475  0.00  0.00    +0.000 A 
ATOM     16  C   UNL     1      -0.438  10.928  18.648  0.00  0.00    +0.000 A 
ATOM     17  C   UNL     1       0.336  12.078  18.614  0.00  0.00    +0.000 A 
ATOM     18 BR   UNL     1      -0.495  13.765  18.796  0.00  0.00    +0.000 Br
ATOM     19  C   UNL     1       1.717  11.988  18.441  0.00  0.00    +0.000 A 
ATOM     20  C   UNL     1       2.321  10.734  18.268  0.00  0.00    +0.000 A 
ENDBRANCH  12  14
ENDBRANCH   1  11
BRANCH   6  21
ATOM     21  C   UNL     1       5.544   5.497  19.070  0.00  0.00    +0.000 C 
ATOM     22  O   UNL     1       6.433   5.009  19.763  0.00  0.00    +0.000 OA
ATOM     23  N   UNL     1       5.821   6.172  17.900  0.00  0.00    +0.000 N 
ATOM     24  H   UNL     1       5.072   6.669  17.425  0.00  0.00    +0.000 HD
BRANCH  23  25
ATOM     25  C   UNL     1       7.188   6.366  17.439  0.00  0.00    +0.000 C 
BRANCH  25  26
ATOM     26  C   UNL     1       7.542   7.849  17.317  0.00  0.00    +0.000 C 
BRANCH  26  27
ATOM     27  C   UNL     1       8.476   8.314  18.441  0.00  0.00    +0.000 C 
BRANCH  27  28
ATOM     28  C   UNL     1       8.722   9.821  18.403  0.00  0.00    +0.000 C 
BRANCH  28  29
ATOM     29  O   UNL     1       9.260  10.284  19.632  0.00  0.00    +0.000 OA
ATOM     30  H   UNL     1       8.989  11.212  19.742  0.00  0.00    +0.000 HD
ENDBRANCH  28  29
ENDBRANCH  27  28
ENDBRANCH  26  27
ENDBRANCH  25  26
ENDBRANCH  23  25
ENDBRANCH   6  21
TORSDOF 8
ENDMDL
MODEL 6
REMARK VINA RESULT:      -7.6      1.026      1.385
REMARK  Name = 
REMARK  8 active torsions:
REMARK  status: ('A' for Active; 'I' for Inactive)
REMARK    1  A    between atoms: C_2  and  C_11
REMARK    2  A    between atoms: N_3  and  C_4
REMARK    3  A    between atoms: C_16  and  C_17
REMARK    4  A    between atoms: N_19  and  C_20
REMARK    5  A    between atoms: C_20  and  C_21
REMARK    6  A    between atoms: C_21  and  C_22
REMARK    7  A    between atoms: C_22  and  C_23
REMARK    8  A    between atoms: C_23  and  O_24
REMARK                            x       y       z     vdW  Elec       q    Type
REMARK                         _______ _______ _______ _____ _____    ______ ____
ROOT
ATOM      1  C   UNL     1       2.716   5.811  18.700  0.00  0.00    +0.000 C 
ATOM      2  C   UNL     1       1.578   4.742  18.701  0.00  0.00    +0.000 C 
ATOM      3  C   UNL     1       0.976   4.711  20.105  0.00  0.00    +0.000 C 
ATOM      4  C   UNL     1       1.900   4.164  20.919  0.00  0.00    +0.000 C 
ATOM      5  C   UNL     1       3.115   3.810  20.057  0.00  0.00    +0.000 C 
ATOM      6  C   UNL     1       3.781   5.175  19.691  0.00  0.00    +0.000 C 
ATOM      7  C   UNL     1       2.404   3.481  18.762  0.00  0.00    +0.000 C 
ATOM      8  C   UNL     1       1.800   2.126  18.487  0.00  0.00    +0.000 C 
ATOM      9  C   UNL     1       2.931   2.645  17.627  0.00  0.00    +0.000 C 
ENDROOT
BRANCH   1  11
ATOM     10  O   UNL     1       2.315   7.445  20.390  0.00  0.00    +0.000 OA
ATOM     11  C   UNL     1       2.278   7.186  19.182  0.00  0.00    +0.000 C 
ATOM     12  N   UNL     1       1.918   8.080  18.190  0.00  0.00    +0.000 N 
ATOM     13  H   UNL     1       1.822   7.731  17.245  0.00  0.00    +0.000 HD
BRANCH  12  14
ATOM     14  C   UNL     1       1.464   9.407  18.418  0.00  0.00    +0.000 A 
ATOM     15  C   UNL     1       0.168   9.696  18.859  0.00  0.00    +0.000 A 
ATOM     16  C   UNL     1      -0.276  11.014  18.980  0.00  0.00    +0.000 A 
ATOM     17  C   UNL     1       0.584  12.059  18.678  0.00  0.00    +0.000 A 
ATOM     18 BR   UNL     1      -0.038  13.839  18.791  0.00  0.00    +0.000 Br
ATOM     19  C   UNL     1       1.897  11.796  18.288  0.00  0.00    +0.000 A 
ATOM     20  C   UNL     1       2.341  10.471  18.170  0.00  0.00    +0.000 A 
ENDBRANCH  12  14
ENDBRANCH   1  11
BRANCH   6  21
ATOM     21  C   UNL     1       5.154   5.002  19.065  0.00  0.00    +0.000 C 
ATOM     22  O   UNL     1       5.831   3.990  19.217  0.00  0.00    +0.000 OA
ATOM     23  N   UNL     1       5.618   6.089  18.353  0.00  0.00    +0.000 N 
ATOM     24  H   UNL     1       5.080   6.952  18.359  0.00  0.00    +0.000 HD
BRANCH  23  25
ATOM     25  C   UNL     1       6.951   6.102  17.769  0.00  0.00    +0.000 C 
BRANCH  25  26
ATOM     26  C   UNL     1       6.901   6.126  16.240  0.00  0.00    +0.000 C 
BRANCH  26  27
ATOM     27  C   UNL     1       5.615   5.493  15.694  0.00  0.00    +0.000 C 
BRANCH  27  28
ATOM     28  C   UNL     1       5.850   4.088  15.144  0.00  0.00    +0.000 C 
BRANCH  28  29
ATOM     29  O   UNL     1       5.915   3.132  16.190  0.00  0.00    +0.000 OA
ATOM     30  H   UNL     1       6.231   2.295  15.807  0.00  0.00    +0.000 HD
ENDBRANCH  28  29
ENDBRANCH  27  28
ENDBRANCH  26  27
ENDBRANCH  25  26
ENDBRANCH  23  25
ENDBRANCH   6  21
TORSDOF 8
ENDMDL
MODEL 7
REMARK VINA RESULT:      -7.5      2.389      3.089
REMARK  Name = 
REMARK  8 active torsions:
REMARK  status: ('A' for Active; 'I' for Inactive)
REMARK    1  A    between atoms: C_2  and  C_11
REMARK    2  A    between atoms: N_3  and  C_4
REMARK    3  A    between atoms: C_16  and  C_17
REMARK    4  A    between atoms: N_19  and  C_20
REMARK    5  A    between atoms: C_20  and  C_21
REMARK    6  A    between atoms: C_21  and  C_22
REMARK    7  A    between atoms: C_22  and  C_23
REMARK    8  A    between atoms: C_23  and  O_24
REMARK                            x       y       z     vdW  Elec       q    Type
REMARK                         _______ _______ _______ _____ _____    ______ ____
ROOT
ATOM      1  C   UNL     1       3.114   5.907  18.222  0.00  0.00    +0.000 C 
ATOM      2  C   UNL     1       2.263   4.630  17.938  0.00  0.00    +0.000 C 
ATOM      3  C   UNL     1       1.396   4.370  19.169  0.00  0.00    +0.000 C 
ATOM      4  C   UNL     1       2.222   3.966  20.155  0.00  0.00    +0.000 C 
ATOM      5  C   UNL     1       3.640   3.935  19.579  0.00  0.00    +0.000 C 
ATOM      6  C   UNL     1       4.055   5.432  19.409  0.00  0.00    +0.000 C 
ATOM      7  C   UNL     1       3.311   3.565  18.148  0.00  0.00    +0.000 C 
ATOM      8  C   UNL     1       3.090   2.139  17.707  0.00  0.00    +0.000 C 
ATOM      9  C   UNL     1       4.237   2.943  17.138  0.00  0.00    +0.000 C 
ENDROOT
BRANCH   1  11
ATOM     10  O   UNL     1       1.715   7.783  17.762  0.00  0.00    +0.000 OA
ATOM     11  C   UNL     1       2.295   7.122  18.631  0.00  0.00    +0.000 C 
ATOM     12  N   UNL     1       2.217   7.360  19.992  0.00  0.00    +0.000 N 
ATOM     13  H   UNL     1       2.815   6.821  20.605  0.00  0.00    +0.000 HD
BRANCH  12  14
ATOM     14  C   UNL     1       1.521   8.444  20.588  0.00  0.00    +0.000 A 
ATOM     15  C   UNL     1       1.184   8.470  21.947  0.00  0.00    +0.000 A 
ATOM     16  C   UNL     1       0.414   9.506  22.479  0.00  0.00    +0.000 A 
ATOM     17  C   UNL     1      -0.009  10.540  21.658  0.00  0.00    +0.000 A 
ATOM     18 BR   UNL     1      -1.094  11.912  22.372  0.00  0.00    +0.000 Br
ATOM     19  C   UNL     1       0.361  10.563  20.314  0.00  0.00    +0.000 A 
ATOM     20  C   UNL     1       1.135   9.522  19.782  0.00  0.00    +0.000 A 
ENDBRANCH  12  14
ENDBRANCH   1  11
BRANCH   6  21
ATOM     21  C   UNL     1       5.534   5.594  19.103  0.00  0.00    +0.000 C 
ATOM     22  O   UNL     1       6.416   5.223  19.871  0.00  0.00    +0.000 OA
ATOM     23  N   UNL     1       5.823   6.241  17.920  0.00  0.00    +0.000 N 
ATOM     24  H   UNL     1       5.064   6.644  17.376  0.00  0.00    +0.000 HD
BRANCH  23  25
ATOM     25  C   UNL     1       7.194   6.544  17.535  0.00  0.00    +0.000 C 
BRANCH  25  26
ATOM     26  C   UNL     1       7.446   8.051  17.468  0.00  0.00    +0.000 C 
BRANCH  26  27
ATOM     27  C   UNL     1       8.540   8.496  18.447  0.00  0.00    +0.000 C 
BRANCH  27  28
ATOM     28  C   UNL     1       8.814   9.996  18.366  0.00  0.00    +0.000 C 
BRANCH  28  29
ATOM     29  O   UNL     1       9.156  10.525  19.638  0.00  0.00    +0.000 OA
ATOM     30  H   UNL     1       8.332  10.801  20.075  0.00  0.00    +0.000 HD
ENDBRANCH  28  29
ENDBRANCH  27  28
ENDBRANCH  26  27
ENDBRANCH  25  26
ENDBRANCH  23  25
ENDBRANCH   6  21
TORSDOF 8
ENDMDL
MODEL 8
REMARK VINA RESULT:      -7.5      0.975      1.362
REMARK  Name = 
REMARK  8 active torsions:
REMARK  status: ('A' for Active; 'I' for Inactive)
REMARK    1  A    between atoms: C_2  and  C_11
REMARK    2  A    between atoms: N_3  and  C_4
REMARK    3  A    between atoms: C_16  and  C_17
REMARK    4  A    between atoms: N_19  and  C_20
REMARK    5  A    between atoms: C_20  and  C_21
REMARK    6  A    between atoms: C_21  and  C_22
REMARK    7  A    between atoms: C_22  and  C_23
REMARK    8  A    between atoms: C_23  and  O_24
REMARK                            x       y       z     vdW  Elec       q    Type
REMARK                         _______ _______ _______ _____ _____    ______ ____
ROOT
ATOM      1  C   UNL     1       2.598   5.745  18.698  0.00  0.00    +0.000 C 
ATOM      2  C   UNL     1       1.468   4.688  18.907  0.00  0.00    +0.000 C 
ATOM      3  C   UNL     1       1.087   4.706  20.387  0.00  0.00    +0.000 C 
ATOM      4  C   UNL     1       2.123   4.177  21.068  0.00  0.00    +0.000 C 
ATOM      5  C   UNL     1       3.190   3.783  20.043  0.00  0.00    +0.000 C 
ATOM      6  C   UNL     1       3.798   5.129  19.536  0.00  0.00    +0.000 C 
ATOM      7  C   UNL     1       2.287   3.421  18.883  0.00  0.00    +0.000 C 
ATOM      8  C   UNL     1       1.643   2.064  18.747  0.00  0.00    +0.000 C 
ATOM      9  C   UNL     1       2.631   2.544  17.709  0.00  0.00    +0.000 C 
ENDROOT
BRANCH   1  11
ATOM     10  O   UNL     1       2.371   7.402  20.397  0.00  0.00    +0.000 OA
ATOM     11  C   UNL     1       2.245   7.138  19.196  0.00  0.00    +0.000 C 
ATOM     12  N   UNL     1       1.856   8.040  18.221  0.00  0.00    +0.000 N 
ATOM     13  H   UNL     1       1.686   7.689  17.287  0.00  0.00    +0.000 HD
BRANCH  12  14
ATOM     14  C   UNL     1       1.469   9.384  18.467  0.00  0.00    +0.000 A 
ATOM     15  C   UNL     1       0.252   9.722  19.070  0.00  0.00    +0.000 A 
ATOM     16  C   UNL     1      -0.140  11.054  19.208  0.00  0.00    +0.000 A 
ATOM     17  C   UNL     1       0.696  12.066  18.761  0.00  0.00    +0.000 A 
ATOM     18 BR   UNL     1       0.138  13.866  18.902  0.00  0.00    +0.000 Br
ATOM     19  C   UNL     1       1.938  11.756  18.206  0.00  0.00    +0.000 A 
ATOM     20  C   UNL     1       2.329  10.416  18.070  0.00  0.00    +0.000 A 
ENDBRANCH  12  14
ENDBRANCH   1  11
BRANCH   6  21
ATOM     21  C   UNL     1       5.059   4.924  18.713  0.00  0.00    +0.000 C 
ATOM     22  O   UNL     1       6.067   4.388  19.164  0.00  0.00    +0.000 OA
ATOM     23  N   UNL     1       5.017   5.433  17.432  0.00  0.00    +0.000 N 
ATOM     24  H   UNL     1       4.210   5.981  17.142  0.00  0.00    +0.000 HD
BRANCH  23  25
ATOM     25  C   UNL     1       6.179   5.386  16.557  0.00  0.00    +0.000 C 
BRANCH  25  26
ATOM     26  C   UNL     1       5.793   5.582  15.089  0.00  0.00    +0.000 C 
BRANCH  26  27
ATOM     27  C   UNL     1       5.521   4.248  14.382  0.00  0.00    +0.000 C 
BRANCH  27  28
ATOM     28  C   UNL     1       6.581   3.923  13.333  0.00  0.00    +0.000 C 
BRANCH  28  29
ATOM     29  O   UNL     1       6.173   2.841  12.510  0.00  0.00    +0.000 OA
ATOM     30  H   UNL     1       5.220   2.706  12.650  0.00  0.00    +0.000 HD
ENDBRANCH  28  29
ENDBRANCH  27  28
ENDBRANCH  26  27
ENDBRANCH  25  26
ENDBRANCH  23  25
ENDBRANCH   6  21
TORSDOF 8
ENDMDL
MODEL 9
REMARK VINA RESULT:      -7.5      2.186      2.849
REMARK  Name = 
REMARK  8 active torsions:
REMARK  status: ('A' for Active; 'I' for Inactive)
REMARK    1  A    between atoms: C_2  and  C_11
REMARK    2  A    between atoms: N_3  and  C_4
REMARK    3  A    between atoms: C_16  and  C_17
REMARK    4  A    between atoms: N_19  and  C_20
REMARK    5  A    between atoms: C_20  and  C_21
REMARK    6  A    between atoms: C_21  and  C_22
REMARK    7  A    between atoms: C_22  and  C_23
REMARK    8  A    between atoms: C_23  and  O_24
REMARK                            x       y       z     vdW  Elec       q    Type
REMARK                         _______ _______ _______ _____ _____    ______ ____
ROOT
ATOM      1  C   UNL     1       3.178   5.736  18.245  0.00  0.00    +0.000 C 
ATOM      2  C   UNL     1       2.283   4.463  18.125  0.00  0.00    +0.000 C 
ATOM      3  C   UNL     1       1.435   4.373  19.393  0.00  0.00    +0.000 C 
ATOM      4  C   UNL     1       2.269   4.058  20.404  0.00  0.00    +0.000 C 
ATOM      5  C   UNL     1       3.674   3.916  19.811  0.00  0.00    +0.000 C 
ATOM      6  C   UNL     1       4.129   5.369  19.463  0.00  0.00    +0.000 C 
ATOM      7  C   UNL     1       3.303   3.396  18.438  0.00  0.00    +0.000 C 
ATOM      8  C   UNL     1       3.030   1.937  18.168  0.00  0.00    +0.000 C 
ATOM      9  C   UNL     1       4.188   2.633  17.490  0.00  0.00    +0.000 C 
ENDROOT
BRANCH   1  11
ATOM     10  O   UNL     1       1.992   7.695  17.580  0.00  0.00    +0.000 OA
ATOM     11  C   UNL     1       2.404   7.015  18.527  0.00  0.00    +0.000 C 
ATOM     12  N   UNL     1       2.169   7.290  19.862  0.00  0.00    +0.000 N 
ATOM     13  H   UNL     1       2.642   6.725  20.556  0.00  0.00    +0.000 HD
BRANCH  12  14
ATOM     14  C   UNL     1       1.483   8.436  20.347  0.00  0.00    +0.000 A 
ATOM     15  C   UNL     1       1.186   9.537  19.536  0.00  0.00    +0.000 A 
ATOM     16  C   UNL     1       0.599  10.686  20.068  0.00  0.00    +0.000 A 
ATOM     17  C   UNL     1       0.283  10.736  21.417  0.00  0.00    +0.000 A 
ATOM     18 BR   UNL     1      -0.462  12.313  22.141  0.00  0.00    +0.000 Br
ATOM     19  C   UNL     1       0.521   9.630  22.233  0.00  0.00    +0.000 A 
ATOM     20  C   UNL     1       1.110   8.477  21.696  0.00  0.00    +0.000 A 
ENDBRANCH  12  14
ENDBRANCH   1  11
BRANCH   6  21
ATOM     21  C   UNL     1       5.605   5.447  19.114  0.00  0.00    +0.000 C 
ATOM     22  O   UNL     1       6.489   5.052  19.869  0.00  0.00    +0.000 OA
ATOM     23  N   UNL     1       5.895   6.047  17.906  0.00  0.00    +0.000 N 
ATOM     24  H   UNL     1       5.142   6.474  17.371  0.00  0.00    +0.000 HD
BRANCH  23  25
ATOM     25  C   UNL     1       7.268   6.270  17.478  0.00  0.00    +0.000 C 
BRANCH  25  26
ATOM     26  C   UNL     1       7.941   7.384  18.281  0.00  0.00    +0.000 C 
BRANCH  26  27
ATOM     27  C   UNL     1       7.793   8.752  17.605  0.00  0.00    +0.000 C 
BRANCH  27  28
ATOM     28  C   UNL     1       8.679   9.815  18.250  0.00  0.00    +0.000 C 
BRANCH  28  29
ATOM     29  O   UNL     1       9.167   9.380  19.510  0.00  0.00    +0.000 OA
ATOM     30  H   UNL     1       9.625  10.131  19.925  0.00  0.00    +0.000 HD
ENDBRANCH  28  29
ENDBRANCH  27  28
ENDBRANCH  26  27
ENDBRANCH  25  26
ENDBRANCH  23  25
ENDBRANCH   6  21
TORSDOF 8
ENDMDL
