MODEL 1
REMARK VINA RESULT:      -7.8      0.000      0.000
REMARK  Name = 
REMARK  9 active torsions:
REMARK  status: ('A' for Active; 'I' for Inactive)
REMARK    1  A    between atoms: C_1  and  C_2
REMARK    2  A    between atoms: C_4  and  C_5
REMARK    3  A    between atoms: C_5  and  O_7
REMARK    4  A    between atoms: O_7  and  C_8
REMARK    5  A    between atoms: C_8  and  C_9
REMARK    6  A    between atoms: N_11  and  C_12
REMARK    7  A    between atoms: C_12  and  C_13
REMARK    8  A    between atoms: C_18  and  C_19
REMARK    9  A    between atoms: N_20  and  C_21
REMARK                            x       y       z     vdW  Elec       q    Type
REMARK                         _______ _______ _______ _____ _____    ______ ____
ROOT
ATOM      1  C   UNL     1       1.885  10.828  18.001  0.00  0.00    +0.000 C 
ATOM      2  C   UNL     1       2.078   9.369  18.252  0.00  0.00    +0.000 A 
ATOM      3  C   UNL     1       2.791   8.508  17.443  0.00  0.00    +0.000 A 
ATOM      4  C   UNL     1       2.910   7.258  18.095  0.00  0.00    +0.000 A 
ATOM      5  C   UNL     1       2.181   7.361  19.280  0.00  0.00    +0.000 A 
ATOM      6  C   UNL     1       1.891   6.262  20.256  0.00  0.00    +0.000 C 
ATOM      7  N   UNL     1       1.689   8.672  19.401  0.00  0.00    +0.000 N 
ENDROOT
BRANCH   7   8
ATOM      8  C   UNL     1       0.939   9.208  20.505  0.00  0.00    +0.000 A 
ATOM      9  C   UNL     1       1.333   8.965  21.830  0.00  0.00    +0.000 A 
ATOM     10  C   UNL     1       0.587   9.463  22.903  0.00  0.00    +0.000 A 
ATOM     11  C   UNL     1      -0.534  10.240  22.657  0.00  0.00    +0.000 A 
ATOM     12  F   UNL     1      -1.240  10.730  23.683  0.00  0.00    +0.000 F 
ATOM     13  C   UNL     1      -0.931  10.517  21.356  0.00  0.00    +0.000 A 
ATOM     14  C   UNL     1      -0.207   9.988  20.283  0.00  0.00    +0.000 A 
ENDBRANCH   7   8
BRANCH   4  15
ATOM     15  C   UNL     1       3.676   6.097  17.639  0.00  0.00    +0.000 C 
ATOM     16  O   UNL     1       3.185   5.008  17.366  0.00  0.00    +0.000 OA
BRANCH  15  17
ATOM     17  O   UNL     1       5.020   6.327  17.653  0.00  0.00    +0.000 OA
BRANCH  17  18
ATOM     18  C   UNL     1       5.815   5.141  17.600  0.00  0.00    +0.000 C 
BRANCH  18  19
ATOM     19  C   UNL     1       5.609   4.363  18.893  0.00  0.00    +0.000 C 
ATOM     20  O   UNL     1       5.927   4.831  19.986  0.00  0.00    +0.000 OA
ATOM     21  N   UNL     1       5.002   3.132  18.767  0.00  0.00    +0.000 N 
ATOM     22  H   UNL     1       4.605   2.834  17.878  0.00  0.00    +0.000 HD
BRANCH  21  23
ATOM     23  C   UNL     1       4.648   2.404  19.961  0.00  0.00    +0.000 C 
BRANCH  23  24
ATOM     24  C   UNL     1       3.218   2.548  20.332  0.00  0.00    +0.000 A 
ATOM     25  C   UNL     1       2.610   2.778  21.555  0.00  0.00    +0.000 A 
ATOM     26  C   UNL     1       1.216   2.832  21.310  0.00  0.00    +0.000 A 
ATOM     27  C   UNL     1       1.060   2.631  19.958  0.00  0.00    +0.000 A 
ATOM     28  O   UNL     1       2.266   2.462  19.354  0.00  0.00    +0.000 OA
ENDBRANCH  23  24
ENDBRANCH  21  23
ENDBRANCH  18  19
ENDBRANCH  17  18
ENDBRANCH  15  17
ENDBRANCH   4  15
TORSDOF 7
ENDMDL
MODEL 2
REMARK VINA RESULT:      -7.6      2.679      4.790
REMARK  Name = 
REMARK  9 active torsions:
REMARK  status: ('A' for Active; 'I' for Inactive)
REMARK    1  A    between atoms: C_1  and  C_2
REMARK    2  A    between atoms: C_4  and  C_5
REMARK    3  A    between atoms: C_5  and  O_7
REMARK    4  A    between atoms: O_7  and  C_8
REMARK    5  A    between atoms: C_8  and  C_9
REMARK    6  A    between atoms: N_11  and  C_12
REMARK    7  A    between atoms: C_12  and  C_13
REMARK    8  A    between atoms: C_18  and  C_19
REMARK    9  A    between atoms: N_20  and  C_21
REMARK                            x       y       z     vdW  Elec       q    Type
REMARK                         _______ _______ _______ _____ _____    ______ ____
ROOT
ATOM      1  C   UNL     1      -0.146  10.187  22.579  0.00  0.00    +0.000 C 
ATOM      2  C   UNL     1       0.611   9.396  21.563  0.00  0.00    +0.000 A 
ATOM      3  C   UNL     1       1.072   8.107  21.737  0.00  0.00    +0.000 A 
ATOM      4  C   UNL     1       1.572   7.628  20.503  0.00  0.00    +0.000 A 
ATOM      5  C   UNL     1       1.477   8.688  19.602  0.00  0.00    +0.000 A 
ATOM      6  C   UNL     1       1.999   8.724  18.198  0.00  0.00    +0.000 C 
ATOM      7  N   UNL     1       0.856   9.776  20.239  0.00  0.00    +0.000 N 
ENDROOT
BRANCH   7   8
ATOM      8  C   UNL     1       0.516  11.039  19.642  0.00  0.00    +0.000 A 
ATOM      9  C   UNL     1       1.376  12.144  19.753  0.00  0.00    +0.000 A 
ATOM     10  C   UNL     1       1.030  13.380  19.195  0.00  0.00    +0.000 A 
ATOM     11  C   UNL     1      -0.156  13.507  18.491  0.00  0.00    +0.000 A 
ATOM     12  F   UNL     1      -0.480  14.685  17.944  0.00  0.00    +0.000 F 
ATOM     13  C   UNL     1      -1.012  12.424  18.346  0.00  0.00    +0.000 A 
ATOM     14  C   UNL     1      -0.685  11.198  18.934  0.00  0.00    +0.000 A 
ENDBRANCH   7   8
BRANCH   4  15
ATOM     15  C   UNL     1       2.058   6.278  20.216  0.00  0.00    +0.000 C 
ATOM     16  O   UNL     1       1.411   5.255  20.409  0.00  0.00    +0.000 OA
BRANCH  15  17
ATOM     17  O   UNL     1       3.360   6.272  19.809  0.00  0.00    +0.000 OA
BRANCH  17  18
ATOM     18  C   UNL     1       3.880   4.969  19.537  0.00  0.00    +0.000 C 
BRANCH  18  19
ATOM     19  C   UNL     1       5.296   5.119  18.996  0.00  0.00    +0.000 C 
ATOM     20  O   UNL     1       6.278   5.063  19.735  0.00  0.00    +0.000 OA
ATOM     21  N   UNL     1       5.408   5.271  17.631  0.00  0.00    +0.000 N 
ATOM     22  H   UNL     1       4.599   5.157  17.025  0.00  0.00    +0.000 HD
BRANCH  21  23
ATOM     23  C   UNL     1       6.723   5.277  17.036  0.00  0.00    +0.000 C 
BRANCH  23  24
ATOM     24  C   UNL     1       6.721   4.876  15.608  0.00  0.00    +0.000 A 
ATOM     25  C   UNL     1       5.929   3.976  14.912  0.00  0.00    +0.000 A 
ATOM     26  C   UNL     1       6.369   4.006  13.567  0.00  0.00    +0.000 A 
ATOM     27  C   UNL     1       7.399   4.918  13.524  0.00  0.00    +0.000 A 
ATOM     28  O   UNL     1       7.618   5.455  14.753  0.00  0.00    +0.000 OA
ENDBRANCH  23  24
ENDBRANCH  21  23
ENDBRANCH  18  19
ENDBRANCH  17  18
ENDBRANCH  15  17
ENDBRANCH   4  15
TORSDOF 7
ENDMDL
MODEL 3
REMARK VINA RESULT:      -7.4      5.539      8.246
REMARK  Name = 
REMARK  9 active torsions:
REMARK  status: ('A' for Active; 'I' for Inactive)
REMARK    1  A    between atoms: C_1  and  C_2
REMARK    2  A    between atoms: C_4  and  C_5
REMARK    3  A    between atoms: C_5  and  O_7
REMARK    4  A    between atoms: O_7  and  C_8
REMARK    5  A    between atoms: C_8  and  C_9
REMARK    6  A    between atoms: N_11  and  C_12
REMARK    7  A    between atoms: C_12  and  C_13
REMARK    8  A    between atoms: C_18  and  C_19
REMARK    9  A    between atoms: N_20  and  C_21
REMARK                            x       y       z     vdW  Elec       q    Type
REMARK                         _______ _______ _______ _____ _____    ______ ____
ROOT
ATOM      1  C   UNL     1       2.094   7.747  17.912  0.00  0.00    +0.000 C 
ATOM      2  C   UNL     1       3.421   7.072  17.805  0.00  0.00    +0.000 A 
ATOM      3  C   UNL     1       4.546   7.610  17.214  0.00  0.00    +0.000 A 
ATOM      4  C   UNL     1       5.649   6.763  17.469  0.00  0.00    +0.000 A 
ATOM      5  C   UNL     1       5.147   5.659  18.158  0.00  0.00    +0.000 A 
ATOM      6  C   UNL     1       5.898   4.419  18.539  0.00  0.00    +0.000 C 
ATOM      7  N   UNL     1       3.776   5.855  18.397  0.00  0.00    +0.000 N 
ENDROOT
BRANCH   7   8
ATOM      8  C   UNL     1       2.900   4.980  19.129  0.00  0.00    +0.000 A 
ATOM      9  C   UNL     1       2.778   5.083  20.524  0.00  0.00    +0.000 A 
ATOM     10  C   UNL     1       1.947   4.213  21.237  0.00  0.00    +0.000 A 
ATOM     11  C   UNL     1       1.204   3.262  20.556  0.00  0.00    +0.000 A 
ATOM     12  F   UNL     1       0.396   2.438  21.236  0.00  0.00    +0.000 F 
ATOM     13  C   UNL     1       1.287   3.155  19.175  0.00  0.00    +0.000 A 
ATOM     14  C   UNL     1       2.146   4.001  18.465  0.00  0.00    +0.000 A 
ENDBRANCH   7   8
BRANCH   4  15
ATOM     15  C   UNL     1       7.048   7.010  17.116  0.00  0.00    +0.000 C 
ATOM     16  O   UNL     1       7.652   6.419  16.229  0.00  0.00    +0.000 OA
BRANCH  15  17
ATOM     17  O   UNL     1       7.645   7.901  17.959  0.00  0.00    +0.000 OA
BRANCH  17  18
ATOM     18  C   UNL     1       8.249   9.015  17.299  0.00  0.00    +0.000 C 
BRANCH  18  19
ATOM     19  C   UNL     1       8.766   9.981  18.357  0.00  0.00    +0.000 C 
ATOM     20  O   UNL     1       9.217   9.582  19.430  0.00  0.00    +0.000 OA
ATOM     21  N   UNL     1       8.740  11.316  18.019  0.00  0.00    +0.000 N 
ATOM     22  H   UNL     1       8.512  11.611  17.072  0.00  0.00    +0.000 HD
BRANCH  21  23
ATOM     23  C   UNL     1       9.344  12.273  18.915  0.00  0.00    +0.000 C 
BRANCH  23  24
ATOM     24  C   UNL     1      10.437  13.055  18.285  0.00  0.00    +0.000 A 
ATOM     25  C   UNL     1      11.258  12.773  17.205  0.00  0.00    +0.000 A 
ATOM     26  C   UNL     1      12.115  13.889  17.046  0.00  0.00    +0.000 A 
ATOM     27  C   UNL     1      11.768  14.779  18.036  0.00  0.00    +0.000 A 
ATOM     28  O   UNL     1      10.749  14.287  18.790  0.00  0.00    +0.000 OA
ENDBRANCH  23  24
ENDBRANCH  21  23
ENDBRANCH  18  19
ENDBRANCH  17  18
ENDBRANCH  15  17
ENDBRANCH   4  15
TORSDOF 7
ENDMDL
MODEL 4
REMARK VINA RESULT:      -7.4      4.725      7.358
REMARK  Name = 
REMARK  9 active torsions:
REMARK  status: ('A' for Active; 'I' for Inactive)
REMARK    1  A    between atoms: C_1  and  C_2
REMARK    2  A    between atoms: C_4  and  C_5
REMARK    3  A    between atoms: C_5  and  O_7
REMARK    4  A    between atoms: O_7  and  C_8
REMARK    5  A    between atoms: C_8  and  C_9
REMARK    6  A    between atoms: N_11  and  C_12
REMARK    7  A    between atoms: C_12  and  C_13
REMARK    8  A    between atoms: C_18  and  C_19
REMARK    9  A    between atoms: N_20  and  C_21
REMARK                            x       y       z     vdW  Elec       q    Type
REMARK                         _______ _______ _______ _____ _____    ______ ____
ROOT
ATOM      1  C   UNL     1       1.914   7.603  19.554  0.00  0.00    +0.000 C 
ATOM      2  C   UNL     1       2.831   6.825  18.669  0.00  0.00    +0.000 A 
ATOM      3  C   UNL     1       3.638   7.362  17.687  0.00  0.00    +0.000 A 
ATOM      4  C   UNL     1       4.494   6.350  17.191  0.00  0.00    +0.000 A 
ATOM      5  C   UNL     1       4.126   5.171  17.840  0.00  0.00    +0.000 A 
ATOM      6  C   UNL     1       4.647   3.794  17.565  0.00  0.00    +0.000 C 
ATOM      7  N   UNL     1       3.119   5.461  18.778  0.00  0.00    +0.000 N 
ENDROOT
BRANCH   7   8
ATOM      8  C   UNL     1       2.509   4.535  19.693  0.00  0.00    +0.000 A 
ATOM      9  C   UNL     1       1.173   4.134  19.531  0.00  0.00    +0.000 A 
ATOM     10  C   UNL     1       0.573   3.256  20.440  0.00  0.00    +0.000 A 
ATOM     11  C   UNL     1       1.317   2.742  21.490  0.00  0.00    +0.000 A 
ATOM     12  F   UNL     1       0.748   1.889  22.351  0.00  0.00    +0.000 F 
ATOM     13  C   UNL     1       2.647   3.101  21.658  0.00  0.00    +0.000 A 
ATOM     14  C   UNL     1       3.237   4.009  20.772  0.00  0.00    +0.000 A 
ENDBRANCH   7   8
BRANCH   4  15
ATOM     15  C   UNL     1       5.576   6.512  16.219  0.00  0.00    +0.000 C 
ATOM     16  O   UNL     1       5.424   6.482  15.004  0.00  0.00    +0.000 OA
BRANCH  15  17
ATOM     17  O   UNL     1       6.800   6.591  16.816  0.00  0.00    +0.000 OA
BRANCH  17  18
ATOM     18  C   UNL     1       7.443   7.858  16.664  0.00  0.00    +0.000 C 
BRANCH  18  19
ATOM     19  C   UNL     1       8.104   8.225  17.986  0.00  0.00    +0.000 C 
ATOM     20  O   UNL     1       8.457   7.365  18.792  0.00  0.00    +0.000 OA
ATOM     21  N   UNL     1       8.325   9.569  18.197  0.00  0.00    +0.000 N 
ATOM     22  H   UNL     1       8.171  10.247  17.454  0.00  0.00    +0.000 HD
BRANCH  21  23
ATOM     23  C   UNL     1       9.074   9.977  19.362  0.00  0.00    +0.000 C 
BRANCH  23  24
ATOM     24  C   UNL     1      10.133  10.970  19.058  0.00  0.00    +0.000 A 
ATOM     25  C   UNL     1      11.055  11.603  19.877  0.00  0.00    +0.000 A 
ATOM     26  C   UNL     1      11.827  12.446  19.041  0.00  0.00    +0.000 A 
ATOM     27  C   UNL     1      11.330  12.277  17.769  0.00  0.00    +0.000 A 
ATOM     28  O   UNL     1      10.308  11.382  17.766  0.00  0.00    +0.000 OA
ENDBRANCH  23  24
ENDBRANCH  21  23
ENDBRANCH  18  19
ENDBRANCH  17  18
ENDBRANCH  15  17
ENDBRANCH   4  15
TORSDOF 7
ENDMDL
MODEL 5
REMARK VINA RESULT:      -7.4      1.885      3.748
REMARK  Name = 
REMARK  9 active torsions:
REMARK  status: ('A' for Active; 'I' for Inactive)
REMARK    1  A    between atoms: C_1  and  C_2
REMARK    2  A    between atoms: C_4  and  C_5
REMARK    3  A    between atoms: C_5  and  O_7
REMARK    4  A    between atoms: O_7  and  C_8
REMARK    5  A    between atoms: C_8  and  C_9
REMARK    6  A    between atoms: N_11  and  C_12
REMARK    7  A    between atoms: C_12  and  C_13
REMARK    8  A    between atoms: C_18  and  C_19
REMARK    9  A    between atoms: N_20  and  C_21
REMARK                            x       y       z     vdW  Elec       q    Type
REMARK                         _______ _______ _______ _____ _____    ______ ____
ROOT
ATOM      1  C   UNL     1       1.933  10.191  17.969  0.00  0.00    +0.000 C 
ATOM      2  C   UNL     1       1.994   8.796  18.496  0.00  0.00    +0.000 A 
ATOM      3  C   UNL     1       2.660   7.745  17.899  0.00  0.00    +0.000 A 
ATOM      4  C   UNL     1       2.650   6.636  18.778  0.00  0.00    +0.000 A 
ATOM      5  C   UNL     1       1.890   7.017  19.884  0.00  0.00    +0.000 A 
ATOM      6  C   UNL     1       1.474   6.148  21.031  0.00  0.00    +0.000 C 
ATOM      7  N   UNL     1       1.506   8.361  19.733  0.00  0.00    +0.000 N 
ENDROOT
BRANCH   7   8
ATOM      8  C   UNL     1       0.765   9.151  20.678  0.00  0.00    +0.000 A 
ATOM      9  C   UNL     1       0.980   9.015  22.059  0.00  0.00    +0.000 A 
ATOM     10  C   UNL     1       0.238   9.764  22.978  0.00  0.00    +0.000 A 
ATOM     11  C   UNL     1      -0.693  10.683  22.521  0.00  0.00    +0.000 A 
ATOM     12  F   UNL     1      -1.393  11.412  23.399  0.00  0.00    +0.000 F 
ATOM     13  C   UNL     1      -0.907  10.856  21.160  0.00  0.00    +0.000 A 
ATOM     14  C   UNL     1      -0.193  10.080  20.242  0.00  0.00    +0.000 A 
ENDBRANCH   7   8
BRANCH   4  15
ATOM     15  C   UNL     1       3.331   5.355  18.585  0.00  0.00    +0.000 C 
ATOM     16  O   UNL     1       4.259   4.955  19.279  0.00  0.00    +0.000 OA
BRANCH  15  17
ATOM     17  O   UNL     1       2.892   4.697  17.475  0.00  0.00    +0.000 OA
BRANCH  17  18
ATOM     18  C   UNL     1       3.673   3.552  17.128  0.00  0.00    +0.000 C 
BRANCH  18  19
ATOM     19  C   UNL     1       4.992   4.029  16.533  0.00  0.00    +0.000 C 
ATOM     20  O   UNL     1       5.048   4.539  15.415  0.00  0.00    +0.000 OA
ATOM     21  N   UNL     1       6.100   3.898  17.341  0.00  0.00    +0.000 N 
ATOM     22  H   UNL     1       6.006   3.622  18.316  0.00  0.00    +0.000 HD
BRANCH  21  23
ATOM     23  C   UNL     1       7.355   4.458  16.899  0.00  0.00    +0.000 C 
BRANCH  23  24
ATOM     24  C   UNL     1       7.624   5.806  17.458  0.00  0.00    +0.000 A 
ATOM     25  C   UNL     1       7.986   6.211  18.733  0.00  0.00    +0.000 A 
ATOM     26  C   UNL     1       8.118   7.620  18.688  0.00  0.00    +0.000 A 
ATOM     27  C   UNL     1       7.827   7.987  17.394  0.00  0.00    +0.000 A 
ATOM     28  O   UNL     1       7.531   6.897  16.639  0.00  0.00    +0.000 OA
ENDBRANCH  23  24
ENDBRANCH  21  23
ENDBRANCH  18  19
ENDBRANCH  17  18
ENDBRANCH  15  17
ENDBRANCH   4  15
TORSDOF 7
ENDMDL
MODEL 6
REMARK VINA RESULT:      -7.4      5.078      7.576
REMARK  Name = 
REMARK  9 active torsions:
REMARK  status: ('A' for Active; 'I' for Inactive)
REMARK    1  A    between atoms: C_1  and  C_2
REMARK    2  A    between atoms: C_4  and  C_5
REMARK    3  A    between atoms: C_5  and  O_7
REMARK    4  A    between atoms: O_7  and  C_8
REMARK    5  A    between atoms: C_8  and  C_9
REMARK    6  A    between atoms: N_11  and  C_12
REMARK    7  A    between atoms: C_12  and  C_13
REMARK    8  A    between atoms: C_18  and  C_19
REMARK    9  A    between atoms: N_20  and  C_21
REMARK                            x       y       z     vdW  Elec       q    Type
REMARK                         _______ _______ _______ _____ _____    ______ ____
ROOT
ATOM      1  C   UNL     1       2.205   7.864  17.879  0.00  0.00    +0.000 C 
ATOM      2  C   UNL     1       3.514   7.155  17.757  0.00  0.00    +0.000 A 
ATOM      3  C   UNL     1       4.647   7.668  17.160  0.00  0.00    +0.000 A 
ATOM      4  C   UNL     1       5.731   6.791  17.400  0.00  0.00    +0.000 A 
ATOM      5  C   UNL     1       5.206   5.696  18.086  0.00  0.00    +0.000 A 
ATOM      6  C   UNL     1       5.927   4.434  18.452  0.00  0.00    +0.000 C 
ATOM      7  N   UNL     1       3.842   5.925  18.338  0.00  0.00    +0.000 N 
ENDROOT
BRANCH   7   8
ATOM      8  C   UNL     1       2.950   5.069  19.071  0.00  0.00    +0.000 A 
ATOM      9  C   UNL     1       2.170   4.105  18.412  0.00  0.00    +0.000 A 
ATOM     10  C   UNL     1       1.282   3.292  19.124  0.00  0.00    +0.000 A 
ATOM     11  C   UNL     1       1.199   3.410  20.503  0.00  0.00    +0.000 A 
ATOM     12  F   UNL     1       0.360   2.622  21.187  0.00  0.00    +0.000 F 
ATOM     13  C   UNL     1       1.977   4.337  21.182  0.00  0.00    +0.000 A 
ATOM     14  C   UNL     1       2.838   5.176  20.467  0.00  0.00    +0.000 A 
ENDBRANCH   7   8
BRANCH   4  15
ATOM     15  C   UNL     1       7.132   7.004  17.036  0.00  0.00    +0.000 C 
ATOM     16  O   UNL     1       7.698   6.444  16.105  0.00  0.00    +0.000 OA
BRANCH  15  17
ATOM     17  O   UNL     1       7.778   7.819  17.920  0.00  0.00    +0.000 OA
BRANCH  17  18
ATOM     18  C   UNL     1       7.849   9.185  17.509  0.00  0.00    +0.000 C 
BRANCH  18  19
ATOM     19  C   UNL     1       8.798   9.921  18.445  0.00  0.00    +0.000 C 
ATOM     20  O   UNL     1       9.286   9.373  19.433  0.00  0.00    +0.000 OA
ATOM     21  N   UNL     1       9.112  11.216  18.091  0.00  0.00    +0.000 N 
ATOM     22  H   UNL     1       8.825  11.595  17.191  0.00  0.00    +0.000 HD
BRANCH  21  23
ATOM     23  C   UNL     1      10.113  11.924  18.852  0.00  0.00    +0.000 C 
BRANCH  23  24
ATOM     24  C   UNL     1       9.564  12.599  20.054  0.00  0.00    +0.000 A 
ATOM     25  C   UNL     1       9.903  12.498  21.394  0.00  0.00    +0.000 A 
ATOM     26  C   UNL     1       9.050  13.384  22.095  0.00  0.00    +0.000 A 
ATOM     27  C   UNL     1       8.246  13.970  21.144  0.00  0.00    +0.000 A 
ATOM     28  O   UNL     1       8.552  13.506  19.904  0.00  0.00    +0.000 OA
ENDBRANCH  23  24
ENDBRANCH  21  23
ENDBRANCH  18  19
ENDBRANCH  17  18
ENDBRANCH  15  17
ENDBRANCH   4  15
TORSDOF 7
ENDMDL
MODEL 7
REMARK VINA RESULT:      -7.3      5.371      7.998
REMARK  Name = 
REMARK  9 active torsions:
REMARK  status: ('A' for Active; 'I' for Inactive)
REMARK    1  A    between atoms: C_1  and  C_2
REMARK    2  A    between atoms: C_4  and  C_5
REMARK    3  A    between atoms: C_5  and  O_7
REMARK    4  A    between atoms: O_7  and  C_8
REMARK    5  A    between atoms: C_8  and  C_9
REMARK    6  A    between atoms: N_11  and  C_12
REMARK    7  A    between atoms: C_12  and  C_13
REMARK    8  A    between atoms: C_18  and  C_19
REMARK    9  A    between atoms: N_20  and  C_21
REMARK                            x       y       z     vdW  Elec       q    Type
REMARK                         _______ _______ _______ _____ _____    ______ ____
ROOT
ATOM      1  C   UNL     1       2.276   8.011  17.823  0.00  0.00    +0.000 C 
ATOM      2  C   UNL     1       3.571   7.277  17.712  0.00  0.00    +0.000 A 
ATOM      3  C   UNL     1       4.733   7.787  17.168  0.00  0.00    +0.000 A 
ATOM      4  C   UNL     1       5.789   6.876  17.406  0.00  0.00    +0.000 A 
ATOM      5  C   UNL     1       5.220   5.768  18.033  0.00  0.00    +0.000 A 
ATOM      6  C   UNL     1       5.902   4.477  18.372  0.00  0.00    +0.000 C 
ATOM      7  N   UNL     1       3.855   6.019  18.254  0.00  0.00    +0.000 N 
ENDROOT
BRANCH   7   8
ATOM      8  C   UNL     1       2.922   5.156  18.928  0.00  0.00    +0.000 A 
ATOM      9  C   UNL     1       2.728   5.247  20.316  0.00  0.00    +0.000 A 
ATOM     10  C   UNL     1       1.842   4.387  20.973  0.00  0.00    +0.000 A 
ATOM     11  C   UNL     1       1.116   3.461  20.242  0.00  0.00    +0.000 A 
ATOM     12  F   UNL     1       0.256   2.648  20.869  0.00  0.00    +0.000 F 
ATOM     13  C   UNL     1       1.270   3.368  18.866  0.00  0.00    +0.000 A 
ATOM     14  C   UNL     1       2.183   4.201  18.213  0.00  0.00    +0.000 A 
ENDBRANCH   7   8
BRANCH   4  15
ATOM     15  C   UNL     1       7.205   7.070  17.092  0.00  0.00    +0.000 C 
ATOM     16  O   UNL     1       7.796   6.500  16.182  0.00  0.00    +0.000 OA
BRANCH  15  17
ATOM     17  O   UNL     1       7.829   7.879  17.995  0.00  0.00    +0.000 OA
BRANCH  17  18
ATOM     18  C   UNL     1       7.904   9.249  17.598  0.00  0.00    +0.000 C 
BRANCH  18  19
ATOM     19  C   UNL     1       8.938   9.949  18.471  0.00  0.00    +0.000 C 
ATOM     20  O   UNL     1       9.168   9.580  19.622  0.00  0.00    +0.000 OA
ATOM     21  N   UNL     1       9.629  10.983  17.876  0.00  0.00    +0.000 N 
ATOM     22  H   UNL     1       9.536  11.168  16.880  0.00  0.00    +0.000 HD
BRANCH  21  23
ATOM     23  C   UNL     1      10.720  11.596  18.596  0.00  0.00    +0.000 C 
BRANCH  23  24
ATOM     24  C   UNL     1      10.395  12.951  19.107  0.00  0.00    +0.000 A 
ATOM     25  C   UNL     1      10.055  13.391  20.376  0.00  0.00    +0.000 A 
ATOM     26  C   UNL     1       9.862  14.790  20.281  0.00  0.00    +0.000 A 
ATOM     27  C   UNL     1      10.095  15.117  18.965  0.00  0.00    +0.000 A 
ATOM     28  O   UNL     1      10.423  14.012  18.245  0.00  0.00    +0.000 OA
ENDBRANCH  23  24
ENDBRANCH  21  23
ENDBRANCH  18  19
ENDBRANCH  17  18
ENDBRANCH  15  17
ENDBRANCH   4  15
TORSDOF 7
ENDMDL
MODEL 8
REMARK VINA RESULT:      -7.2      4.866      7.820
REMARK  Name = 
REMARK  9 active torsions:
REMARK  status: ('A' for Active; 'I' for Inactive)
REMARK    1  A    between atoms: C_1  and  C_2
REMARK    2  A    between atoms: C_4  and  C_5
REMARK    3  A    between atoms: C_5  and  O_7
REMARK    4  A    between atoms: O_7  and  C_8
REMARK    5  A    between atoms: C_8  and  C_9
REMARK    6  A    between atoms: N_11  and  C_12
REMARK    7  A    between atoms: C_12  and  C_13
REMARK    8  A    between atoms: C_18  and  C_19
REMARK    9  A    between atoms: N_20  and  C_21
REMARK                            x       y       z     vdW  Elec       q    Type
REMARK                         _______ _______ _______ _____ _____    ______ ____
ROOT
ATOM      1  C   UNL     1       2.602   2.917  16.416  0.00  0.00    +0.000 C 
ATOM      2  C   UNL     1       3.780   3.689  16.912  0.00  0.00    +0.000 A 
ATOM      3  C   UNL     1       4.749   4.266  16.117  0.00  0.00    +0.000 A 
ATOM      4  C   UNL     1       5.592   5.063  16.926  0.00  0.00    +0.000 A 
ATOM      5  C   UNL     1       5.159   4.888  18.240  0.00  0.00    +0.000 A 
ATOM      6  C   UNL     1       5.811   5.417  19.480  0.00  0.00    +0.000 C 
ATOM      7  N   UNL     1       4.020   4.064  18.239  0.00  0.00    +0.000 N 
ENDROOT
BRANCH   7   8
ATOM      8  C   UNL     1       3.233   3.687  19.382  0.00  0.00    +0.000 A 
ATOM      9  C   UNL     1       3.624   2.621  20.207  0.00  0.00    +0.000 A 
ATOM     10  C   UNL     1       2.842   2.238  21.303  0.00  0.00    +0.000 A 
ATOM     11  C   UNL     1       1.688   2.945  21.602  0.00  0.00    +0.000 A 
ATOM     12  F   UNL     1       0.948   2.589  22.659  0.00  0.00    +0.000 F 
ATOM     13  C   UNL     1       1.293   4.019  20.818  0.00  0.00    +0.000 A 
ATOM     14  C   UNL     1       2.054   4.379  19.701  0.00  0.00    +0.000 A 
ENDBRANCH   7   8
BRANCH   4  15
ATOM     15  C   UNL     1       6.680   5.932  16.473  0.00  0.00    +0.000 C 
ATOM     16  O   UNL     1       7.567   5.584  15.703  0.00  0.00    +0.000 OA
BRANCH  15  17
ATOM     17  O   UNL     1       6.663   7.148  17.091  0.00  0.00    +0.000 OA
BRANCH  17  18
ATOM     18  C   UNL     1       7.826   7.941  16.851  0.00  0.00    +0.000 C 
BRANCH  18  19
ATOM     19  C   UNL     1       8.364   8.427  18.191  0.00  0.00    +0.000 C 
ATOM     20  O   UNL     1       8.714   7.641  19.069  0.00  0.00    +0.000 OA
ATOM     21  N   UNL     1       8.477   9.793  18.335  0.00  0.00    +0.000 N 
ATOM     22  H   UNL     1       8.332  10.416  17.544  0.00  0.00    +0.000 HD
BRANCH  21  23
ATOM     23  C   UNL     1       9.110  10.317  19.522  0.00  0.00    +0.000 C 
BRANCH  23  24
ATOM     24  C   UNL     1      10.292  11.166  19.228  0.00  0.00    +0.000 A 
ATOM     25  C   UNL     1      11.223  11.757  20.067  0.00  0.00    +0.000 A 
ATOM     26  C   UNL     1      12.137  12.446  19.234  0.00  0.00    +0.000 A 
ATOM     27  C   UNL     1      11.709  12.235  17.944  0.00  0.00    +0.000 A 
ATOM     28  O   UNL     1      10.595  11.457  17.928  0.00  0.00    +0.000 OA
ENDBRANCH  23  24
ENDBRANCH  21  23
ENDBRANCH  18  19
ENDBRANCH  17  18
ENDBRANCH  15  17
ENDBRANCH   4  15
TORSDOF 7
ENDMDL
MODEL 9
REMARK VINA RESULT:      -7.2      4.258      8.099
REMARK  Name = 
REMARK  9 active torsions:
REMARK  status: ('A' for Active; 'I' for Inactive)
REMARK    1  A    between atoms: C_1  and  C_2
REMARK    2  A    between atoms: C_4  and  C_5
REMARK    3  A    between atoms: C_5  and  O_7
REMARK    4  A    between atoms: O_7  and  C_8
REMARK    5  A    between atoms: C_8  and  C_9
REMARK    6  A    between atoms: N_11  and  C_12
REMARK    7  A    between atoms: C_12  and  C_13
REMARK    8  A    between atoms: C_18  and  C_19
REMARK    9  A    between atoms: N_20  and  C_21
REMARK                            x       y       z     vdW  Elec       q    Type
REMARK                         _______ _______ _______ _____ _____    ______ ____
ROOT
ATOM      1  C   UNL     1       4.269   3.221  19.787  0.00  0.00    +0.000 C 
ATOM      2  C   UNL     1       3.534   4.508  19.605  0.00  0.00    +0.000 A 
ATOM      3  C   UNL     1       2.564   5.000  20.455  0.00  0.00    +0.000 A 
ATOM      4  C   UNL     1       2.234   6.318  20.061  0.00  0.00    +0.000 A 
ATOM      5  C   UNL     1       2.968   6.578  18.904  0.00  0.00    +0.000 A 
ATOM      6  C   UNL     1       2.868   7.791  18.029  0.00  0.00    +0.000 C 
ATOM      7  N   UNL     1       3.797   5.477  18.631  0.00  0.00    +0.000 N 
ENDROOT
BRANCH   7   8
ATOM      8  C   UNL     1       4.753   5.367  17.562  0.00  0.00    +0.000 A 
ATOM      9  C   UNL     1       4.444   4.665  16.386  0.00  0.00    +0.000 A 
ATOM     10  C   UNL     1       5.385   4.536  15.360  0.00  0.00    +0.000 A 
ATOM     11  C   UNL     1       6.625   5.141  15.486  0.00  0.00    +0.000 A 
ATOM     12  F   UNL     1       7.522   5.031  14.498  0.00  0.00    +0.000 F 
ATOM     13  C   UNL     1       6.947   5.863  16.627  0.00  0.00    +0.000 A 
ATOM     14  C   UNL     1       6.020   5.961  17.670  0.00  0.00    +0.000 A 
ENDBRANCH   7   8
BRANCH   4  15
ATOM     15  C   UNL     1       1.332   7.242  20.750  0.00  0.00    +0.000 C 
ATOM     16  O   UNL     1       0.131   7.050  20.904  0.00  0.00    +0.000 OA
BRANCH  15  17
ATOM     17  O   UNL     1       1.954   8.401  21.110  0.00  0.00    +0.000 OA
BRANCH  17  18
ATOM     18  C   UNL     1       1.159   9.260  21.930  0.00  0.00    +0.000 C 
BRANCH  18  19
ATOM     19  C   UNL     1       0.724  10.457  21.095  0.00  0.00    +0.000 C 
ATOM     20  O   UNL     1       1.139  11.592  21.328  0.00  0.00    +0.000 OA
ATOM     21  N   UNL     1      -0.119  10.183  20.040  0.00  0.00    +0.000 N 
ATOM     22  H   UNL     1      -0.323   9.223  19.770  0.00  0.00    +0.000 HD
BRANCH  21  23
ATOM     23  C   UNL     1      -0.457  11.245  19.124  0.00  0.00    +0.000 C 
BRANCH  23  24
ATOM     24  C   UNL     1      -1.618  10.924  18.257  0.00  0.00    +0.000 A 
ATOM     25  C   UNL     1      -1.784   9.966  17.270  0.00  0.00    +0.000 A 
ATOM     26  C   UNL     1      -3.106  10.112  16.783  0.00  0.00    +0.000 A 
ATOM     27  C   UNL     1      -3.662  11.147  17.499  0.00  0.00    +0.000 A 
ATOM     28  O   UNL     1      -2.772  11.643  18.398  0.00  0.00    +0.000 OA
ENDBRANCH  23  24
ENDBRANCH  21  23
ENDBRANCH  18  19
ENDBRANCH  17  18
ENDBRANCH  15  17
ENDBRANCH   4  15
TORSDOF 7
ENDMDL
