MODEL 1
REMARK VINA RESULT:      -9.0      0.000      0.000
REMARK  Name = 
REMARK  7 active torsions:
REMARK  status: ('A' for Active; 'I' for Inactive)
REMARK    1  A    between atoms: C_1  and  N_2
REMARK    2  A    between atoms: C_3  and  C_4
REMARK    3  A    between atoms: C_4  and  N_5
REMARK    4  A    between atoms: N_5  and  C_6
REMARK    5  A    between atoms: C_18  and  C_19
REMARK    6  A    between atoms: C_25  and  C_26
REMARK    7  A    between atoms: C_26  and  N_27
REMARK                            x       y       z     vdW  Elec       q    Type
REMARK                         _______ _______ _______ _____ _____    ______ ____
ROOT
ATOM      1  C   UNL     1       1.709   7.931  20.478  0.00  0.00    +0.000 C 
ATOM      2  N   UNL     1       2.373   7.516  19.264  0.00  0.00    +0.000 N 
ATOM      3  C   UNL     1       2.620   8.339  18.183  0.00  0.00    +0.000 A 
ATOM      4  N   UNL     1       3.573   7.816  17.436  0.00  0.00    +0.000 NA
ATOM      5  C   UNL     1       3.847   6.576  17.967  0.00  0.00    +0.000 A 
ATOM      6  C   UNL     1       3.007   6.303  19.041  0.00  0.00    +0.000 A 
ENDROOT
BRANCH   5   7
ATOM      7  C   UNL     1       4.958   5.766  17.482  0.00  0.00    +0.000 A 
ATOM      8  C   UNL     1       4.950   5.329  16.148  0.00  0.00    +0.000 A 
ATOM      9  C   UNL     1       6.032   4.620  15.620  0.00  0.00    +0.000 A 
ATOM     10  C   UNL     1       7.142   4.348  16.415  0.00  0.00    +0.000 A 
ATOM     11  C   UNL     1       7.154   4.754  17.748  0.00  0.00    +0.000 A 
ATOM     12  C   UNL     1       6.058   5.435  18.282  0.00  0.00    +0.000 A 
ENDBRANCH   5   7
BRANCH   3  13
ATOM     13  C   UNL     1       1.896   9.637  17.908  0.00  0.00    +0.000 C 
BRANCH  13  14
ATOM     14  N   UNL     1       0.431   9.545  17.897  0.00  0.00    +0.000 N 
ATOM     15  H   UNL     1       0.080   9.373  16.965  0.00  0.00    +0.000 HD
BRANCH  14  16
ATOM     16  C   UNL     1      -0.355  10.443  18.644  0.00  0.00    +0.000 A 
ATOM     17  C   UNL     1       0.112  11.003  19.837  0.00  0.00    +0.000 A 
ATOM     18  C   UNL     1      -0.707  11.849  20.561  0.00  0.00    +0.000 A 
ATOM     19  N   UNL     1      -1.957  12.183  20.189  0.00  0.00    +0.000 NA
ATOM     20  C   UNL     1      -2.452  11.620  19.080  0.00  0.00    +0.000 A 
ATOM     21  C   UNL     1      -3.749  11.957  18.723  0.00  0.00    +0.000 A 
ATOM     22  C   UNL     1      -4.347  11.404  17.595  0.00  0.00    +0.000 A 
ATOM     23 CL   UNL     1      -5.954  11.861  17.165  0.00  0.00    +0.000 Cl
ATOM     24  C   UNL     1      -3.668  10.482  16.816  0.00  0.00    +0.000 A 
ATOM     25  C   UNL     1      -2.360  10.138  17.155  0.00  0.00    +0.000 A 
ATOM     26  C   UNL     1      -1.708  10.714  18.275  0.00  0.00    +0.000 A 
ENDBRANCH  14  16
ENDBRANCH  13  14
ENDBRANCH   3  13
BRANCH   6  27
ATOM     27  C   UNL     1       2.882   5.089  19.915  0.00  0.00    +0.000 C 
BRANCH  27  28
ATOM     28  N   UNL     1       2.006   4.015  19.396  0.00  0.00    +0.000 NA
ATOM     29  C   UNL     1       2.699   2.707  19.522  0.00  0.00    +0.000 C 
ATOM     30  C   UNL     1       3.389   2.477  18.188  0.00  0.00    +0.000 C 
ATOM     31  C   UNL     1       2.372   3.005  17.203  0.00  0.00    +0.000 C 
ATOM     32  C   UNL     1       1.648   4.115  17.966  0.00  0.00    +0.000 C 
ENDBRANCH  27  28
ENDBRANCH   6  27
TORSDOF 6
ENDMDL
MODEL 2
REMARK VINA RESULT:      -8.8      0.817      1.206
REMARK  Name = 
REMARK  7 active torsions:
REMARK  status: ('A' for Active; 'I' for Inactive)
REMARK    1  A    between atoms: C_1  and  N_2
REMARK    2  A    between atoms: C_3  and  C_4
REMARK    3  A    between atoms: C_4  and  N_5
REMARK    4  A    between atoms: N_5  and  C_6
REMARK    5  A    between atoms: C_18  and  C_19
REMARK    6  A    between atoms: C_25  and  C_26
REMARK    7  A    between atoms: C_26  and  N_27
REMARK                            x       y       z     vdW  Elec       q    Type
REMARK                         _______ _______ _______ _____ _____    ______ ____
ROOT
ATOM      1  C   UNL     1       1.673   8.093  20.385  0.00  0.00    +0.000 C 
ATOM      2  N   UNL     1       2.286   7.731  19.127  0.00  0.00    +0.000 N 
ATOM      3  C   UNL     1       2.516   8.608  18.085  0.00  0.00    +0.000 A 
ATOM      4  N   UNL     1       3.431   8.107  17.278  0.00  0.00    +0.000 NA
ATOM      5  C   UNL     1       3.694   6.833  17.730  0.00  0.00    +0.000 A 
ATOM      6  C   UNL     1       2.884   6.519  18.816  0.00  0.00    +0.000 A 
ENDROOT
BRANCH   5   7
ATOM      7  C   UNL     1       4.769   6.029  17.163  0.00  0.00    +0.000 A 
ATOM      8  C   UNL     1       6.094   6.469  17.302  0.00  0.00    +0.000 A 
ATOM      9  C   UNL     1       7.160   5.689  16.845  0.00  0.00    +0.000 A 
ATOM     10  C   UNL     1       6.915   4.453  16.252  0.00  0.00    +0.000 A 
ATOM     11  C   UNL     1       5.603   4.013  16.086  0.00  0.00    +0.000 A 
ATOM     12  C   UNL     1       4.539   4.810  16.516  0.00  0.00    +0.000 A 
ENDBRANCH   5   7
BRANCH   3  13
ATOM     13  C   UNL     1       1.814   9.934  17.906  0.00  0.00    +0.000 C 
BRANCH  13  14
ATOM     14  N   UNL     1       0.348   9.868  17.897  0.00  0.00    +0.000 N 
ATOM     15  H   UNL     1      -0.005   9.627  16.981  0.00  0.00    +0.000 HD
BRANCH  14  16
ATOM     16  C   UNL     1      -0.425  10.838  18.565  0.00  0.00    +0.000 A 
ATOM     17  C   UNL     1       0.149  11.711  19.495  0.00  0.00    +0.000 A 
ATOM     18  C   UNL     1      -0.652  12.622  20.159  0.00  0.00    +0.000 A 
ATOM     19  N   UNL     1      -1.980  12.733  19.968  0.00  0.00    +0.000 NA
ATOM     20  C   UNL     1      -2.565  11.876  19.124  0.00  0.00    +0.000 A 
ATOM     21  C   UNL     1      -3.937  11.988  18.957  0.00  0.00    +0.000 A 
ATOM     22  C   UNL     1      -4.628  11.125  18.112  0.00  0.00    +0.000 A 
ATOM     23 CL   UNL     1      -6.331  11.306  17.907  0.00  0.00    +0.000 Cl
ATOM     24  C   UNL     1      -3.964  10.114  17.439  0.00  0.00    +0.000 A 
ATOM     25  C   UNL     1      -2.582   9.990  17.589  0.00  0.00    +0.000 A 
ATOM     26  C   UNL     1      -1.844  10.879  18.411  0.00  0.00    +0.000 A 
ENDBRANCH  14  16
ENDBRANCH  13  14
ENDBRANCH   3  13
BRANCH   6  27
ATOM     27  C   UNL     1       2.760   5.261  19.626  0.00  0.00    +0.000 C 
BRANCH  27  28
ATOM     28  N   UNL     1       1.519   4.484  19.413  0.00  0.00    +0.000 NA
ATOM     29  C   UNL     1       1.136   3.806  20.678  0.00  0.00    +0.000 C 
ATOM     30  C   UNL     1       1.748   2.417  20.601  0.00  0.00    +0.000 C 
ATOM     31  C   UNL     1       1.552   2.057  19.147  0.00  0.00    +0.000 C 
ATOM     32  C   UNL     1       1.607   3.398  18.415  0.00  0.00    +0.000 C 
ENDBRANCH  27  28
ENDBRANCH   6  27
TORSDOF 6
ENDMDL
MODEL 3
REMARK VINA RESULT:      -8.6      2.559      3.372
REMARK  Name = 
REMARK  7 active torsions:
REMARK  status: ('A' for Active; 'I' for Inactive)
REMARK    1  A    between atoms: C_1  and  N_2
REMARK    2  A    between atoms: C_3  and  C_4
REMARK    3  A    between atoms: C_4  and  N_5
REMARK    4  A    between atoms: N_5  and  C_6
REMARK    5  A    between atoms: C_18  and  C_19
REMARK    6  A    between atoms: C_25  and  C_26
REMARK    7  A    between atoms: C_26  and  N_27
REMARK                            x       y       z     vdW  Elec       q    Type
REMARK                         _______ _______ _______ _____ _____    ______ ____
ROOT
ATOM      1  C   UNL     1       1.601   7.701  20.496  0.00  0.00    +0.000 C 
ATOM      2  N   UNL     1       2.265   7.304  19.275  0.00  0.00    +0.000 N 
ATOM      3  C   UNL     1       2.319   8.068  18.127  0.00  0.00    +0.000 A 
ATOM      4  N   UNL     1       3.308   7.650  17.362  0.00  0.00    +0.000 NA
ATOM      5  C   UNL     1       3.812   6.517  17.961  0.00  0.00    +0.000 A 
ATOM      6  C   UNL     1       3.083   6.197  19.101  0.00  0.00    +0.000 A 
ENDROOT
BRANCH   5   7
ATOM      7  C   UNL     1       5.018   5.864  17.467  0.00  0.00    +0.000 A 
ATOM      8  C   UNL     1       6.152   5.817  18.291  0.00  0.00    +0.000 A 
ATOM      9  C   UNL     1       7.302   5.131  17.890  0.00  0.00    +0.000 A 
ATOM     10  C   UNL     1       7.328   4.473  16.663  0.00  0.00    +0.000 A 
ATOM     11  C   UNL     1       6.218   4.531  15.824  0.00  0.00    +0.000 A 
ATOM     12  C   UNL     1       5.082   5.244  16.214  0.00  0.00    +0.000 A 
ENDBRANCH   5   7
BRANCH   3  13
ATOM     13  C   UNL     1       1.376   9.205  17.806  0.00  0.00    +0.000 C 
BRANCH  13  14
ATOM     14  N   UNL     1       1.875  10.543  18.144  0.00  0.00    +0.000 N 
ATOM     15  H   UNL     1       2.810  10.502  18.526  0.00  0.00    +0.000 HD
BRANCH  14  16
ATOM     16  C   UNL     1       1.043  11.486  18.779  0.00  0.00    +0.000 A 
ATOM     17  C   UNL     1      -0.184  11.114  19.338  0.00  0.00    +0.000 A 
ATOM     18  C   UNL     1      -0.989  12.077  19.917  0.00  0.00    +0.000 A 
ATOM     19  N   UNL     1      -0.668  13.383  19.984  0.00  0.00    +0.000 NA
ATOM     20  C   UNL     1       0.475  13.777  19.409  0.00  0.00    +0.000 A 
ATOM     21  C   UNL     1       0.780  15.129  19.466  0.00  0.00    +0.000 A 
ATOM     22  C   UNL     1       1.939  15.626  18.879  0.00  0.00    +0.000 A 
ATOM     23 CL   UNL     1       2.301  17.309  18.988  0.00  0.00    +0.000 Cl
ATOM     24  C   UNL     1       2.803  14.785  18.199  0.00  0.00    +0.000 A 
ATOM     25  C   UNL     1       2.517  13.421  18.138  0.00  0.00    +0.000 A 
ATOM     26  C   UNL     1       1.364  12.877  18.760  0.00  0.00    +0.000 A 
ENDBRANCH  14  16
ENDBRANCH  13  14
ENDBRANCH   3  13
BRANCH   6  27
ATOM     27  C   UNL     1       3.204   5.052  20.064  0.00  0.00    +0.000 C 
BRANCH  27  28
ATOM     28  N   UNL     1       2.400   3.854  19.738  0.00  0.00    +0.000 NA
ATOM     29  C   UNL     1       3.282   2.659  19.706  0.00  0.00    +0.000 C 
ATOM     30  C   UNL     1       3.698   2.494  18.253  0.00  0.00    +0.000 C 
ATOM     31  C   UNL     1       2.431   2.851  17.512  0.00  0.00    +0.000 C 
ATOM     32  C   UNL     1       1.735   3.867  18.418  0.00  0.00    +0.000 C 
ENDBRANCH  27  28
ENDBRANCH   6  27
TORSDOF 6
ENDMDL
MODEL 4
REMARK VINA RESULT:      -8.5      3.029      3.962
REMARK  Name = 
REMARK  7 active torsions:
REMARK  status: ('A' for Active; 'I' for Inactive)
REMARK    1  A    between atoms: C_1  and  N_2
REMARK    2  A    between atoms: C_3  and  C_4
REMARK    3  A    between atoms: C_4  and  N_5
REMARK    4  A    between atoms: N_5  and  C_6
REMARK    5  A    between atoms: C_18  and  C_19
REMARK    6  A    between atoms: C_25  and  C_26
REMARK    7  A    between atoms: C_26  and  N_27
REMARK                            x       y       z     vdW  Elec       q    Type
REMARK                         _______ _______ _______ _____ _____    ______ ____
ROOT
ATOM      1  C   UNL     1       1.683   7.897  20.573  0.00  0.00    +0.000 C 
ATOM      2  N   UNL     1       2.234   7.529  19.288  0.00  0.00    +0.000 N 
ATOM      3  C   UNL     1       2.131   8.292  18.142  0.00  0.00    +0.000 A 
ATOM      4  N   UNL     1       3.053   7.919  17.277  0.00  0.00    +0.000 NA
ATOM      5  C   UNL     1       3.669   6.813  17.816  0.00  0.00    +0.000 A 
ATOM      6  C   UNL     1       3.079   6.461  19.026  0.00  0.00    +0.000 A 
ENDROOT
BRANCH   5   7
ATOM      7  C   UNL     1       4.846   6.216  17.197  0.00  0.00    +0.000 A 
ATOM      8  C   UNL     1       4.684   5.090  16.375  0.00  0.00    +0.000 A 
ATOM      9  C   UNL     1       5.773   4.535  15.698  0.00  0.00    +0.000 A 
ATOM     10  C   UNL     1       7.038   5.105  15.826  0.00  0.00    +0.000 A 
ATOM     11  C   UNL     1       7.217   6.208  16.657  0.00  0.00    +0.000 A 
ATOM     12  C   UNL     1       6.133   6.742  17.358  0.00  0.00    +0.000 A 
ENDBRANCH   5   7
BRANCH   3  13
ATOM     13  C   UNL     1       1.107   9.383  17.925  0.00  0.00    +0.000 C 
BRANCH  13  14
ATOM     14  N   UNL     1       1.636  10.752  17.962  0.00  0.00    +0.000 N 
ATOM     15  H   UNL     1       2.570  10.796  17.577  0.00  0.00    +0.000 HD
BRANCH  14  16
ATOM     16  C   UNL     1       1.451  11.568  19.095  0.00  0.00    +0.000 A 
ATOM     17  C   UNL     1       0.555  11.214  20.109  0.00  0.00    +0.000 A 
ATOM     18  C   UNL     1       0.372  12.063  21.185  0.00  0.00    +0.000 A 
ATOM     19  N   UNL     1       1.012  13.238  21.330  0.00  0.00    +0.000 NA
ATOM     20  C   UNL     1       1.834  13.630  20.350  0.00  0.00    +0.000 A 
ATOM     21  C   UNL     1       2.467  14.853  20.504  0.00  0.00    +0.000 A 
ATOM     22  C   UNL     1       3.324  15.344  19.524  0.00  0.00    +0.000 A 
ATOM     23 CL   UNL     1       4.115  16.860  19.757  0.00  0.00    +0.000 Cl
ATOM     24  C   UNL     1       3.544  14.633  18.357  0.00  0.00    +0.000 A 
ATOM     25  C   UNL     1       2.922  13.396  18.188  0.00  0.00    +0.000 A 
ATOM     26  C   UNL     1       2.074  12.850  19.185  0.00  0.00    +0.000 A 
ENDBRANCH  14  16
ENDBRANCH  13  14
ENDBRANCH   3  13
BRANCH   6  27
ATOM     27  C   UNL     1       3.354   5.326  19.968  0.00  0.00    +0.000 C 
BRANCH  27  28
ATOM     28  N   UNL     1       2.955   3.985  19.487  0.00  0.00    +0.000 NA
ATOM     29  C   UNL     1       1.541   4.021  19.037  0.00  0.00    +0.000 C 
ATOM     30  C   UNL     1       0.717   3.584  20.237  0.00  0.00    +0.000 C 
ATOM     31  C   UNL     1       1.573   2.493  20.837  0.00  0.00    +0.000 C 
ATOM     32  C   UNL     1       3.005   2.902  20.491  0.00  0.00    +0.000 C 
ENDBRANCH  27  28
ENDBRANCH   6  27
TORSDOF 6
ENDMDL
MODEL 5
REMARK VINA RESULT:      -8.5      2.939      3.733
REMARK  Name = 
REMARK  7 active torsions:
REMARK  status: ('A' for Active; 'I' for Inactive)
REMARK    1  A    between atoms: C_1  and  N_2
REMARK    2  A    between atoms: C_3  and  C_4
REMARK    3  A    between atoms: C_4  and  N_5
REMARK    4  A    between atoms: N_5  and  C_6
REMARK    5  A    between atoms: C_18  and  C_19
REMARK    6  A    between atoms: C_25  and  C_26
REMARK    7  A    between atoms: C_26  and  N_27
REMARK                            x       y       z     vdW  Elec       q    Type
REMARK                         _______ _______ _______ _____ _____    ______ ____
ROOT
ATOM      1  C   UNL     1       1.531   7.764  20.584  0.00  0.00    +0.000 C 
ATOM      2  N   UNL     1       2.179   7.385  19.349  0.00  0.00    +0.000 N 
ATOM      3  C   UNL     1       2.228   8.170  18.214  0.00  0.00    +0.000 A 
ATOM      4  N   UNL     1       3.205   7.757  17.431  0.00  0.00    +0.000 NA
ATOM      5  C   UNL     1       3.705   6.609  18.003  0.00  0.00    +0.000 A 
ATOM      6  C   UNL     1       2.984   6.274  19.145  0.00  0.00    +0.000 A 
ENDROOT
BRANCH   5   7
ATOM      7  C   UNL     1       4.899   5.954  17.485  0.00  0.00    +0.000 A 
ATOM      8  C   UNL     1       4.954   5.620  16.123  0.00  0.00    +0.000 A 
ATOM      9  C   UNL     1       6.110   5.065  15.568  0.00  0.00    +0.000 A 
ATOM     10  C   UNL     1       7.231   4.847  16.365  0.00  0.00    +0.000 A 
ATOM     11  C   UNL     1       7.183   5.152  17.724  0.00  0.00    +0.000 A 
ATOM     12  C   UNL     1       6.015   5.677  18.282  0.00  0.00    +0.000 A 
ENDBRANCH   5   7
BRANCH   3  13
ATOM     13  C   UNL     1       1.292   9.321  17.925  0.00  0.00    +0.000 C 
BRANCH  13  14
ATOM     14  N   UNL     1       1.895  10.655  18.025  0.00  0.00    +0.000 N 
ATOM     15  H   UNL     1       2.875  10.637  17.775  0.00  0.00    +0.000 HD
BRANCH  14  16
ATOM     16  C   UNL     1       1.604  11.501  19.114  0.00  0.00    +0.000 A 
ATOM     17  C   UNL     1       0.696  11.122  20.107  0.00  0.00    +0.000 A 
ATOM     18  C   UNL     1       0.407  11.998  21.137  0.00  0.00    +0.000 A 
ATOM     19  N   UNL     1       0.952  13.223  21.255  0.00  0.00    +0.000 NA
ATOM     20  C   UNL     1       1.784  13.635  20.291  0.00  0.00    +0.000 A 
ATOM     21  C   UNL     1       2.319  14.907  20.416  0.00  0.00    +0.000 A 
ATOM     22  C   UNL     1       3.178  15.421  19.449  0.00  0.00    +0.000 A 
ATOM     23 CL   UNL     1       3.846  16.999  19.646  0.00  0.00    +0.000 Cl
ATOM     24  C   UNL     1       3.497  14.681  18.323  0.00  0.00    +0.000 A 
ATOM     25  C   UNL     1       2.974  13.395  18.184  0.00  0.00    +0.000 A 
ATOM     26  C   UNL     1       2.128  12.828  19.171  0.00  0.00    +0.000 A 
ENDBRANCH  14  16
ENDBRANCH  13  14
ENDBRANCH   3  13
BRANCH   6  27
ATOM     27  C   UNL     1       3.105   5.110  20.085  0.00  0.00    +0.000 C 
BRANCH  27  28
ATOM     28  N   UNL     1       2.360   3.893  19.695  0.00  0.00    +0.000 NA
ATOM     29  C   UNL     1       3.294   2.741  19.628  0.00  0.00    +0.000 C 
ATOM     30  C   UNL     1       3.740   2.656  18.177  0.00  0.00    +0.000 C 
ATOM     31  C   UNL     1       2.470   2.988  17.430  0.00  0.00    +0.000 C 
ATOM     32  C   UNL     1       1.716   3.933  18.366  0.00  0.00    +0.000 C 
ENDBRANCH  27  28
ENDBRANCH   6  27
TORSDOF 6
ENDMDL
MODEL 6
REMARK VINA RESULT:      -8.4      2.658      3.502
REMARK  Name = 
REMARK  7 active torsions:
REMARK  status: ('A' for Active; 'I' for Inactive)
REMARK    1  A    between atoms: C_1  and  N_2
REMARK    2  A    between atoms: C_3  and  C_4
REMARK    3  A    between atoms: C_4  and  N_5
REMARK    4  A    between atoms: N_5  and  C_6
REMARK    5  A    between atoms: C_18  and  C_19
REMARK    6  A    between atoms: C_25  and  C_26
REMARK    7  A    between atoms: C_26  and  N_27
REMARK                            x       y       z     vdW  Elec       q    Type
REMARK                         _______ _______ _______ _____ _____    ______ ____
ROOT
ATOM      1  C   UNL     1       1.715   7.961  20.509  0.00  0.00    +0.000 C 
ATOM      2  N   UNL     1       2.254   7.551  19.232  0.00  0.00    +0.000 N 
ATOM      3  C   UNL     1       2.160   8.287  18.068  0.00  0.00    +0.000 A 
ATOM      4  N   UNL     1       3.072   7.876  17.208  0.00  0.00    +0.000 NA
ATOM      5  C   UNL     1       3.670   6.772  17.773  0.00  0.00    +0.000 A 
ATOM      6  C   UNL     1       3.078   6.462  18.993  0.00  0.00    +0.000 A 
ENDROOT
BRANCH   5   7
ATOM      7  C   UNL     1       4.833   6.138  17.165  0.00  0.00    +0.000 A 
ATOM      8  C   UNL     1       6.099   6.712  17.358  0.00  0.00    +0.000 A 
ATOM      9  C   UNL     1       7.249   6.093  16.861  0.00  0.00    +0.000 A 
ATOM     10  C   UNL     1       7.150   4.886  16.172  0.00  0.00    +0.000 A 
ATOM     11  C   UNL     1       5.897   4.318  15.952  0.00  0.00    +0.000 A 
ATOM     12  C   UNL     1       4.746   4.955  16.423  0.00  0.00    +0.000 A 
ENDBRANCH   5   7
BRANCH   3  13
ATOM     13  C   UNL     1       1.156   9.391  17.827  0.00  0.00    +0.000 C 
BRANCH  13  14
ATOM     14  N   UNL     1       1.613  10.739  18.185  0.00  0.00    +0.000 N 
ATOM     15  H   UNL     1       2.499  10.711  18.670  0.00  0.00    +0.000 HD
BRANCH  14  16
ATOM     16  C   UNL     1       0.715  11.695  18.698  0.00  0.00    +0.000 A 
ATOM     17  C   UNL     1      -0.575  11.338  19.103  0.00  0.00    +0.000 A 
ATOM     18  C   UNL     1      -1.440  12.313  19.564  0.00  0.00    +0.000 A 
ATOM     19  N   UNL     1      -1.120  13.618  19.654  0.00  0.00    +0.000 NA
ATOM     20  C   UNL     1       0.088  13.998  19.223  0.00  0.00    +0.000 A 
ATOM     21  C   UNL     1       0.394  15.348  19.301  0.00  0.00    +0.000 A 
ATOM     22  C   UNL     1       1.621  15.831  18.858  0.00  0.00    +0.000 A 
ATOM     23 CL   UNL     1       1.979  17.514  18.990  0.00  0.00    +0.000 Cl
ATOM     24  C   UNL     1       2.558  14.976  18.303  0.00  0.00    +0.000 A 
ATOM     25  C   UNL     1       2.272  13.613  18.224  0.00  0.00    +0.000 A 
ATOM     26  C   UNL     1       1.046  13.084  18.703  0.00  0.00    +0.000 A 
ENDBRANCH  14  16
ENDBRANCH  13  14
ENDBRANCH   3  13
BRANCH   6  27
ATOM     27  C   UNL     1       3.337   5.345  19.962  0.00  0.00    +0.000 C 
BRANCH  27  28
ATOM     28  N   UNL     1       2.954   3.993  19.497  0.00  0.00    +0.000 NA
ATOM     29  C   UNL     1       1.543   4.011  19.034  0.00  0.00    +0.000 C 
ATOM     30  C   UNL     1       0.711   3.584  20.232  0.00  0.00    +0.000 C 
ATOM     31  C   UNL     1       1.571   2.510  20.855  0.00  0.00    +0.000 C 
ATOM     32  C   UNL     1       3.002   2.926  20.517  0.00  0.00    +0.000 C 
ENDBRANCH  27  28
ENDBRANCH   6  27
TORSDOF 6
ENDMDL
MODEL 7
REMARK VINA RESULT:      -8.3      1.597      2.456
REMARK  Name = 
REMARK  7 active torsions:
REMARK  status: ('A' for Active; 'I' for Inactive)
REMARK    1  A    between atoms: C_1  and  N_2
REMARK    2  A    between atoms: C_3  and  C_4
REMARK    3  A    between atoms: C_4  and  N_5
REMARK    4  A    between atoms: N_5  and  C_6
REMARK    5  A    between atoms: C_18  and  C_19
REMARK    6  A    between atoms: C_25  and  C_26
REMARK    7  A    between atoms: C_26  and  N_27
REMARK                            x       y       z     vdW  Elec       q    Type
REMARK                         _______ _______ _______ _____ _____    ______ ____
ROOT
ATOM      1  C   UNL     1       1.540   7.667  20.639  0.00  0.00    +0.000 C 
ATOM      2  N   UNL     1       2.232   7.278  19.431  0.00  0.00    +0.000 N 
ATOM      3  C   UNL     1       2.388   8.084  18.321  0.00  0.00    +0.000 A 
ATOM      4  N   UNL     1       3.382   7.633  17.581  0.00  0.00    +0.000 NA
ATOM      5  C   UNL     1       3.782   6.445  18.150  0.00  0.00    +0.000 A 
ATOM      6  C   UNL     1       2.982   6.127  19.242  0.00  0.00    +0.000 A 
ENDROOT
BRANCH   5   7
ATOM      7  C   UNL     1       4.964   5.733  17.679  0.00  0.00    +0.000 A 
ATOM      8  C   UNL     1       4.972   5.217  16.374  0.00  0.00    +0.000 A 
ATOM      9  C   UNL     1       6.113   4.598  15.855  0.00  0.00    +0.000 A 
ATOM     10  C   UNL     1       7.265   4.498  16.632  0.00  0.00    +0.000 A 
ATOM     11  C   UNL     1       7.264   4.984  17.937  0.00  0.00    +0.000 A 
ATOM     12  C   UNL     1       6.112   5.573  18.463  0.00  0.00    +0.000 A 
ENDBRANCH   5   7
BRANCH   3  13
ATOM     13  C   UNL     1       1.537   9.294  18.011  0.00  0.00    +0.000 C 
BRANCH  13  14
ATOM     14  N   UNL     1       0.928   9.944  19.178  0.00  0.00    +0.000 N 
ATOM     15  H   UNL     1       1.057   9.392  20.016  0.00  0.00    +0.000 HD
BRANCH  14  16
ATOM     16  C   UNL     1      -0.340  10.552  19.088  0.00  0.00    +0.000 A 
ATOM     17  C   UNL     1      -1.088  10.504  17.908  0.00  0.00    +0.000 A 
ATOM     18  C   UNL     1      -2.309  11.148  17.848  0.00  0.00    +0.000 A 
ATOM     19  N   UNL     1      -2.846  11.837  18.873  0.00  0.00    +0.000 NA
ATOM     20  C   UNL     1      -2.128  11.946  19.998  0.00  0.00    +0.000 A 
ATOM     21  C   UNL     1      -2.684  12.678  21.036  0.00  0.00    +0.000 A 
ATOM     22  C   UNL     1      -1.999  12.856  22.233  0.00  0.00    +0.000 A 
ATOM     23 CL   UNL     1      -2.729  13.753  23.514  0.00  0.00    +0.000 Cl
ATOM     24  C   UNL     1      -0.731  12.329  22.406  0.00  0.00    +0.000 A 
ATOM     25  C   UNL     1      -0.158  11.582  21.376  0.00  0.00    +0.000 A 
ATOM     26  C   UNL     1      -0.848  11.349  20.158  0.00  0.00    +0.000 A 
ENDBRANCH  14  16
ENDBRANCH  13  14
ENDBRANCH   3  13
BRANCH   6  27
ATOM     27  C   UNL     1       2.985   4.937  20.157  0.00  0.00    +0.000 C 
BRANCH  27  28
ATOM     28  N   UNL     1       2.162   3.789  19.716  0.00  0.00    +0.000 NA
ATOM     29  C   UNL     1       2.971   2.546  19.783  0.00  0.00    +0.000 C 
ATOM     30  C   UNL     1       3.560   2.364  18.394  0.00  0.00    +0.000 C 
ATOM     31  C   UNL     1       2.422   2.797  17.501  0.00  0.00    +0.000 C 
ATOM     32  C   UNL     1       1.675   3.848  18.323  0.00  0.00    +0.000 C 
ENDBRANCH  27  28
ENDBRANCH   6  27
TORSDOF 6
ENDMDL
MODEL 8
REMARK VINA RESULT:      -8.3      0.838      1.250
REMARK  Name = 
REMARK  7 active torsions:
REMARK  status: ('A' for Active; 'I' for Inactive)
REMARK    1  A    between atoms: C_1  and  N_2
REMARK    2  A    between atoms: C_3  and  C_4
REMARK    3  A    between atoms: C_4  and  N_5
REMARK    4  A    between atoms: N_5  and  C_6
REMARK    5  A    between atoms: C_18  and  C_19
REMARK    6  A    between atoms: C_25  and  C_26
REMARK    7  A    between atoms: C_26  and  N_27
REMARK                            x       y       z     vdW  Elec       q    Type
REMARK                         _______ _______ _______ _____ _____    ______ ____
ROOT
ATOM      1  C   UNL     1       1.601   7.619  20.460  0.00  0.00    +0.000 C 
ATOM      2  N   UNL     1       2.264   7.216  19.241  0.00  0.00    +0.000 N 
ATOM      3  C   UNL     1       2.302   7.967  18.082  0.00  0.00    +0.000 A 
ATOM      4  N   UNL     1       3.293   7.552  17.317  0.00  0.00    +0.000 NA
ATOM      5  C   UNL     1       3.815   6.434  17.928  0.00  0.00    +0.000 A 
ATOM      6  C   UNL     1       3.095   6.118  19.075  0.00  0.00    +0.000 A 
ENDROOT
BRANCH   5   7
ATOM      7  C   UNL     1       5.027   5.791  17.436  0.00  0.00    +0.000 A 
ATOM      8  C   UNL     1       6.245   6.054  18.079  0.00  0.00    +0.000 A 
ATOM      9  C   UNL     1       7.417   5.397  17.692  0.00  0.00    +0.000 A 
ATOM     10  C   UNL     1       7.382   4.460  16.662  0.00  0.00    +0.000 A 
ATOM     11  C   UNL     1       6.184   4.206  15.998  0.00  0.00    +0.000 A 
ATOM     12  C   UNL     1       5.022   4.887  16.367  0.00  0.00    +0.000 A 
ENDBRANCH   5   7
BRANCH   3  13
ATOM     13  C   UNL     1       1.342   9.087  17.752  0.00  0.00    +0.000 C 
BRANCH  13  14
ATOM     14  N   UNL     1       1.758  10.419  18.209  0.00  0.00    +0.000 N 
ATOM     15  H   UNL     1       2.690  10.400  18.598  0.00  0.00    +0.000 HD
BRANCH  14  16
ATOM     16  C   UNL     1       0.866  11.253  18.911  0.00  0.00    +0.000 A 
ATOM     17  C   UNL     1       1.310  12.094  19.936  0.00  0.00    +0.000 A 
ATOM     18  C   UNL     1       0.396  12.867  20.628  0.00  0.00    +0.000 A 
ATOM     19  N   UNL     1      -0.927  12.868  20.379  0.00  0.00    +0.000 NA
ATOM     20  C   UNL     1      -1.389  12.033  19.441  0.00  0.00    +0.000 A 
ATOM     21  C   UNL     1      -2.756  12.029  19.212  0.00  0.00    +0.000 A 
ATOM     22  C   UNL     1      -3.322  11.180  18.267  0.00  0.00    +0.000 A 
ATOM     23 CL   UNL     1      -5.024  11.216  17.991  0.00  0.00    +0.000 Cl
ATOM     24  C   UNL     1      -2.533  10.296  17.551  0.00  0.00    +0.000 A 
ATOM     25  C   UNL     1      -1.154  10.291  17.761  0.00  0.00    +0.000 A 
ATOM     26  C   UNL     1      -0.542  11.172  18.688  0.00  0.00    +0.000 A 
ENDBRANCH  14  16
ENDBRANCH  13  14
ENDBRANCH   3  13
BRANCH   6  27
ATOM     27  C   UNL     1       3.237   4.987  20.052  0.00  0.00    +0.000 C 
BRANCH  27  28
ATOM     28  N   UNL     1       2.361   3.820  19.810  0.00  0.00    +0.000 NA
ATOM     29  C   UNL     1       3.150   2.570  19.954  0.00  0.00    +0.000 C 
ATOM     30  C   UNL     1       3.621   2.217  18.553  0.00  0.00    +0.000 C 
ATOM     31  C   UNL     1       2.422   2.579  17.708  0.00  0.00    +0.000 C 
ATOM     32  C   UNL     1       1.763   3.735  18.461  0.00  0.00    +0.000 C 
ENDBRANCH  27  28
ENDBRANCH   6  27
TORSDOF 6
ENDMDL
MODEL 9
REMARK VINA RESULT:      -8.3      2.242      2.545
REMARK  Name = 
REMARK  7 active torsions:
REMARK  status: ('A' for Active; 'I' for Inactive)
REMARK    1  A    between atoms: C_1  and  N_2
REMARK    2  A    between atoms: C_3  and  C_4
REMARK    3  A    between atoms: C_4  and  N_5
REMARK    4  A    between atoms: N_5  and  C_6
REMARK    5  A    between atoms: C_18  and  C_19
REMARK    6  A    between atoms: C_25  and  C_26
REMARK    7  A    between atoms: C_26  and  N_27
REMARK                            x       y       z     vdW  Elec       q    Type
REMARK                         _______ _______ _______ _____ _____    ______ ____
ROOT
ATOM      1  C   UNL     1       1.441   7.601  20.839  0.00  0.00    +0.000 C 
ATOM      2  N   UNL     1       2.110   7.312  19.590  0.00  0.00    +0.000 N 
ATOM      3  C   UNL     1       2.219   8.197  18.536  0.00  0.00    +0.000 A 
ATOM      4  N   UNL     1       3.203   7.821  17.742  0.00  0.00    +0.000 NA
ATOM      5  C   UNL     1       3.645   6.607  18.217  0.00  0.00    +0.000 A 
ATOM      6  C   UNL     1       2.880   6.195  19.304  0.00  0.00    +0.000 A 
ENDROOT
BRANCH   5   7
ATOM      7  C   UNL     1       4.829   5.957  17.670  0.00  0.00    +0.000 A 
ATOM      8  C   UNL     1       4.865   5.649  16.301  0.00  0.00    +0.000 A 
ATOM      9  C   UNL     1       6.011   5.100  15.720  0.00  0.00    +0.000 A 
ATOM     10  C   UNL     1       7.142   4.862  16.498  0.00  0.00    +0.000 A 
ATOM     11  C   UNL     1       7.113   5.141  17.863  0.00  0.00    +0.000 A 
ATOM     12  C   UNL     1       5.955   5.660  18.447  0.00  0.00    +0.000 A 
ENDBRANCH   5   7
BRANCH   3  13
ATOM     13  C   UNL     1       1.334   9.405  18.332  0.00  0.00    +0.000 C 
BRANCH  13  14
ATOM     14  N   UNL     1       1.615  10.541  19.217  0.00  0.00    +0.000 N 
ATOM     15  H   UNL     1       1.992  10.233  20.103  0.00  0.00    +0.000 HD
BRANCH  14  16
ATOM     16  C   UNL     1       0.708  11.613  19.329  0.00  0.00    +0.000 A 
ATOM     17  C   UNL     1       0.711  12.667  18.410  0.00  0.00    +0.000 A 
ATOM     18  C   UNL     1      -0.168  13.721  18.578  0.00  0.00    +0.000 A 
ATOM     19  N   UNL     1      -1.052  13.807  19.590  0.00  0.00    +0.000 NA
ATOM     20  C   UNL     1      -1.041  12.840  20.515  0.00  0.00    +0.000 A 
ATOM     21  C   UNL     1      -1.941  12.954  21.563  0.00  0.00    +0.000 A 
ATOM     22  C   UNL     1      -1.985  12.003  22.577  0.00  0.00    +0.000 A 
ATOM     23 CL   UNL     1      -3.132  12.162  23.855  0.00  0.00    +0.000 Cl
ATOM     24  C   UNL     1      -1.108  10.931  22.577  0.00  0.00    +0.000 A 
ATOM     25  C   UNL     1      -0.201  10.794  21.526  0.00  0.00    +0.000 A 
ATOM     26  C   UNL     1      -0.159  11.725  20.457  0.00  0.00    +0.000 A 
ENDBRANCH  14  16
ENDBRANCH  13  14
ENDBRANCH   3  13
BRANCH   6  27
ATOM     27  C   UNL     1       2.932   4.945  20.134  0.00  0.00    +0.000 C 
BRANCH  27  28
ATOM     28  N   UNL     1       2.160   3.797  19.610  0.00  0.00    +0.000 NA
ATOM     29  C   UNL     1       3.017   2.585  19.604  0.00  0.00    +0.000 C 
ATOM     30  C   UNL     1       3.624   2.518  18.212  0.00  0.00    +0.000 C 
ATOM     31  C   UNL     1       2.476   2.964  17.337  0.00  0.00    +0.000 C 
ATOM     32  C   UNL     1       1.681   3.928  18.218  0.00  0.00    +0.000 C 
ENDBRANCH  27  28
ENDBRANCH   6  27
TORSDOF 6
ENDMDL
