MODEL 1
REMARK VINA RESULT:      -8.3      0.000      0.000
REMARK  Name = 
REMARK  4 active torsions:
REMARK  status: ('A' for Active; 'I' for Inactive)
REMARK    1  A    between atoms: C_1  and  N_2
REMARK    2  A    between atoms: C_4  and  C_5
REMARK    3  A    between atoms: C_17  and  C_18
REMARK    4  A    between atoms: C_25  and  O_26
REMARK                            x       y       z     vdW  Elec       q    Type
REMARK                         _______ _______ _______ _____ _____    ______ ____
ROOT
ATOM      1  C   UNL     1       3.613   1.489  17.078  0.00  0.00    +0.000 C 
ATOM      2  N   UNL     1       3.811   2.804  17.632  0.00  0.00    +0.000 N 
ATOM      3  N   UNL     1       4.858   3.552  17.239  0.00  0.00    +0.000 NA
ATOM      4  C   UNL     1       4.865   4.614  18.069  0.00  0.00    +0.000 A 
ATOM      5  C   UNL     1       3.777   4.525  18.992  0.00  0.00    +0.000 A 
ATOM      6  C   UNL     1       3.146   3.357  18.689  0.00  0.00    +0.000 A 
ATOM      7  N   UNL     1       2.045   2.903  19.375  0.00  0.00    +0.000 N 
ATOM      8  C   UNL     1       1.633   3.600  20.557  0.00  0.00    +0.000 C 
ATOM      9  O   UNL     1       0.634   3.168  21.106  0.00  0.00    +0.000 OA
ATOM     10  C   UNL     1       2.566   4.606  21.178  0.00  0.00    +0.000 C 
ATOM     11  C   UNL     1       3.359   5.373  20.138  0.00  0.00    +0.000 C 
ATOM     12  H   UNL     1       1.493   2.112  19.090  0.00  0.00    +0.000 HD
ENDROOT
BRANCH  11  13
ATOM     13  C   UNL     1       2.631   6.611  19.616  0.00  0.00    +0.000 A 
ATOM     14  C   UNL     1       2.860   6.934  18.285  0.00  0.00    +0.000 A 
ATOM     15  C   UNL     1       2.241   8.043  17.747  0.00  0.00    +0.000 A 
ATOM     16  C   UNL     1       1.486   8.867  18.567  0.00  0.00    +0.000 A 
ATOM     17  C   UNL     1       0.946  10.027  18.004  0.00  0.00    +0.000 A 
ATOM     18  C   UNL     1       0.653  11.107  18.816  0.00  0.00    +0.000 A 
ATOM     19  C   UNL     1       0.495  10.877  20.170  0.00  0.00    +0.000 A 
ATOM     20  C   UNL     1       0.724   9.591  20.690  0.00  0.00    +0.000 A 
ATOM     21  C   UNL     1       1.370   8.575  19.946  0.00  0.00    +0.000 A 
ATOM     22  N   UNL     1       1.900   7.405  20.448  0.00  0.00    +0.000 NA
BRANCH  20  23
ATOM     23  O   UNL     1       0.292   9.364  21.978  0.00  0.00    +0.000 OA
ATOM     24  H   UNL     1       0.964   9.761  22.565  0.00  0.00    +0.000 HD
ENDBRANCH  20  23
ENDBRANCH  11  13
BRANCH   4  25
ATOM     25  C   UNL     1       5.924   5.617  17.970  0.00  0.00    +0.000 A 
ATOM     26  C   UNL     1       6.957   5.657  18.909  0.00  0.00    +0.000 A 
ATOM     27  C   UNL     1       7.946   6.641  18.805  0.00  0.00    +0.000 A 
ATOM     28  C   UNL     1       7.858   7.578  17.782  0.00  0.00    +0.000 A 
ATOM     29  N   UNL     1       6.874   7.569  16.861  0.00  0.00    +0.000 NA
ATOM     30  C   UNL     1       5.927   6.615  16.998  0.00  0.00    +0.000 A 
ENDBRANCH   4  25
TORSDOF 3
ENDMDL
MODEL 2
REMARK VINA RESULT:      -8.1      1.699      2.412
REMARK  Name = 
REMARK  4 active torsions:
REMARK  status: ('A' for Active; 'I' for Inactive)
REMARK    1  A    between atoms: C_1  and  N_2
REMARK    2  A    between atoms: C_4  and  C_5
REMARK    3  A    between atoms: C_17  and  C_18
REMARK    4  A    between atoms: C_25  and  O_26
REMARK                            x       y       z     vdW  Elec       q    Type
REMARK                         _______ _______ _______ _____ _____    ______ ____
ROOT
ATOM      1  C   UNL     1       5.849   3.753  14.055  0.00  0.00    +0.000 C 
ATOM      2  N   UNL     1       5.667   4.555  15.238  0.00  0.00    +0.000 N 
ATOM      3  N   UNL     1       6.569   5.499  15.560  0.00  0.00    +0.000 NA
ATOM      4  C   UNL     1       6.218   5.918  16.792  0.00  0.00    +0.000 A 
ATOM      5  C   UNL     1       5.051   5.221  17.235  0.00  0.00    +0.000 A 
ATOM      6  C   UNL     1       4.746   4.357  16.227  0.00  0.00    +0.000 A 
ATOM      7  N   UNL     1       3.683   3.488  16.285  0.00  0.00    +0.000 N 
ATOM      8  C   UNL     1       2.955   3.368  17.514  0.00  0.00    +0.000 C 
ATOM      9  O   UNL     1       2.006   2.604  17.494  0.00  0.00    +0.000 OA
ATOM     10  C   UNL     1       3.539   3.953  18.772  0.00  0.00    +0.000 C 
ATOM     11  C   UNL     1       4.289   5.245  18.511  0.00  0.00    +0.000 C 
ATOM     12  H   UNL     1       3.369   2.935  15.506  0.00  0.00    +0.000 HD
ENDROOT
BRANCH  11  13
ATOM     13  C   UNL     1       3.392   6.481  18.545  0.00  0.00    +0.000 A 
ATOM     14  C   UNL     1       3.507   7.345  17.463  0.00  0.00    +0.000 A 
ATOM     15  C   UNL     1       2.732   8.486  17.430  0.00  0.00    +0.000 A 
ATOM     16  C   UNL     1       1.931   8.798  18.517  0.00  0.00    +0.000 A 
ATOM     17  C   UNL     1       1.227  10.006  18.482  0.00  0.00    +0.000 A 
ATOM     18  C   UNL     1       0.854  10.613  19.666  0.00  0.00    +0.000 A 
ATOM     19  C   UNL     1       0.800   9.832  20.806  0.00  0.00    +0.000 A 
ATOM     20  C   UNL     1       1.208   8.489  20.752  0.00  0.00    +0.000 A 
ATOM     21  C   UNL     1       1.928   7.958  19.655  0.00  0.00    +0.000 A 
ATOM     22  N   UNL     1       2.619   6.765  19.631  0.00  0.00    +0.000 NA
BRANCH  20  23
ATOM     23  O   UNL     1       0.877   7.702  21.834  0.00  0.00    +0.000 OA
ATOM     24  H   UNL     1       0.332   6.972  21.484  0.00  0.00    +0.000 HD
ENDBRANCH  20  23
ENDBRANCH  11  13
BRANCH   4  25
ATOM     25  C   UNL     1       7.031   6.913  17.490  0.00  0.00    +0.000 A 
ATOM     26  C   UNL     1       7.045   8.244  17.068  0.00  0.00    +0.000 A 
ATOM     27  C   UNL     1       7.849   9.172  17.739  0.00  0.00    +0.000 A 
ATOM     28  C   UNL     1       8.640   8.737  18.795  0.00  0.00    +0.000 A 
ATOM     29  N   UNL     1       8.651   7.459  19.227  0.00  0.00    +0.000 NA
ATOM     30  C   UNL     1       7.876   6.586  18.548  0.00  0.00    +0.000 A 
ENDBRANCH   4  25
TORSDOF 3
ENDMDL
MODEL 3
REMARK VINA RESULT:      -7.6      5.580      9.887
REMARK  Name = 
REMARK  4 active torsions:
REMARK  status: ('A' for Active; 'I' for Inactive)
REMARK    1  A    between atoms: C_1  and  N_2
REMARK    2  A    between atoms: C_4  and  C_5
REMARK    3  A    between atoms: C_17  and  C_18
REMARK    4  A    between atoms: C_25  and  O_26
REMARK                            x       y       z     vdW  Elec       q    Type
REMARK                         _______ _______ _______ _____ _____    ______ ____
ROOT
ATOM      1  C   UNL     1      -1.326  15.682  25.897  0.00  0.00    +0.000 C 
ATOM      2  N   UNL     1      -1.167  15.044  24.615  0.00  0.00    +0.000 N 
ATOM      3  N   UNL     1      -0.221  15.472  23.760  0.00  0.00    +0.000 NA
ATOM      4  C   UNL     1      -0.462  14.814  22.608  0.00  0.00    +0.000 A 
ATOM      5  C   UNL     1      -1.583  13.941  22.765  0.00  0.00    +0.000 A 
ATOM      6  C   UNL     1      -2.008  14.131  24.045  0.00  0.00    +0.000 A 
ATOM      7  N   UNL     1      -3.090  13.473  24.578  0.00  0.00    +0.000 N 
ATOM      8  C   UNL     1      -3.906  12.672  23.713  0.00  0.00    +0.000 C 
ATOM      9  O   UNL     1      -4.834  12.091  24.249  0.00  0.00    +0.000 OA
ATOM     10  C   UNL     1      -3.745  12.807  22.222  0.00  0.00    +0.000 C 
ATOM     11  C   UNL     1      -2.303  13.049  21.820  0.00  0.00    +0.000 C 
ATOM     12  H   UNL     1      -3.342  13.504  25.551  0.00  0.00    +0.000 HD
ENDROOT
BRANCH  11  13
ATOM     13  C   UNL     1      -1.505  11.761  21.628  0.00  0.00    +0.000 A 
ATOM     14  C   UNL     1      -1.146  11.090  22.790  0.00  0.00    +0.000 A 
ATOM     15  C   UNL     1      -0.418   9.922  22.693  0.00  0.00    +0.000 A 
ATOM     16  C   UNL     1       0.025   9.495  21.450  0.00  0.00    +0.000 A 
ATOM     17  C   UNL     1       0.832   8.355  21.403  0.00  0.00    +0.000 A 
ATOM     18  C   UNL     1       1.703   8.178  20.344  0.00  0.00    +0.000 A 
ATOM     19  C   UNL     1       1.458   8.881  19.179  0.00  0.00    +0.000 A 
ATOM     20  C   UNL     1       0.405   9.810  19.133  0.00  0.00    +0.000 A 
ATOM     21  C   UNL     1      -0.256  10.267  20.298  0.00  0.00    +0.000 A 
ATOM     22  N   UNL     1      -1.078  11.370  20.394  0.00  0.00    +0.000 NA
BRANCH  20  23
ATOM     23  O   UNL     1       0.045  10.269  17.885  0.00  0.00    +0.000 OA
ATOM     24  H   UNL     1       0.454   9.660  17.242  0.00  0.00    +0.000 HD
ENDBRANCH  20  23
ENDBRANCH  11  13
BRANCH   4  25
ATOM     25  C   UNL     1       0.348  15.087  21.423  0.00  0.00    +0.000 A 
ATOM     26  C   UNL     1       1.290  14.157  20.974  0.00  0.00    +0.000 A 
ATOM     27  C   UNL     1       2.068  14.451  19.850  0.00  0.00    +0.000 A 
ATOM     28  C   UNL     1       1.906  15.680  19.222  0.00  0.00    +0.000 A 
ATOM     29  N   UNL     1       1.008  16.600  19.629  0.00  0.00    +0.000 NA
ATOM     30  C   UNL     1       0.283  16.291  20.726  0.00  0.00    +0.000 A 
ENDBRANCH   4  25
TORSDOF 3
ENDMDL
MODEL 4
REMARK VINA RESULT:      -7.6      8.495     10.988
REMARK  Name = 
REMARK  4 active torsions:
REMARK  status: ('A' for Active; 'I' for Inactive)
REMARK    1  A    between atoms: C_1  and  N_2
REMARK    2  A    between atoms: C_4  and  C_5
REMARK    3  A    between atoms: C_17  and  C_18
REMARK    4  A    between atoms: C_25  and  O_26
REMARK                            x       y       z     vdW  Elec       q    Type
REMARK                         _______ _______ _______ _____ _____    ______ ____
ROOT
ATOM      1  C   UNL     1       2.471  14.804  20.534  0.00  0.00    +0.000 C 
ATOM      2  N   UNL     1       3.785  14.572  21.075  0.00  0.00    +0.000 N 
ATOM      3  N   UNL     1       3.947  13.758  22.134  0.00  0.00    +0.000 NA
ATOM      4  C   UNL     1       5.235  13.910  22.503  0.00  0.00    +0.000 A 
ATOM      5  C   UNL     1       5.891  14.835  21.631  0.00  0.00    +0.000 A 
ATOM      6  C   UNL     1       4.932  15.240  20.753  0.00  0.00    +0.000 A 
ATOM      7  N   UNL     1       5.172  16.154  19.755  0.00  0.00    +0.000 N 
ATOM      8  C   UNL     1       6.436  16.831  19.728  0.00  0.00    +0.000 C 
ATOM      9  O   UNL     1       6.601  17.608  18.804  0.00  0.00    +0.000 OA
ATOM     10  C   UNL     1       7.334  16.754  20.934  0.00  0.00    +0.000 C 
ATOM     11  C   UNL     1       7.264  15.402  21.618  0.00  0.00    +0.000 C 
ATOM     12  H   UNL     1       4.517  16.371  19.024  0.00  0.00    +0.000 HD
ENDROOT
BRANCH  11  13
ATOM     13  C   UNL     1       8.233  14.377  21.031  0.00  0.00    +0.000 A 
ATOM     14  C   UNL     1       9.214  13.906  21.894  0.00  0.00    +0.000 A 
ATOM     15  C   UNL     1      10.128  12.982  21.430  0.00  0.00    +0.000 A 
ATOM     16  C   UNL     1      10.113  12.620  20.092  0.00  0.00    +0.000 A 
ATOM     17  C   UNL     1      11.108  11.748  19.642  0.00  0.00    +0.000 A 
ATOM     18  C   UNL     1      11.469  11.754  18.308  0.00  0.00    +0.000 A 
ATOM     19  C   UNL     1      10.577  12.288  17.397  0.00  0.00    +0.000 A 
ATOM     20  C   UNL     1       9.388  12.883  17.852  0.00  0.00    +0.000 A 
ATOM     21  C   UNL     1       9.174  13.209  19.212  0.00  0.00    +0.000 A 
ATOM     22  N   UNL     1       8.197  14.045  19.710  0.00  0.00    +0.000 NA
BRANCH  20  23
ATOM     23  O   UNL     1       8.429  13.146  16.899  0.00  0.00    +0.000 OA
ATOM     24  H   UNL     1       8.898  13.188  16.043  0.00  0.00    +0.000 HD
ENDBRANCH  20  23
ENDBRANCH  11  13
BRANCH   4  25
ATOM     25  C   UNL     1       5.750  13.212  23.679  0.00  0.00    +0.000 A 
ATOM     26  C   UNL     1       5.780  13.843  24.925  0.00  0.00    +0.000 A 
ATOM     27  C   UNL     1       6.298  13.162  26.032  0.00  0.00    +0.000 A 
ATOM     28  C   UNL     1       6.800  11.878  25.856  0.00  0.00    +0.000 A 
ATOM     29  N   UNL     1       6.788  11.240  24.667  0.00  0.00    +0.000 NA
ATOM     30  C   UNL     1       6.294  11.932  23.617  0.00  0.00    +0.000 A 
ENDBRANCH   4  25
TORSDOF 3
ENDMDL
MODEL 5
REMARK VINA RESULT:      -7.5      6.119     10.697
REMARK  Name = 
REMARK  4 active torsions:
REMARK  status: ('A' for Active; 'I' for Inactive)
REMARK    1  A    between atoms: C_1  and  N_2
REMARK    2  A    between atoms: C_4  and  C_5
REMARK    3  A    between atoms: C_17  and  C_18
REMARK    4  A    between atoms: C_25  and  O_26
REMARK                            x       y       z     vdW  Elec       q    Type
REMARK                         _______ _______ _______ _____ _____    ______ ____
ROOT
ATOM      1  C   UNL     1      -2.112  16.443  25.397  0.00  0.00    +0.000 C 
ATOM      2  N   UNL     1      -2.063  15.835  24.092  0.00  0.00    +0.000 N 
ATOM      3  N   UNL     1      -1.541  16.509  23.051  0.00  0.00    +0.000 NA
ATOM      4  C   UNL     1      -1.821  15.758  21.967  0.00  0.00    +0.000 A 
ATOM      5  C   UNL     1      -2.524  14.575  22.356  0.00  0.00    +0.000 A 
ATOM      6  C   UNL     1      -2.669  14.673  23.707  0.00  0.00    +0.000 A 
ATOM      7  N   UNL     1      -3.317  13.723  24.459  0.00  0.00    +0.000 N 
ATOM      8  C   UNL     1      -4.007  12.662  23.785  0.00  0.00    +0.000 C 
ATOM      9  O   UNL     1      -4.538  11.835  24.506  0.00  0.00    +0.000 OA
ATOM     10  C   UNL     1      -4.259  12.775  22.305  0.00  0.00    +0.000 C 
ATOM     11  C   UNL     1      -3.116  13.456  21.579  0.00  0.00    +0.000 C 
ATOM     12  H   UNL     1      -3.326  13.714  25.464  0.00  0.00    +0.000 HD
ENDROOT
BRANCH  11  13
ATOM     13  C   UNL     1      -2.010  12.491  21.154  0.00  0.00    +0.000 A 
ATOM     14  C   UNL     1      -1.805  12.366  19.786  0.00  0.00    +0.000 A 
ATOM     15  C   UNL     1      -0.827  11.508  19.329  0.00  0.00    +0.000 A 
ATOM     16  C   UNL     1      -0.139  10.714  20.234  0.00  0.00    +0.000 A 
ATOM     17  C   UNL     1       0.783   9.795  19.725  0.00  0.00    +0.000 A 
ATOM     18  C   UNL     1       1.099   8.667  20.459  0.00  0.00    +0.000 A 
ATOM     19  C   UNL     1       0.843   8.685  21.818  0.00  0.00    +0.000 A 
ATOM     20  C   UNL     1       0.195   9.792  22.391  0.00  0.00    +0.000 A 
ATOM     21  C   UNL     1      -0.456  10.778  21.611  0.00  0.00    +0.000 A 
ATOM     22  N   UNL     1      -1.355  11.719  22.066  0.00  0.00    +0.000 NA
BRANCH  20  23
ATOM     23  O   UNL     1       0.214   9.871  23.766  0.00  0.00    +0.000 OA
ATOM     24  H   UNL     1      -0.718   9.954  24.048  0.00  0.00    +0.000 HD
ENDBRANCH  20  23
ENDBRANCH  11  13
BRANCH   4  25
ATOM     25  C   UNL     1      -1.451  16.226  20.633  0.00  0.00    +0.000 A 
ATOM     26  C   UNL     1      -0.358  15.673  19.961  0.00  0.00    +0.000 A 
ATOM     27  C   UNL     1      -0.011  16.154  18.694  0.00  0.00    +0.000 A 
ATOM     28  C   UNL     1      -0.748  17.197  18.146  0.00  0.00    +0.000 A 
ATOM     29  N   UNL     1      -1.807  17.754  18.767  0.00  0.00    +0.000 NA
ATOM     30  C   UNL     1      -2.106  17.277  19.995  0.00  0.00    +0.000 A 
ENDBRANCH   4  25
TORSDOF 3
ENDMDL
MODEL 6
REMARK VINA RESULT:      -7.4      7.553     11.645
REMARK  Name = 
REMARK  4 active torsions:
REMARK  status: ('A' for Active; 'I' for Inactive)
REMARK    1  A    between atoms: C_1  and  N_2
REMARK    2  A    between atoms: C_4  and  C_5
REMARK    3  A    between atoms: C_17  and  C_18
REMARK    4  A    between atoms: C_25  and  O_26
REMARK                            x       y       z     vdW  Elec       q    Type
REMARK                         _______ _______ _______ _____ _____    ______ ____
ROOT
ATOM      1  C   UNL     1      -7.917  12.300  23.360  0.00  0.00    +0.000 C 
ATOM      2  N   UNL     1      -7.132  12.669  22.210  0.00  0.00    +0.000 N 
ATOM      3  N   UNL     1      -6.728  13.942  22.047  0.00  0.00    +0.000 NA
ATOM      4  C   UNL     1      -6.202  13.990  20.807  0.00  0.00    +0.000 A 
ATOM      5  C   UNL     1      -6.269  12.701  20.194  0.00  0.00    +0.000 A 
ATOM      6  C   UNL     1      -6.879  11.899  21.110  0.00  0.00    +0.000 A 
ATOM      7  N   UNL     1      -7.143  10.570  20.882  0.00  0.00    +0.000 N 
ATOM      8  C   UNL     1      -6.914  10.036  19.571  0.00  0.00    +0.000 C 
ATOM      9  O   UNL     1      -7.139   8.846  19.438  0.00  0.00    +0.000 OA
ATOM     10  C   UNL     1      -6.683  10.983  18.424  0.00  0.00    +0.000 C 
ATOM     11  C   UNL     1      -5.897  12.211  18.841  0.00  0.00    +0.000 C 
ATOM     12  H   UNL     1      -7.477   9.936  21.587  0.00  0.00    +0.000 HD
ENDROOT
BRANCH  11  13
ATOM     13  C   UNL     1      -4.384  12.011  18.770  0.00  0.00    +0.000 A 
ATOM     14  C   UNL     1      -3.914  11.318  17.662  0.00  0.00    +0.000 A 
ATOM     15  C   UNL     1      -2.559  11.096  17.535  0.00  0.00    +0.000 A 
ATOM     16  C   UNL     1      -1.705  11.478  18.559  0.00  0.00    +0.000 A 
ATOM     17  C   UNL     1      -0.351  11.157  18.431  0.00  0.00    +0.000 A 
ATOM     18  C   UNL     1       0.430  11.028  19.564  0.00  0.00    +0.000 A 
ATOM     19  C   UNL     1      -0.017  11.620  20.731  0.00  0.00    +0.000 A 
ATOM     20  C   UNL     1      -1.274  12.247  20.757  0.00  0.00    +0.000 A 
ATOM     21  C   UNL     1      -2.231  12.075  19.729  0.00  0.00    +0.000 A 
ATOM     22  N   UNL     1      -3.571  12.392  19.795  0.00  0.00    +0.000 NA
BRANCH  20  23
ATOM     23  O   UNL     1      -1.541  13.043  21.850  0.00  0.00    +0.000 OA
ATOM     24  H   UNL     1      -0.878  12.808  22.527  0.00  0.00    +0.000 HD
ENDBRANCH  20  23
ENDBRANCH  11  13
BRANCH   4  25
ATOM     25  C   UNL     1      -5.715  15.257  20.264  0.00  0.00    +0.000 A 
ATOM     26  C   UNL     1      -6.380  15.882  19.208  0.00  0.00    +0.000 A 
ATOM     27  C   UNL     1      -5.881  17.083  18.692  0.00  0.00    +0.000 A 
ATOM     28  C   UNL     1      -4.712  17.610  19.226  0.00  0.00    +0.000 A 
ATOM     29  N   UNL     1      -4.043  17.031  20.244  0.00  0.00    +0.000 NA
ATOM     30  C   UNL     1      -4.544  15.866  20.710  0.00  0.00    +0.000 A 
ENDBRANCH   4  25
TORSDOF 3
ENDMDL
MODEL 7
REMARK VINA RESULT:      -7.4      4.947      8.214
REMARK  Name = 
REMARK  4 active torsions:
REMARK  status: ('A' for Active; 'I' for Inactive)
REMARK    1  A    between atoms: C_1  and  N_2
REMARK    2  A    between atoms: C_4  and  C_5
REMARK    3  A    between atoms: C_17  and  C_18
REMARK    4  A    between atoms: C_25  and  O_26
REMARK                            x       y       z     vdW  Elec       q    Type
REMARK                         _______ _______ _______ _____ _____    ______ ____
ROOT
ATOM      1  C   UNL     1       2.156   9.335  18.026  0.00  0.00    +0.000 C 
ATOM      2  N   UNL     1       1.426  10.385  18.689  0.00  0.00    +0.000 N 
ATOM      3  N   UNL     1       1.600  11.667  18.319  0.00  0.00    +0.000 NA
ATOM      4  C   UNL     1       0.941  12.394  19.244  0.00  0.00    +0.000 A 
ATOM      5  C   UNL     1       0.327  11.530  20.204  0.00  0.00    +0.000 A 
ATOM      6  C   UNL     1       0.673  10.269  19.823  0.00  0.00    +0.000 A 
ATOM      7  N   UNL     1       0.284   9.147  20.514  0.00  0.00    +0.000 N 
ATOM      8  C   UNL     1      -0.381   9.308  21.774  0.00  0.00    +0.000 C 
ATOM      9  O   UNL     1      -0.727   8.278  22.326  0.00  0.00    +0.000 OA
ATOM     10  C   UNL     1      -0.368  10.657  22.442  0.00  0.00    +0.000 C 
ATOM     11  C   UNL     1      -0.451  11.794  21.441  0.00  0.00    +0.000 C 
ATOM     12  H   UNL     1       0.423   8.208  20.182  0.00  0.00    +0.000 HD
ENDROOT
BRANCH  11  13
ATOM     13  C   UNL     1      -1.885  12.169  21.071  0.00  0.00    +0.000 A 
ATOM     14  C   UNL     1      -2.712  12.527  22.128  0.00  0.00    +0.000 A 
ATOM     15  C   UNL     1      -4.022  12.873  21.868  0.00  0.00    +0.000 A 
ATOM     16  C   UNL     1      -4.514  12.760  20.577  0.00  0.00    +0.000 A 
ATOM     17  C   UNL     1      -5.869  13.036  20.370  0.00  0.00    +0.000 A 
ATOM     18  C   UNL     1      -6.524  12.469  19.293  0.00  0.00    +0.000 A 
ATOM     19  C   UNL     1      -5.759  12.010  18.237  0.00  0.00    +0.000 A 
ATOM     20  C   UNL     1      -4.357  12.046  18.324  0.00  0.00    +0.000 A 
ATOM     21  C   UNL     1      -3.677  12.277  19.543  0.00  0.00    +0.000 A 
ATOM     22  N   UNL     1      -2.342  12.043  19.793  0.00  0.00    +0.000 NA
BRANCH  20  23
ATOM     23  O   UNL     1      -3.664  11.834  17.152  0.00  0.00    +0.000 OA
ATOM     24  H   UNL     1      -4.158  11.149  16.662  0.00  0.00    +0.000 HD
ENDBRANCH  20  23
ENDBRANCH  11  13
BRANCH   4  25
ATOM     25  C   UNL     1       0.972  13.854  19.189  0.00  0.00    +0.000 A 
ATOM     26  C   UNL     1      -0.171  14.578  18.841  0.00  0.00    +0.000 A 
ATOM     27  C   UNL     1      -0.109  15.974  18.774  0.00  0.00    +0.000 A 
ATOM     28  C   UNL     1       1.102  16.607  19.029  0.00  0.00    +0.000 A 
ATOM     29  N   UNL     1       2.223  15.938  19.367  0.00  0.00    +0.000 NA
ATOM     30  C   UNL     1       2.133  14.591  19.407  0.00  0.00    +0.000 A 
ENDBRANCH   4  25
TORSDOF 3
ENDMDL
MODEL 8
REMARK VINA RESULT:      -7.4      5.721      8.970
REMARK  Name = 
REMARK  4 active torsions:
REMARK  status: ('A' for Active; 'I' for Inactive)
REMARK    1  A    between atoms: C_1  and  N_2
REMARK    2  A    between atoms: C_4  and  C_5
REMARK    3  A    between atoms: C_17  and  C_18
REMARK    4  A    between atoms: C_25  and  O_26
REMARK                            x       y       z     vdW  Elec       q    Type
REMARK                         _______ _______ _______ _____ _____    ______ ____
ROOT
ATOM      1  C   UNL     1       3.415  14.246  18.192  0.00  0.00    +0.000 C 
ATOM      2  N   UNL     1       2.209  13.719  18.777  0.00  0.00    +0.000 N 
ATOM      3  N   UNL     1       1.509  14.452  19.662  0.00  0.00    +0.000 NA
ATOM      4  C   UNL     1       0.574  13.615  20.153  0.00  0.00    +0.000 A 
ATOM      5  C   UNL     1       0.692  12.330  19.539  0.00  0.00    +0.000 A 
ATOM      6  C   UNL     1       1.748  12.436  18.686  0.00  0.00    +0.000 A 
ATOM      7  N   UNL     1       2.193  11.390  17.914  0.00  0.00    +0.000 N 
ATOM      8  C   UNL     1       1.627  10.089  18.122  0.00  0.00    +0.000 C 
ATOM      9  O   UNL     1       2.041   9.209  17.387  0.00  0.00    +0.000 OA
ATOM     10  C   UNL     1       0.800   9.838  19.355  0.00  0.00    +0.000 C 
ATOM     11  C   UNL     1      -0.028  11.046  19.747  0.00  0.00    +0.000 C 
ATOM     12  H   UNL     1       2.886  11.482  17.192  0.00  0.00    +0.000 HD
ENDROOT
BRANCH  11  13
ATOM     13  C   UNL     1      -1.383  11.103  19.045  0.00  0.00    +0.000 A 
ATOM     14  C   UNL     1      -1.402  10.674  17.724  0.00  0.00    +0.000 A 
ATOM     15  C   UNL     1      -2.591  10.703  17.025  0.00  0.00    +0.000 A 
ATOM     16  C   UNL     1      -3.718  11.251  17.619  0.00  0.00    +0.000 A 
ATOM     17  C   UNL     1      -4.881  11.341  16.849  0.00  0.00    +0.000 A 
ATOM     18  C   UNL     1      -5.831  12.297  17.158  0.00  0.00    +0.000 A 
ATOM     19  C   UNL     1      -5.821  12.834  18.431  0.00  0.00    +0.000 A 
ATOM     20  C   UNL     1      -4.807  12.471  19.333  0.00  0.00    +0.000 A 
ATOM     21  C   UNL     1      -3.636  11.789  18.925  0.00  0.00    +0.000 A 
ATOM     22  N   UNL     1      -2.472  11.652  19.652  0.00  0.00    +0.000 NA
BRANCH  20  23
ATOM     23  O   UNL     1      -5.003  12.820  20.651  0.00  0.00    +0.000 OA
ATOM     24  H   UNL     1      -4.117  12.853  21.060  0.00  0.00    +0.000 HD
ENDBRANCH  20  23
ENDBRANCH  11  13
BRANCH   4  25
ATOM     25  C   UNL     1      -0.337  14.066  21.204  0.00  0.00    +0.000 A 
ATOM     26  C   UNL     1      -0.411  13.388  22.423  0.00  0.00    +0.000 A 
ATOM     27  C   UNL     1      -1.307  13.827  23.403  0.00  0.00    +0.000 A 
ATOM     28  C   UNL     1      -2.127  14.914  23.127  0.00  0.00    +0.000 A 
ATOM     29  N   UNL     1      -2.083  15.590  21.960  0.00  0.00    +0.000 NA
ATOM     30  C   UNL     1      -1.218  15.131  21.030  0.00  0.00    +0.000 A 
ENDBRANCH   4  25
TORSDOF 3
ENDMDL
MODEL 9
REMARK VINA RESULT:      -7.4      6.490      9.550
REMARK  Name = 
REMARK  4 active torsions:
REMARK  status: ('A' for Active; 'I' for Inactive)
REMARK    1  A    between atoms: C_1  and  N_2
REMARK    2  A    between atoms: C_4  and  C_5
REMARK    3  A    between atoms: C_17  and  C_18
REMARK    4  A    between atoms: C_25  and  O_26
REMARK                            x       y       z     vdW  Elec       q    Type
REMARK                         _______ _______ _______ _____ _____    ______ ____
ROOT
ATOM      1  C   UNL     1      -0.027   8.822  22.444  0.00  0.00    +0.000 C 
ATOM      2  N   UNL     1      -0.371  10.179  22.105  0.00  0.00    +0.000 N 
ATOM      3  N   UNL     1      -0.654  11.068  23.074  0.00  0.00    +0.000 NA
ATOM      4  C   UNL     1      -1.116  12.158  22.430  0.00  0.00    +0.000 A 
ATOM      5  C   UNL     1      -1.102  11.938  21.017  0.00  0.00    +0.000 A 
ATOM      6  C   UNL     1      -0.637  10.668  20.857  0.00  0.00    +0.000 A 
ATOM      7  N   UNL     1      -0.493  10.075  19.626  0.00  0.00    +0.000 N 
ATOM      8  C   UNL     1      -0.996  10.756  18.469  0.00  0.00    +0.000 C 
ATOM      9  O   UNL     1      -0.813  10.194  17.403  0.00  0.00    +0.000 OA
ATOM     10  C   UNL     1      -1.918  11.932  18.653  0.00  0.00    +0.000 C 
ATOM     11  C   UNL     1      -1.551  12.764  19.867  0.00  0.00    +0.000 C 
ATOM     12  H   UNL     1      -0.039   9.191  19.480  0.00  0.00    +0.000 HD
ENDROOT
BRANCH  11  13
ATOM     13  C   UNL     1      -0.503  13.836  19.570  0.00  0.00    +0.000 A 
ATOM     14  C   UNL     1      -0.918  15.152  19.734  0.00  0.00    +0.000 A 
ATOM     15  C   UNL     1      -0.026  16.173  19.478  0.00  0.00    +0.000 A 
ATOM     16  C   UNL     1       1.227  15.872  18.967  0.00  0.00    +0.000 A 
ATOM     17  C   UNL     1       2.070  16.939  18.640  0.00  0.00    +0.000 A 
ATOM     18  C   UNL     1       3.058  16.760  17.690  0.00  0.00    +0.000 A 
ATOM     19  C   UNL     1       3.464  15.468  17.410  0.00  0.00    +0.000 A 
ATOM     20  C   UNL     1       2.808  14.385  18.019  0.00  0.00    +0.000 A 
ATOM     21  C   UNL     1       1.575  14.527  18.699  0.00  0.00    +0.000 A 
ATOM     22  N   UNL     1       0.719  13.510  19.064  0.00  0.00    +0.000 NA
BRANCH  20  23
ATOM     23  O   UNL     1       3.425  13.157  17.914  0.00  0.00    +0.000 OA
ATOM     24  H   UNL     1       4.372  13.311  18.094  0.00  0.00    +0.000 HD
ENDBRANCH  20  23
ENDBRANCH  11  13
BRANCH   4  25
ATOM     25  C   UNL     1      -1.586  13.316  23.188  0.00  0.00    +0.000 A 
ATOM     26  C   UNL     1      -2.870  13.333  23.739  0.00  0.00    +0.000 A 
ATOM     27  C   UNL     1      -3.304  14.462  24.442  0.00  0.00    +0.000 A 
ATOM     28  C   UNL     1      -2.453  15.556  24.549  0.00  0.00    +0.000 A 
ATOM     29  N   UNL     1      -1.209  15.573  24.028  0.00  0.00    +0.000 NA
ATOM     30  C   UNL     1      -0.827  14.473  23.344  0.00  0.00    +0.000 A 
ENDBRANCH   4  25
TORSDOF 3
ENDMDL
