MODEL 1
REMARK VINA RESULT:      -9.3      0.000      0.000
REMARK  Name = 
REMARK  6 active torsions:
REMARK  status: ('A' for Active; 'I' for Inactive)
REMARK    1  A    between atoms: S_2  and  N_4
REMARK    2  A    between atoms: S_2  and  C_22
REMARK    3  A    between atoms: N_4  and  C_5
REMARK    4  A    between atoms: C_5  and  C_6
REMARK    5  A    between atoms: C_6  and  C_7
REMARK    6  A    between atoms: C_6  and  N_13
REMARK                            x       y       z     vdW  Elec       q    Type
REMARK                         _______ _______ _______ _____ _____    ______ ____
ROOT
ATOM      1  C   UNL     1       2.954   6.269  18.450  0.00  0.00    +0.000 C 
ENDROOT
BRANCH   1   2
ATOM      2  N   UNL     1       2.707   7.719  18.869  0.00  0.00    +0.000 N 
ATOM      3  C   UNL     1       2.303   8.441  17.591  0.00  0.00    +0.000 C 
ATOM      4  C   UNL     1       1.904   9.840  17.950  0.00  0.00    +0.000 C 
ATOM      5  C   UNL     1       1.107   9.426  19.129  0.00  0.00    +0.000 A 
ATOM      6  C   UNL     1      -0.032  10.064  19.597  0.00  0.00    +0.000 A 
ATOM      7  C   UNL     1      -0.449   9.752  20.872  0.00  0.00    +0.000 A 
ATOM      8  C   UNL     1       0.342   8.887  21.641  0.00  0.00    +0.000 A 
ATOM      9  C   UNL     1       1.425   8.153  21.073  0.00  0.00    +0.000 A 
ATOM     10  C   UNL     1       1.738   8.312  19.735  0.00  0.00    +0.000 A 
ENDBRANCH   1   2
BRANCH   1  11
ATOM     11  C   UNL     1       2.204   5.060  18.962  0.00  0.00    +0.000 A 
ATOM     12  C   UNL     1       1.914   4.784  20.290  0.00  0.00    +0.000 A 
ATOM     13  C   UNL     1       1.217   3.616  20.633  0.00  0.00    +0.000 A 
ATOM     14  C   UNL     1       0.834   2.691  19.653  0.00  0.00    +0.000 A 
ATOM     15  C   UNL     1       1.150   2.927  18.326  0.00  0.00    +0.000 A 
ATOM     16  C   UNL     1       1.825   4.095  17.986  0.00  0.00    +0.000 A 
ENDBRANCH   1  11
BRANCH   1  17
ATOM     17  C   UNL     1       4.494   5.983  18.147  0.00  0.00    +0.000 C 
BRANCH  17  18
ATOM     18  N   UNL     1       4.955   6.083  16.733  0.00  0.00    +0.000 NA
ATOM     19  H   UNL     1       4.312   5.684  16.043  0.00  0.00    +0.000 HD
BRANCH  18  21
ATOM     20  O   UNL     1       7.446   6.634  16.497  0.00  0.00    +0.000 OA
ATOM     21  S   UNL     1       6.522   5.500  16.415  0.00  0.00    +0.000 S 
ATOM     22  O   UNL     1       6.692   4.343  17.257  0.00  0.00    +0.000 OA
BRANCH  21  23
ATOM     23  C   UNL     1       6.583   4.914  14.729  0.00  0.00    +0.000 A 
ATOM     24  C   UNL     1       7.583   5.313  13.846  0.00  0.00    +0.000 A 
ATOM     25  C   UNL     1       7.607   4.788  12.545  0.00  0.00    +0.000 A 
ATOM     26  C   UNL     1       6.630   3.881  12.122  0.00  0.00    +0.000 A 
ATOM     27  C   UNL     1       5.614   3.498  13.003  0.00  0.00    +0.000 A 
ATOM     28  C   UNL     1       5.592   4.011  14.304  0.00  0.00    +0.000 A 
ENDBRANCH  21  23
ENDBRANCH  18  21
ENDBRANCH  17  18
ENDBRANCH   1  17
TORSDOF 6
ENDMDL
MODEL 2
REMARK VINA RESULT:      -9.3      0.455      1.016
REMARK  Name = 
REMARK  6 active torsions:
REMARK  status: ('A' for Active; 'I' for Inactive)
REMARK    1  A    between atoms: S_2  and  N_4
REMARK    2  A    between atoms: S_2  and  C_22
REMARK    3  A    between atoms: N_4  and  C_5
REMARK    4  A    between atoms: C_5  and  C_6
REMARK    5  A    between atoms: C_6  and  C_7
REMARK    6  A    between atoms: C_6  and  N_13
REMARK                            x       y       z     vdW  Elec       q    Type
REMARK                         _______ _______ _______ _____ _____    ______ ____
ROOT
ATOM      1  C   UNL     1       3.061   6.030  18.610  0.00  0.00    +0.000 C 
ENDROOT
BRANCH   1   2
ATOM      2  N   UNL     1       2.803   7.503  18.931  0.00  0.00    +0.000 N 
ATOM      3  C   UNL     1       2.439   8.145  17.600  0.00  0.00    +0.000 C 
ATOM      4  C   UNL     1       2.032   9.563  17.860  0.00  0.00    +0.000 C 
ATOM      5  C   UNL     1       1.200   9.222  19.037  0.00  0.00    +0.000 A 
ATOM      6  C   UNL     1       0.047   9.888  19.431  0.00  0.00    +0.000 A 
ATOM      7  C   UNL     1      -0.408   9.655  20.709  0.00  0.00    +0.000 A 
ATOM      8  C   UNL     1       0.358   8.839  21.554  0.00  0.00    +0.000 A 
ATOM      9  C   UNL     1       1.457   8.072  21.065  0.00  0.00    +0.000 A 
ATOM     10  C   UNL     1       1.810   8.148  19.729  0.00  0.00    +0.000 A 
ENDBRANCH   1   2
BRANCH   1  11
ATOM     11  C   UNL     1       2.347   4.851  19.232  0.00  0.00    +0.000 A 
ATOM     12  C   UNL     1       1.492   3.979  18.575  0.00  0.00    +0.000 A 
ATOM     13  C   UNL     1       0.883   2.926  19.275  0.00  0.00    +0.000 A 
ATOM     14  C   UNL     1       1.094   2.757  20.649  0.00  0.00    +0.000 A 
ATOM     15  C   UNL     1       1.911   3.641  21.332  0.00  0.00    +0.000 A 
ATOM     16  C   UNL     1       2.529   4.673  20.632  0.00  0.00    +0.000 A 
ENDBRANCH   1  11
BRANCH   1  17
ATOM     17  C   UNL     1       4.596   5.744  18.280  0.00  0.00    +0.000 C 
BRANCH  17  18
ATOM     18  N   UNL     1       4.923   5.158  16.950  0.00  0.00    +0.000 NA
ATOM     19  H   UNL     1       4.681   4.168  16.845  0.00  0.00    +0.000 HD
BRANCH  18  21
ATOM     20  O   UNL     1       6.801   6.822  16.428  0.00  0.00    +0.000 OA
ATOM     21  S   UNL     1       6.520   5.383  16.406  0.00  0.00    +0.000 S 
ATOM     22  O   UNL     1       7.329   4.459  17.162  0.00  0.00    +0.000 OA
BRANCH  21  23
ATOM     23  C   UNL     1       6.623   4.870  14.699  0.00  0.00    +0.000 A 
ATOM     24  C   UNL     1       7.617   5.340  13.846  0.00  0.00    +0.000 A 
ATOM     25  C   UNL     1       7.675   4.870  12.525  0.00  0.00    +0.000 A 
ATOM     26  C   UNL     1       6.737   3.946  12.054  0.00  0.00    +0.000 A 
ATOM     27  C   UNL     1       5.726   3.492  12.904  0.00  0.00    +0.000 A 
ATOM     28  C   UNL     1       5.669   3.950  14.225  0.00  0.00    +0.000 A 
ENDBRANCH  21  23
ENDBRANCH  18  21
ENDBRANCH  17  18
ENDBRANCH   1  17
TORSDOF 6
ENDMDL
MODEL 3
REMARK VINA RESULT:      -9.0      0.637      1.175
REMARK  Name = 
REMARK  6 active torsions:
REMARK  status: ('A' for Active; 'I' for Inactive)
REMARK    1  A    between atoms: S_2  and  N_4
REMARK    2  A    between atoms: S_2  and  C_22
REMARK    3  A    between atoms: N_4  and  C_5
REMARK    4  A    between atoms: C_5  and  C_6
REMARK    5  A    between atoms: C_6  and  C_7
REMARK    6  A    between atoms: C_6  and  N_13
REMARK                            x       y       z     vdW  Elec       q    Type
REMARK                         _______ _______ _______ _____ _____    ______ ____
ROOT
ATOM      1  C   UNL     1       2.903   6.330  18.476  0.00  0.00    +0.000 C 
ENDROOT
BRANCH   1   2
ATOM      2  N   UNL     1       2.641   7.776  18.899  0.00  0.00    +0.000 N 
ATOM      3  C   UNL     1       2.217   8.496  17.626  0.00  0.00    +0.000 C 
ATOM      4  C   UNL     1       1.803   9.888  17.991  0.00  0.00    +0.000 C 
ATOM      5  C   UNL     1       1.022   9.461  19.176  0.00  0.00    +0.000 A 
ATOM      6  C   UNL     1      -0.122  10.084  19.655  0.00  0.00    +0.000 A 
ATOM      7  C   UNL     1      -0.524   9.764  20.933  0.00  0.00    +0.000 A 
ATOM      8  C   UNL     1       0.284   8.909  21.694  0.00  0.00    +0.000 A 
ATOM      9  C   UNL     1       1.372   8.190  21.115  0.00  0.00    +0.000 A 
ATOM     10  C   UNL     1       1.672   8.355  19.774  0.00  0.00    +0.000 A 
ENDBRANCH   1   2
BRANCH   1  11
ATOM     11  C   UNL     1       2.211   5.106  19.030  0.00  0.00    +0.000 A 
ATOM     12  C   UNL     1       2.104   4.769  20.371  0.00  0.00    +0.000 A 
ATOM     13  C   UNL     1       1.441   3.593  20.753  0.00  0.00    +0.000 A 
ATOM     14  C   UNL     1       0.908   2.722  19.794  0.00  0.00    +0.000 A 
ATOM     15  C   UNL     1       1.040   3.019  18.449  0.00  0.00    +0.000 A 
ATOM     16  C   UNL     1       1.682   4.195  18.073  0.00  0.00    +0.000 A 
ENDBRANCH   1  11
BRANCH   1  17
ATOM     17  C   UNL     1       4.433   6.081  18.097  0.00  0.00    +0.000 C 
BRANCH  17  18
ATOM     18  N   UNL     1       4.754   5.747  16.681  0.00  0.00    +0.000 NA
ATOM     19  H   UNL     1       3.946   5.723  16.052  0.00  0.00    +0.000 HD
BRANCH  18  21
ATOM     20  O   UNL     1       6.886   4.445  17.250  0.00  0.00    +0.000 OA
ATOM     21  S   UNL     1       5.673   4.336  16.435  0.00  0.00    +0.000 S 
ATOM     22  O   UNL     1       4.759   3.234  16.609  0.00  0.00    +0.000 OA
BRANCH  21  23
ATOM     23  C   UNL     1       6.206   4.289  14.731  0.00  0.00    +0.000 A 
ATOM     24  C   UNL     1       5.560   3.508  13.777  0.00  0.00    +0.000 A 
ATOM     25  C   UNL     1       5.996   3.542  12.444  0.00  0.00    +0.000 A 
ATOM     26  C   UNL     1       7.080   4.341  12.067  0.00  0.00    +0.000 A 
ATOM     27  C   UNL     1       7.743   5.107  13.030  0.00  0.00    +0.000 A 
ATOM     28  C   UNL     1       7.306   5.084  14.359  0.00  0.00    +0.000 A 
ENDBRANCH  21  23
ENDBRANCH  18  21
ENDBRANCH  17  18
ENDBRANCH   1  17
TORSDOF 6
ENDMDL
MODEL 4
REMARK VINA RESULT:      -9.0      1.225      1.433
REMARK  Name = 
REMARK  6 active torsions:
REMARK  status: ('A' for Active; 'I' for Inactive)
REMARK    1  A    between atoms: S_2  and  N_4
REMARK    2  A    between atoms: S_2  and  C_22
REMARK    3  A    between atoms: N_4  and  C_5
REMARK    4  A    between atoms: C_5  and  C_6
REMARK    5  A    between atoms: C_6  and  C_7
REMARK    6  A    between atoms: C_6  and  N_13
REMARK                            x       y       z     vdW  Elec       q    Type
REMARK                         _______ _______ _______ _____ _____    ______ ____
ROOT
ATOM      1  C   UNL     1       2.672   6.646  18.459  0.00  0.00    +0.000 C 
ENDROOT
BRANCH   1   2
ATOM      2  N   UNL     1       2.384   8.061  18.962  0.00  0.00    +0.000 N 
ATOM      3  C   UNL     1       1.774   8.792  17.773  0.00  0.00    +0.000 C 
ATOM      4  C   UNL     1       1.333  10.148  18.233  0.00  0.00    +0.000 C 
ATOM      5  C   UNL     1       0.722   9.643  19.485  0.00  0.00    +0.000 A 
ATOM      6  C   UNL     1      -0.389  10.185  20.116  0.00  0.00    +0.000 A 
ATOM      7  C   UNL     1      -0.618   9.806  21.420  0.00  0.00    +0.000 A 
ATOM      8  C   UNL     1       0.319   8.977  22.050  0.00  0.00    +0.000 A 
ATOM      9  C   UNL     1       1.368   8.338  21.323  0.00  0.00    +0.000 A 
ATOM     10  C   UNL     1       1.497   8.558  19.963  0.00  0.00    +0.000 A 
ENDBRANCH   1   2
BRANCH   1  11
ATOM     11  C   UNL     1       2.051   5.375  18.993  0.00  0.00    +0.000 A 
ATOM     12  C   UNL     1       1.815   5.082  20.328  0.00  0.00    +0.000 A 
ATOM     13  C   UNL     1       1.239   3.856  20.691  0.00  0.00    +0.000 A 
ATOM     14  C   UNL     1       0.927   2.892  19.724  0.00  0.00    +0.000 A 
ATOM     15  C   UNL     1       1.193   3.147  18.390  0.00  0.00    +0.000 A 
ATOM     16  C   UNL     1       1.746   4.371  18.030  0.00  0.00    +0.000 A 
ENDBRANCH   1  11
BRANCH   1  17
ATOM     17  C   UNL     1       4.187   6.468  17.991  0.00  0.00    +0.000 C 
BRANCH  17  18
ATOM     18  N   UNL     1       5.176   5.993  18.999  0.00  0.00    +0.000 NA
ATOM     19  H   UNL     1       5.828   6.709  19.331  0.00  0.00    +0.000 HD
BRANCH  18  21
ATOM     20  O   UNL     1       7.436   4.788  19.061  0.00  0.00    +0.000 OA
ATOM     21  S   UNL     1       6.065   4.604  18.577  0.00  0.00    +0.000 S 
ATOM     22  O   UNL     1       5.272   3.481  19.009  0.00  0.00    +0.000 OA
BRANCH  21  23
ATOM     23  C   UNL     1       6.161   4.504  16.797  0.00  0.00    +0.000 A 
ATOM     24  C   UNL     1       7.194   5.102  16.080  0.00  0.00    +0.000 A 
ATOM     25  C   UNL     1       7.243   4.955  14.685  0.00  0.00    +0.000 A 
ATOM     26  C   UNL     1       6.259   4.227  14.008  0.00  0.00    +0.000 A 
ATOM     27  C   UNL     1       5.210   3.646  14.727  0.00  0.00    +0.000 A 
ATOM     28  C   UNL     1       5.162   3.782  16.119  0.00  0.00    +0.000 A 
ENDBRANCH  21  23
ENDBRANCH  18  21
ENDBRANCH  17  18
ENDBRANCH   1  17
TORSDOF 6
ENDMDL
MODEL 5
REMARK VINA RESULT:      -9.0      1.266      4.233
REMARK  Name = 
REMARK  6 active torsions:
REMARK  status: ('A' for Active; 'I' for Inactive)
REMARK    1  A    between atoms: S_2  and  N_4
REMARK    2  A    between atoms: S_2  and  C_22
REMARK    3  A    between atoms: N_4  and  C_5
REMARK    4  A    between atoms: C_5  and  C_6
REMARK    5  A    between atoms: C_6  and  C_7
REMARK    6  A    between atoms: C_6  and  N_13
REMARK                            x       y       z     vdW  Elec       q    Type
REMARK                         _______ _______ _______ _____ _____    ______ ____
ROOT
ATOM      1  C   UNL     1       3.780   6.493  18.516  0.00  0.00    +0.000 C 
ENDROOT
BRANCH   1   2
ATOM      2  N   UNL     1       3.583   4.987  18.696  0.00  0.00    +0.000 N 
ATOM      3  C   UNL     1       4.856   4.494  19.372  0.00  0.00    +0.000 C 
ATOM      4  C   UNL     1       4.676   3.046  19.711  0.00  0.00    +0.000 C 
ATOM      5  C   UNL     1       3.303   3.229  20.235  0.00  0.00    +0.000 A 
ATOM      6  C   UNL     1       2.728   2.494  21.263  0.00  0.00    +0.000 A 
ATOM      7  C   UNL     1       1.359   2.567  21.397  0.00  0.00    +0.000 A 
ATOM      8  C   UNL     1       0.631   3.297  20.448  0.00  0.00    +0.000 A 
ATOM      9  C   UNL     1       1.274   4.142  19.495  0.00  0.00    +0.000 A 
ATOM     10  C   UNL     1       2.654   4.230  19.472  0.00  0.00    +0.000 A 
ENDBRANCH   1   2
BRANCH   1  11
ATOM     11  C   UNL     1       2.747   7.560  18.798  0.00  0.00    +0.000 A 
ATOM     12  C   UNL     1       2.053   7.727  19.987  0.00  0.00    +0.000 A 
ATOM     13  C   UNL     1       1.108   8.756  20.115  0.00  0.00    +0.000 A 
ATOM     14  C   UNL     1       0.820   9.608  19.041  0.00  0.00    +0.000 A 
ATOM     15  C   UNL     1       1.472   9.432  17.833  0.00  0.00    +0.000 A 
ATOM     16  C   UNL     1       2.422   8.423  17.714  0.00  0.00    +0.000 A 
ENDBRANCH   1  11
BRANCH   1  17
ATOM     17  C   UNL     1       4.728   6.834  17.279  0.00  0.00    +0.000 C 
BRANCH  17  18
ATOM     18  N   UNL     1       4.926   5.780  16.244  0.00  0.00    +0.000 NA
ATOM     19  H   UNL     1       4.347   4.944  16.366  0.00  0.00    +0.000 HD
BRANCH  18  21
ATOM     20  O   UNL     1       7.394   6.464  16.148  0.00  0.00    +0.000 OA
ATOM     21  S   UNL     1       6.533   5.290  15.974  0.00  0.00    +0.000 S 
ATOM     22  O   UNL     1       6.725   4.106  16.774  0.00  0.00    +0.000 OA
BRANCH  21  23
ATOM     23  C   UNL     1       6.701   4.784  14.270  0.00  0.00    +0.000 A 
ATOM     24  C   UNL     1       7.649   5.351  13.422  0.00  0.00    +0.000 A 
ATOM     25  C   UNL     1       7.764   4.884  12.104  0.00  0.00    +0.000 A 
ATOM     26  C   UNL     1       6.929   3.868  11.630  0.00  0.00    +0.000 A 
ATOM     27  C   UNL     1       5.963   3.316  12.475  0.00  0.00    +0.000 A 
ATOM     28  C   UNL     1       5.850   3.770  13.793  0.00  0.00    +0.000 A 
ENDBRANCH  21  23
ENDBRANCH  18  21
ENDBRANCH  17  18
ENDBRANCH   1  17
TORSDOF 6
ENDMDL
MODEL 6
REMARK VINA RESULT:      -8.9      1.366      4.330
REMARK  Name = 
REMARK  6 active torsions:
REMARK  status: ('A' for Active; 'I' for Inactive)
REMARK    1  A    between atoms: S_2  and  N_4
REMARK    2  A    between atoms: S_2  and  C_22
REMARK    3  A    between atoms: N_4  and  C_5
REMARK    4  A    between atoms: C_5  and  C_6
REMARK    5  A    between atoms: C_6  and  C_7
REMARK    6  A    between atoms: C_6  and  N_13
REMARK                            x       y       z     vdW  Elec       q    Type
REMARK                         _______ _______ _______ _____ _____    ______ ____
ROOT
ATOM      1  C   UNL     1       3.830   6.132  18.093  0.00  0.00    +0.000 C 
ENDROOT
BRANCH   1   2
ATOM      2  N   UNL     1       3.641   4.676  18.520  0.00  0.00    +0.000 N 
ATOM      3  C   UNL     1       4.863   4.343  19.365  0.00  0.00    +0.000 C 
ATOM      4  C   UNL     1       4.677   2.972  19.939  0.00  0.00    +0.000 C 
ATOM      5  C   UNL     1       3.263   3.205  20.318  0.00  0.00    +0.000 A 
ATOM      6  C   UNL     1       2.619   2.645  21.412  0.00  0.00    +0.000 A 
ATOM      7  C   UNL     1       1.243   2.702  21.429  0.00  0.00    +0.000 A 
ATOM      8  C   UNL     1       0.582   3.236  20.314  0.00  0.00    +0.000 A 
ATOM      9  C   UNL     1       1.287   3.920  19.278  0.00  0.00    +0.000 A 
ATOM     10  C   UNL     1       2.664   4.040  19.344  0.00  0.00    +0.000 A 
ENDBRANCH   1   2
BRANCH   1  11
ATOM     11  C   UNL     1       2.895   7.276  18.413  0.00  0.00    +0.000 A 
ATOM     12  C   UNL     1       2.573   8.325  17.566  0.00  0.00    +0.000 A 
ATOM     13  C   UNL     1       1.695   9.333  17.992  0.00  0.00    +0.000 A 
ATOM     14  C   UNL     1       1.158   9.322  19.285  0.00  0.00    +0.000 A 
ATOM     15  C   UNL     1       1.499   8.306  20.161  0.00  0.00    +0.000 A 
ATOM     16  C   UNL     1       2.355   7.297  19.730  0.00  0.00    +0.000 A 
ENDBRANCH   1  11
BRANCH   1  17
ATOM     17  C   UNL     1       4.524   6.256  16.662  0.00  0.00    +0.000 C 
BRANCH  17  18
ATOM     18  N   UNL     1       6.004   6.097  16.590  0.00  0.00    +0.000 NA
ATOM     19  H   UNL     1       6.485   6.808  16.031  0.00  0.00    +0.000 HD
BRANCH  18  21
ATOM     20  O   UNL     1       7.883   4.361  16.737  0.00  0.00    +0.000 OA
ATOM     21  S   UNL     1       6.569   4.563  16.119  0.00  0.00    +0.000 S 
ATOM     22  O   UNL     1       5.484   3.648  16.369  0.00  0.00    +0.000 OA
BRANCH  21  23
ATOM     23  C   UNL     1       6.833   4.568  14.352  0.00  0.00    +0.000 A 
ATOM     24  C   UNL     1       7.728   5.443  13.743  0.00  0.00    +0.000 A 
ATOM     25  C   UNL     1       7.927   5.373  12.356  0.00  0.00    +0.000 A 
ATOM     26  C   UNL     1       7.226   4.446  11.579  0.00  0.00    +0.000 A 
ATOM     27  C   UNL     1       6.312   3.583  12.189  0.00  0.00    +0.000 A 
ATOM     28  C   UNL     1       6.117   3.641  13.573  0.00  0.00    +0.000 A 
ENDBRANCH  21  23
ENDBRANCH  18  21
ENDBRANCH  17  18
ENDBRANCH   1  17
TORSDOF 6
ENDMDL
MODEL 7
REMARK VINA RESULT:      -8.9      1.270      4.367
REMARK  Name = 
REMARK  6 active torsions:
REMARK  status: ('A' for Active; 'I' for Inactive)
REMARK    1  A    between atoms: S_2  and  N_4
REMARK    2  A    between atoms: S_2  and  C_22
REMARK    3  A    between atoms: N_4  and  C_5
REMARK    4  A    between atoms: C_5  and  C_6
REMARK    5  A    between atoms: C_6  and  C_7
REMARK    6  A    between atoms: C_6  and  N_13
REMARK                            x       y       z     vdW  Elec       q    Type
REMARK                         _______ _______ _______ _____ _____    ______ ____
ROOT
ATOM      1  C   UNL     1       3.732   6.498  18.351  0.00  0.00    +0.000 C 
ENDROOT
BRANCH   1   2
ATOM      2  N   UNL     1       3.568   5.001  18.618  0.00  0.00    +0.000 N 
ATOM      3  C   UNL     1       4.837   4.582  19.348  0.00  0.00    +0.000 C 
ATOM      4  C   UNL     1       4.685   3.153  19.770  0.00  0.00    +0.000 C 
ATOM      5  C   UNL     1       3.296   3.332  20.254  0.00  0.00    +0.000 A 
ATOM      6  C   UNL     1       2.716   2.646  21.311  0.00  0.00    +0.000 A 
ATOM      7  C   UNL     1       1.344   2.691  21.413  0.00  0.00    +0.000 A 
ATOM      8  C   UNL     1       0.619   3.344  20.407  0.00  0.00    +0.000 A 
ATOM      9  C   UNL     1       1.262   4.147  19.418  0.00  0.00    +0.000 A 
ATOM     10  C   UNL     1       2.641   4.268  19.418  0.00  0.00    +0.000 A 
ENDBRANCH   1   2
BRANCH   1  11
ATOM     11  C   UNL     1       2.698   7.565  18.632  0.00  0.00    +0.000 A 
ATOM     12  C   UNL     1       2.273   8.540  17.742  0.00  0.00    +0.000 A 
ATOM     13  C   UNL     1       1.310   9.481  18.134  0.00  0.00    +0.000 A 
ATOM     14  C   UNL     1       0.788   9.480  19.434  0.00  0.00    +0.000 A 
ATOM     15  C   UNL     1       1.229   8.541  20.350  0.00  0.00    +0.000 A 
ATOM     16  C   UNL     1       2.171   7.597  19.954  0.00  0.00    +0.000 A 
ENDBRANCH   1  11
BRANCH   1  17
ATOM     17  C   UNL     1       4.610   6.787  17.050  0.00  0.00    +0.000 C 
BRANCH  17  18
ATOM     18  N   UNL     1       4.882   5.648  16.128  0.00  0.00    +0.000 NA
ATOM     19  H   UNL     1       4.355   4.794  16.334  0.00  0.00    +0.000 HD
BRANCH  18  21
ATOM     20  O   UNL     1       7.317   6.444  16.134  0.00  0.00    +0.000 OA
ATOM     21  S   UNL     1       6.519   5.236  15.912  0.00  0.00    +0.000 S 
ATOM     22  O   UNL     1       6.735   4.049  16.701  0.00  0.00    +0.000 OA
BRANCH  21  23
ATOM     23  C   UNL     1       6.771   4.765  14.208  0.00  0.00    +0.000 A 
ATOM     24  C   UNL     1       6.041   3.741  13.610  0.00  0.00    +0.000 A 
ATOM     25  C   UNL     1       6.251   3.442  12.255  0.00  0.00    +0.000 A 
ATOM     26  C   UNL     1       7.194   4.150  11.505  0.00  0.00    +0.000 A 
ATOM     27  C   UNL     1       7.942   5.163  12.112  0.00  0.00    +0.000 A 
ATOM     28  C   UNL     1       7.730   5.472  13.460  0.00  0.00    +0.000 A 
ENDBRANCH  21  23
ENDBRANCH  18  21
ENDBRANCH  17  18
ENDBRANCH   1  17
TORSDOF 6
ENDMDL
MODEL 8
REMARK VINA RESULT:      -8.9      0.850      1.332
REMARK  Name = 
REMARK  6 active torsions:
REMARK  status: ('A' for Active; 'I' for Inactive)
REMARK    1  A    between atoms: S_2  and  N_4
REMARK    2  A    between atoms: S_2  and  C_22
REMARK    3  A    between atoms: N_4  and  C_5
REMARK    4  A    between atoms: C_5  and  C_6
REMARK    5  A    between atoms: C_6  and  C_7
REMARK    6  A    between atoms: C_6  and  N_13
REMARK                            x       y       z     vdW  Elec       q    Type
REMARK                         _______ _______ _______ _____ _____    ______ ____
ROOT
ATOM      1  C   UNL     1       2.605   6.112  18.611  0.00  0.00    +0.000 C 
ENDROOT
BRANCH   1   2
ATOM      2  N   UNL     1       2.517   7.591  18.989  0.00  0.00    +0.000 N 
ATOM      3  C   UNL     1       2.202   8.319  17.690  0.00  0.00    +0.000 C 
ATOM      4  C   UNL     1       1.958   9.762  18.008  0.00  0.00    +0.000 C 
ATOM      5  C   UNL     1       1.115   9.470  19.191  0.00  0.00    +0.000 A 
ATOM      6  C   UNL     1       0.051  10.243  19.633  0.00  0.00    +0.000 A 
ATOM      7  C   UNL     1      -0.404  10.014  20.912  0.00  0.00    +0.000 A 
ATOM      8  C   UNL     1       0.283   9.089  21.711  0.00  0.00    +0.000 A 
ATOM      9  C   UNL     1       1.281   8.225  21.171  0.00  0.00    +0.000 A 
ATOM     10  C   UNL     1       1.616   8.311  19.831  0.00  0.00    +0.000 A 
ENDBRANCH   1   2
BRANCH   1  11
ATOM     11  C   UNL     1       2.166   4.951  19.475  0.00  0.00    +0.000 A 
ATOM     12  C   UNL     1       2.462   4.778  20.818  0.00  0.00    +0.000 A 
ATOM     13  C   UNL     1       1.999   3.644  21.503  0.00  0.00    +0.000 A 
ATOM     14  C   UNL     1       1.265   2.652  20.841  0.00  0.00    +0.000 A 
ATOM     15  C   UNL     1       0.994   2.785  19.491  0.00  0.00    +0.000 A 
ATOM     16  C   UNL     1       1.438   3.919  18.818  0.00  0.00    +0.000 A 
ENDBRANCH   1  11
BRANCH   1  17
ATOM     17  C   UNL     1       3.887   5.793  17.717  0.00  0.00    +0.000 C 
BRANCH  17  18
ATOM     18  N   UNL     1       5.036   5.103  18.369  0.00  0.00    +0.000 NA
ATOM     19  H   UNL     1       5.118   5.266  19.377  0.00  0.00    +0.000 HD
BRANCH  18  21
ATOM     20  O   UNL     1       6.800   6.799  17.607  0.00  0.00    +0.000 OA
ATOM     21  S   UNL     1       6.561   5.353  17.655  0.00  0.00    +0.000 S 
ATOM     22  O   UNL     1       7.470   4.475  18.347  0.00  0.00    +0.000 OA
BRANCH  21  23
ATOM     23  C   UNL     1       6.500   4.790  15.962  0.00  0.00    +0.000 A 
ATOM     24  C   UNL     1       5.570   3.847  15.531  0.00  0.00    +0.000 A 
ATOM     25  C   UNL     1       5.541   3.473  14.179  0.00  0.00    +0.000 A 
ATOM     26  C   UNL     1       6.443   4.025  13.265  0.00  0.00    +0.000 A 
ATOM     27  C   UNL     1       7.390   4.954  13.703  0.00  0.00    +0.000 A 
ATOM     28  C   UNL     1       7.418   5.339  15.048  0.00  0.00    +0.000 A 
ENDBRANCH  21  23
ENDBRANCH  18  21
ENDBRANCH  17  18
ENDBRANCH   1  17
TORSDOF 6
ENDMDL
MODEL 9
REMARK VINA RESULT:      -8.8      1.024      1.754
REMARK  Name = 
REMARK  6 active torsions:
REMARK  status: ('A' for Active; 'I' for Inactive)
REMARK    1  A    between atoms: S_2  and  N_4
REMARK    2  A    between atoms: S_2  and  C_22
REMARK    3  A    between atoms: N_4  and  C_5
REMARK    4  A    between atoms: C_5  and  C_6
REMARK    5  A    between atoms: C_6  and  C_7
REMARK    6  A    between atoms: C_6  and  N_13
REMARK                            x       y       z     vdW  Elec       q    Type
REMARK                         _______ _______ _______ _____ _____    ______ ____
ROOT
ATOM      1  C   UNL     1       2.548   6.411  18.447  0.00  0.00    +0.000 C 
ENDROOT
BRANCH   1   2
ATOM      2  N   UNL     1       2.396   7.838  18.976  0.00  0.00    +0.000 N 
ATOM      3  C   UNL     1       2.006   8.676  17.766  0.00  0.00    +0.000 C 
ATOM      4  C   UNL     1       1.699  10.064  18.236  0.00  0.00    +0.000 C 
ATOM      5  C   UNL     1       0.906   9.609  19.403  0.00  0.00    +0.000 A 
ATOM      6  C   UNL     1      -0.183  10.275  19.947  0.00  0.00    +0.000 A 
ATOM      7  C   UNL     1      -0.588   9.894  21.207  0.00  0.00    +0.000 A 
ATOM      8  C   UNL     1       0.168   8.931  21.889  0.00  0.00    +0.000 A 
ATOM      9  C   UNL     1       1.192   8.180  21.240  0.00  0.00    +0.000 A 
ATOM     10  C   UNL     1       1.484   8.419  19.909  0.00  0.00    +0.000 A 
ENDBRANCH   1   2
BRANCH   1  11
ATOM     11  C   UNL     1       2.113   5.152  19.161  0.00  0.00    +0.000 A 
ATOM     12  C   UNL     1       1.383   4.111  18.605  0.00  0.00    +0.000 A 
ATOM     13  C   UNL     1       1.034   2.998  19.384  0.00  0.00    +0.000 A 
ATOM     14  C   UNL     1       1.381   2.930  20.740  0.00  0.00    +0.000 A 
ATOM     15  C   UNL     1       2.073   3.976  21.324  0.00  0.00    +0.000 A 
ATOM     16  C   UNL     1       2.434   5.071  20.545  0.00  0.00    +0.000 A 
ENDBRANCH   1  11
BRANCH   1  17
ATOM     17  C   UNL     1       3.875   6.228  17.580  0.00  0.00    +0.000 C 
BRANCH  17  18
ATOM     18  N   UNL     1       5.151   5.975  18.307  0.00  0.00    +0.000 NA
ATOM     19  H   UNL     1       5.837   6.733  18.247  0.00  0.00    +0.000 HD
BRANCH  18  21
ATOM     20  O   UNL     1       7.269   4.555  18.558  0.00  0.00    +0.000 OA
ATOM     21  S   UNL     1       5.935   4.507  17.952  0.00  0.00    +0.000 S 
ATOM     22  O   UNL     1       5.000   3.465  18.299  0.00  0.00    +0.000 OA
BRANCH  21  23
ATOM     23  C   UNL     1       6.181   4.401  16.186  0.00  0.00    +0.000 A 
ATOM     24  C   UNL     1       5.336   3.656  15.368  0.00  0.00    +0.000 A 
ATOM     25  C   UNL     1       5.551   3.643  13.981  0.00  0.00    +0.000 A 
ATOM     26  C   UNL     1       6.613   4.357  13.416  0.00  0.00    +0.000 A 
ATOM     27  C   UNL     1       7.474   5.085  14.241  0.00  0.00    +0.000 A 
ATOM     28  C   UNL     1       7.257   5.110  15.623  0.00  0.00    +0.000 A 
ENDBRANCH  21  23
ENDBRANCH  18  21
ENDBRANCH  17  18
ENDBRANCH   1  17
TORSDOF 6
ENDMDL
