MODEL 1
REMARK VINA RESULT:      -8.4      0.000      0.000
REMARK  Name = 
REMARK  4 active torsions:
REMARK  status: ('A' for Active; 'I' for Inactive)
REMARK    1  A    between atoms: C_6  and  O_7
REMARK    2  A    between atoms: O_7  and  C_8
REMARK    3  A    between atoms: C_8  and  C_9
REMARK    4  A    between atoms: C_9  and  N_10
REMARK                            x       y       z     vdW  Elec       q    Type
REMARK                         _______ _______ _______ _____ _____    ______ ____
ROOT
ATOM      1  O   UNL     1       0.471  10.942  18.415  0.00  0.00    +0.000 OA
ATOM      2  C   UNL     1       0.627  10.123  19.313  0.00  0.00    +0.000 A 
ATOM      3  C   UNL     1       1.447   8.924  19.014  0.00  0.00    +0.000 A 
ATOM      4  C   UNL     1       2.016   8.773  17.750  0.00  0.00    +0.000 A 
ATOM      5  C   UNL     1       2.806   7.661  17.482  0.00  0.00    +0.000 A 
ATOM      6  C   UNL     1       3.064   6.717  18.485  0.00  0.00    +0.000 A 
ATOM      7  C   UNL     1       2.452   6.849  19.735  0.00  0.00    +0.000 A 
ATOM      8  C   UNL     1       1.650   7.962  20.011  0.00  0.00    +0.000 A 
ATOM      9  N   UNL     1       1.035   8.122  21.256  0.00  0.00    +0.000 N 
ATOM     10  C   UNL     1       0.284   9.255  21.609  0.00  0.00    +0.000 A 
ATOM     11  C   UNL     1      -0.260   9.331  22.894  0.00  0.00    +0.000 A 
ATOM     12  C   UNL     1      -1.024  10.433  23.266  0.00  0.00    +0.000 A 
ATOM     13  C   UNL     1      -1.258  11.466  22.359  0.00  0.00    +0.000 A 
ATOM     14 CL   UNL     1      -2.218  12.792  22.930  0.00  0.00    +0.000 Cl
ATOM     15  C   UNL     1      -0.733  11.408  21.056  0.00  0.00    +0.000 A 
ATOM     16 CL   UNL     1      -1.057  12.734  19.978  0.00  0.00    +0.000 Cl
ATOM     17  C   UNL     1       0.037  10.291  20.677  0.00  0.00    +0.000 A 
ATOM     18  H   UNL     1       1.278   7.461  21.984  0.00  0.00    +0.000 HD
ENDROOT
BRANCH   6  19
ATOM     19  O   UNL     1       3.930   5.655  18.341  0.00  0.00    +0.000 OA
BRANCH  19  20
ATOM     20  C   UNL     1       4.173   4.982  19.582  0.00  0.00    +0.000 C 
BRANCH  20  21
ATOM     21  C   UNL     1       4.593   3.527  19.392  0.00  0.00    +0.000 C 
BRANCH  21  22
ATOM     22  N   UNL     1       3.590   2.522  19.777  0.00  0.00    +0.000 NA
ATOM     23  C   UNL     1       2.765   1.999  18.670  0.00  0.00    +0.000 C 
ATOM     24  C   UNL     1       1.430   2.732  18.436  0.00  0.00    +0.000 C 
ATOM     25  O   UNL     1       0.668   2.798  19.641  0.00  0.00    +0.000 OA
ATOM     26  C   UNL     1       1.393   3.517  20.642  0.00  0.00    +0.000 C 
ATOM     27  C   UNL     1       2.758   2.872  20.941  0.00  0.00    +0.000 C 
ENDBRANCH  21  22
ENDBRANCH  20  21
ENDBRANCH  19  20
ENDBRANCH   6  19
TORSDOF 4
ENDMDL
MODEL 2
REMARK VINA RESULT:      -8.4      0.993      1.329
REMARK  Name = 
REMARK  4 active torsions:
REMARK  status: ('A' for Active; 'I' for Inactive)
REMARK    1  A    between atoms: C_6  and  O_7
REMARK    2  A    between atoms: O_7  and  C_8
REMARK    3  A    between atoms: C_8  and  C_9
REMARK    4  A    between atoms: C_9  and  N_10
REMARK                            x       y       z     vdW  Elec       q    Type
REMARK                         _______ _______ _______ _____ _____    ______ ____
ROOT
ATOM      1  O   UNL     1       0.999  10.475  18.249  0.00  0.00    +0.000 OA
ATOM      2  C   UNL     1       1.110   9.676  19.171  0.00  0.00    +0.000 A 
ATOM      3  C   UNL     1       1.918   8.455  18.930  0.00  0.00    +0.000 A 
ATOM      4  C   UNL     1       2.526   8.263  17.690  0.00  0.00    +0.000 A 
ATOM      5  C   UNL     1       3.304   7.131  17.476  0.00  0.00    +0.000 A 
ATOM      6  C   UNL     1       3.511   6.208  18.510  0.00  0.00    +0.000 A 
ATOM      7  C   UNL     1       2.860   6.382  19.735  0.00  0.00    +0.000 A 
ATOM      8  C   UNL     1       2.069   7.515  19.957  0.00  0.00    +0.000 A 
ATOM      9  N   UNL     1       1.415   7.717  21.176  0.00  0.00    +0.000 N 
ATOM     10  C   UNL     1       0.674   8.872  21.475  0.00  0.00    +0.000 A 
ATOM     11  C   UNL     1       0.089   8.990  22.738  0.00  0.00    +0.000 A 
ATOM     12  C   UNL     1      -0.668  10.113  23.056  0.00  0.00    +0.000 A 
ATOM     13  C   UNL     1      -0.852  11.128  22.117  0.00  0.00    +0.000 A 
ATOM     14 CL   UNL     1      -1.806  12.484  22.623  0.00  0.00    +0.000 Cl
ATOM     15  C   UNL     1      -0.284  11.028  20.835  0.00  0.00    +0.000 A 
ATOM     16 CL   UNL     1      -0.547  12.331  19.715  0.00  0.00    +0.000 Cl
ATOM     17  C   UNL     1       0.477   9.888  20.509  0.00  0.00    +0.000 A 
ATOM     18  H   UNL     1       1.621   7.071  21.927  0.00  0.00    +0.000 HD
ENDROOT
BRANCH   6  19
ATOM     19  O   UNL     1       4.362   5.128  18.422  0.00  0.00    +0.000 OA
BRANCH  19  20
ATOM     20  C   UNL     1       3.977   4.218  17.385  0.00  0.00    +0.000 C 
BRANCH  20  21
ATOM     21  C   UNL     1       2.500   3.839  17.450  0.00  0.00    +0.000 C 
BRANCH  21  22
ATOM     22  N   UNL     1       2.188   2.630  18.227  0.00  0.00    +0.000 NA
ATOM     23  C   UNL     1       0.895   2.654  18.938  0.00  0.00    +0.000 C 
ATOM     24  C   UNL     1       0.951   3.153  20.396  0.00  0.00    +0.000 C 
ATOM     25  O   UNL     1       1.922   2.425  21.146  0.00  0.00    +0.000 OA
ATOM     26  C   UNL     1       3.219   2.602  20.573  0.00  0.00    +0.000 C 
ATOM     27  C   UNL     1       3.269   2.146  19.103  0.00  0.00    +0.000 C 
ENDBRANCH  21  22
ENDBRANCH  20  21
ENDBRANCH  19  20
ENDBRANCH   6  19
TORSDOF 4
ENDMDL
MODEL 3
REMARK VINA RESULT:      -8.4      2.290      3.559
REMARK  Name = 
REMARK  4 active torsions:
REMARK  status: ('A' for Active; 'I' for Inactive)
REMARK    1  A    between atoms: C_6  and  O_7
REMARK    2  A    between atoms: O_7  and  C_8
REMARK    3  A    between atoms: C_8  and  C_9
REMARK    4  A    between atoms: C_9  and  N_10
REMARK                            x       y       z     vdW  Elec       q    Type
REMARK                         _______ _______ _______ _____ _____    ______ ____
ROOT
ATOM      1  O   UNL     1       1.519   9.904  17.986  0.00  0.00    +0.000 OA
ATOM      2  C   UNL     1       1.406   9.271  19.028  0.00  0.00    +0.000 A 
ATOM      3  C   UNL     1       1.971   7.900  19.064  0.00  0.00    +0.000 A 
ATOM      4  C   UNL     1       2.614   7.387  17.938  0.00  0.00    +0.000 A 
ATOM      5  C   UNL     1       3.167   6.113  17.985  0.00  0.00    +0.000 A 
ATOM      6  C   UNL     1       3.115   5.361  19.166  0.00  0.00    +0.000 A 
ATOM      7  C   UNL     1       2.427   5.860  20.276  0.00  0.00    +0.000 A 
ATOM      8  C   UNL     1       1.862   7.140  20.236  0.00  0.00    +0.000 A 
ATOM      9  N   UNL     1       1.178   7.666  21.335  0.00  0.00    +0.000 N 
ATOM     10  C   UNL     1       0.660   8.971  21.373  0.00  0.00    +0.000 A 
ATOM     11  C   UNL     1       0.023   9.411  22.536  0.00  0.00    +0.000 A 
ATOM     12  C   UNL     1      -0.517  10.692  22.596  0.00  0.00    +0.000 A 
ATOM     13  C   UNL     1      -0.431  11.545  21.496  0.00  0.00    +0.000 A 
ATOM     14 CL   UNL     1      -1.132  13.119  21.683  0.00  0.00    +0.000 Cl
ATOM     15  C   UNL     1       0.193  11.122  20.309  0.00  0.00    +0.000 A 
ATOM     16 CL   UNL     1       0.272  12.238  18.978  0.00  0.00    +0.000 Cl
ATOM     17  C   UNL     1       0.735   9.823  20.245  0.00  0.00    +0.000 A 
ATOM     18  H   UNL     1       1.199   7.133  22.196  0.00  0.00    +0.000 HD
ENDROOT
BRANCH   6  19
ATOM     19  O   UNL     1       3.740   4.144  19.335  0.00  0.00    +0.000 OA
BRANCH  19  20
ATOM     20  C   UNL     1       5.006   4.088  18.669  0.00  0.00    +0.000 C 
BRANCH  20  21
ATOM     21  C   UNL     1       6.109   4.814  19.434  0.00  0.00    +0.000 C 
BRANCH  21  22
ATOM     22  N   UNL     1       7.360   5.032  18.690  0.00  0.00    +0.000 NA
ATOM     23  C   UNL     1       7.883   6.412  18.728  0.00  0.00    +0.000 C 
ATOM     24  C   UNL     1       7.442   7.318  17.562  0.00  0.00    +0.000 C 
ATOM     25  O   UNL     1       7.730   6.706  16.305  0.00  0.00    +0.000 OA
ATOM     26  C   UNL     1       7.024   5.469  16.188  0.00  0.00    +0.000 C 
ATOM     27  C   UNL     1       7.383   4.490  17.321  0.00  0.00    +0.000 C 
ENDBRANCH  21  22
ENDBRANCH  20  21
ENDBRANCH  19  20
ENDBRANCH   6  19
TORSDOF 4
ENDMDL
MODEL 4
REMARK VINA RESULT:      -8.1      1.131      1.521
REMARK  Name = 
REMARK  4 active torsions:
REMARK  status: ('A' for Active; 'I' for Inactive)
REMARK    1  A    between atoms: C_6  and  O_7
REMARK    2  A    between atoms: O_7  and  C_8
REMARK    3  A    between atoms: C_8  and  C_9
REMARK    4  A    between atoms: C_9  and  N_10
REMARK                            x       y       z     vdW  Elec       q    Type
REMARK                         _______ _______ _______ _____ _____    ______ ____
ROOT
ATOM      1  O   UNL     1       1.816   9.864  17.454  0.00  0.00    +0.000 OA
ATOM      2  C   UNL     1       1.835   9.128  18.433  0.00  0.00    +0.000 A 
ATOM      3  C   UNL     1       2.682   7.912  18.363  0.00  0.00    +0.000 A 
ATOM      4  C   UNL     1       3.428   7.655  17.213  0.00  0.00    +0.000 A 
ATOM      5  C   UNL     1       4.241   6.530  17.161  0.00  0.00    +0.000 A 
ATOM      6  C   UNL     1       4.345   5.678  18.269  0.00  0.00    +0.000 A 
ATOM      7  C   UNL     1       3.558   5.914  19.400  0.00  0.00    +0.000 A 
ATOM      8  C   UNL     1       2.732   7.042  19.459  0.00  0.00    +0.000 A 
ATOM      9  N   UNL     1       1.943   7.306  20.582  0.00  0.00    +0.000 N 
ATOM     10  C   UNL     1       1.156   8.461  20.722  0.00  0.00    +0.000 A 
ATOM     11  C   UNL     1       0.431   8.646  21.902  0.00  0.00    +0.000 A 
ATOM     12  C   UNL     1      -0.372   9.771  22.061  0.00  0.00    +0.000 A 
ATOM     13  C   UNL     1      -0.465  10.720  21.043  0.00  0.00    +0.000 A 
ATOM     14 CL   UNL     1      -1.490  12.084  21.351  0.00  0.00    +0.000 Cl
ATOM     15  C   UNL     1       0.244  10.551  19.841  0.00  0.00    +0.000 A 
ATOM     16 CL   UNL     1       0.089  11.776  18.616  0.00  0.00    +0.000 Cl
ATOM     17  C   UNL     1       1.053   9.410  19.677  0.00  0.00    +0.000 A 
ATOM     18  H   UNL     1       2.073   6.713  21.393  0.00  0.00    +0.000 HD
ENDROOT
BRANCH   6  19
ATOM     19  O   UNL     1       5.216   4.613  18.346  0.00  0.00    +0.000 OA
BRANCH  19  20
ATOM     20  C   UNL     1       4.535   3.353  18.317  0.00  0.00    +0.000 C 
BRANCH  20  21
ATOM     21  C   UNL     1       4.436   2.703  19.694  0.00  0.00    +0.000 C 
BRANCH  21  22
ATOM     22  N   UNL     1       3.131   2.106  20.021  0.00  0.00    +0.000 NA
ATOM     23  C   UNL     1       2.138   2.128  18.929  0.00  0.00    +0.000 C 
ATOM     24  C   UNL     1       1.188   3.342  18.924  0.00  0.00    +0.000 C 
ATOM     25  O   UNL     1       0.546   3.491  20.190  0.00  0.00    +0.000 OA
ATOM     26  C   UNL     1       1.521   3.703  21.213  0.00  0.00    +0.000 C 
ATOM     27  C   UNL     1       2.535   2.548  21.293  0.00  0.00    +0.000 C 
ENDBRANCH  21  22
ENDBRANCH  20  21
ENDBRANCH  19  20
ENDBRANCH   6  19
TORSDOF 4
ENDMDL
MODEL 5
REMARK VINA RESULT:      -8.1      4.202      7.805
REMARK  Name = 
REMARK  4 active torsions:
REMARK  status: ('A' for Active; 'I' for Inactive)
REMARK    1  A    between atoms: C_6  and  O_7
REMARK    2  A    between atoms: O_7  and  C_8
REMARK    3  A    between atoms: C_8  and  C_9
REMARK    4  A    between atoms: C_9  and  N_10
REMARK                            x       y       z     vdW  Elec       q    Type
REMARK                         _______ _______ _______ _____ _____    ______ ____
ROOT
ATOM      1  O   UNL     1       3.713   6.493  17.186  0.00  0.00    +0.000 OA
ATOM      2  C   UNL     1       3.107   6.492  18.251  0.00  0.00    +0.000 A 
ATOM      3  C   UNL     1       2.408   7.740  18.646  0.00  0.00    +0.000 A 
ATOM      4  C   UNL     1       2.448   8.850  17.804  0.00  0.00    +0.000 A 
ATOM      5  C   UNL     1       1.770  10.008  18.164  0.00  0.00    +0.000 A 
ATOM      6  C   UNL     1       1.017  10.050  19.345  0.00  0.00    +0.000 A 
ATOM      7  C   UNL     1       1.020   8.950  20.208  0.00  0.00    +0.000 A 
ATOM      8  C   UNL     1       1.705   7.782  19.856  0.00  0.00    +0.000 A 
ATOM      9  N   UNL     1       1.716   6.665  20.697  0.00  0.00    +0.000 N 
ATOM     10  C   UNL     1       2.323   5.446  20.357  0.00  0.00    +0.000 A 
ATOM     11  C   UNL     1       2.246   4.379  21.256  0.00  0.00    +0.000 A 
ATOM     12  C   UNL     1       2.854   3.165  20.955  0.00  0.00    +0.000 A 
ATOM     13  C   UNL     1       3.551   3.004  19.758  0.00  0.00    +0.000 A 
ATOM     14 CL   UNL     1       4.265   1.448  19.483  0.00  0.00    +0.000 Cl
ATOM     15  C   UNL     1       3.655   4.065  18.842  0.00  0.00    +0.000 A 
ATOM     16 CL   UNL     1       4.532   3.794  17.365  0.00  0.00    +0.000 Cl
ATOM     17  C   UNL     1       3.044   5.297  19.148  0.00  0.00    +0.000 A 
ATOM     18  H   UNL     1       1.122   6.694  21.517  0.00  0.00    +0.000 HD
ENDROOT
BRANCH   6  19
ATOM     19  O   UNL     1       0.219  11.111  19.715  0.00  0.00    +0.000 OA
BRANCH  19  20
ATOM     20  C   UNL     1      -0.532  11.635  18.614  0.00  0.00    +0.000 C 
BRANCH  20  21
ATOM     21  C   UNL     1      -2.035  11.651  18.879  0.00  0.00    +0.000 C 
BRANCH  21  22
ATOM     22  N   UNL     1      -2.810  10.597  18.205  0.00  0.00    +0.000 NA
ATOM     23  C   UNL     1      -2.204  10.063  16.969  0.00  0.00    +0.000 C 
ATOM     24  C   UNL     1      -2.657  10.745  15.663  0.00  0.00    +0.000 C 
ATOM     25  O   UNL     1      -4.080  10.754  15.561  0.00  0.00    +0.000 OA
ATOM     26  C   UNL     1      -4.646  11.482  16.653  0.00  0.00    +0.000 C 
ATOM     27  C   UNL     1      -4.241  10.889  18.015  0.00  0.00    +0.000 C 
ENDBRANCH  21  22
ENDBRANCH  20  21
ENDBRANCH  19  20
ENDBRANCH   6  19
TORSDOF 4
ENDMDL
MODEL 6
REMARK VINA RESULT:      -8.1      1.120      1.547
REMARK  Name = 
REMARK  4 active torsions:
REMARK  status: ('A' for Active; 'I' for Inactive)
REMARK    1  A    between atoms: C_6  and  O_7
REMARK    2  A    between atoms: O_7  and  C_8
REMARK    3  A    between atoms: C_8  and  C_9
REMARK    4  A    between atoms: C_9  and  N_10
REMARK                            x       y       z     vdW  Elec       q    Type
REMARK                         _______ _______ _______ _____ _____    ______ ____
ROOT
ATOM      1  O   UNL     1       0.218  11.401  18.412  0.00  0.00    +0.000 OA
ATOM      2  C   UNL     1       0.320  10.634  19.362  0.00  0.00    +0.000 A 
ATOM      3  C   UNL     1       1.119   9.400  19.166  0.00  0.00    +0.000 A 
ATOM      4  C   UNL     1       1.729   9.160  17.936  0.00  0.00    +0.000 A 
ATOM      5  C   UNL     1       2.499   8.015  17.765  0.00  0.00    +0.000 A 
ATOM      6  C   UNL     1       2.696   7.127  18.831  0.00  0.00    +0.000 A 
ATOM      7  C   UNL     1       2.043   7.349  20.047  0.00  0.00    +0.000 A 
ATOM      8  C   UNL     1       1.261   8.496  20.226  0.00  0.00    +0.000 A 
ATOM      9  N   UNL     1       0.605   8.745  21.435  0.00  0.00    +0.000 N 
ATOM     10  C   UNL     1      -0.129   9.915  21.691  0.00  0.00    +0.000 A 
ATOM     11  C   UNL     1      -0.717  10.081  22.947  0.00  0.00    +0.000 A 
ATOM     12  C   UNL     1      -1.465  11.221  23.224  0.00  0.00    +0.000 A 
ATOM     13  C   UNL     1      -1.639  12.203  22.249  0.00  0.00    +0.000 A 
ATOM     14 CL   UNL     1      -2.585  13.583  22.704  0.00  0.00    +0.000 Cl
ATOM     15  C   UNL     1      -1.069  12.054  20.973  0.00  0.00    +0.000 A 
ATOM     16 CL   UNL     1      -1.318  13.320  19.807  0.00  0.00    +0.000 Cl
ATOM     17  C   UNL     1      -0.315  10.898  20.690  0.00  0.00    +0.000 A 
ATOM     18  H   UNL     1       0.803   8.124  22.210  0.00  0.00    +0.000 HD
ENDROOT
BRANCH   6  19
ATOM     19  O   UNL     1       3.539   6.039  18.783  0.00  0.00    +0.000 OA
BRANCH  19  20
ATOM     20  C   UNL     1       3.171   5.112  17.755  0.00  0.00    +0.000 C 
BRANCH  20  21
ATOM     21  C   UNL     1       1.785   4.510  17.970  0.00  0.00    +0.000 C 
BRANCH  21  22
ATOM     22  N   UNL     1       1.758   3.209  18.656  0.00  0.00    +0.000 NA
ATOM     23  C   UNL     1       0.944   3.162  19.886  0.00  0.00    +0.000 C 
ATOM     24  C   UNL     1       1.708   3.442  21.196  0.00  0.00    +0.000 C 
ATOM     25  O   UNL     1       2.845   2.587  21.313  0.00  0.00    +0.000 OA
ATOM     26  C   UNL     1       3.744   2.814  20.225  0.00  0.00    +0.000 C 
ATOM     27  C   UNL     1       3.071   2.575  18.861  0.00  0.00    +0.000 C 
ENDBRANCH  21  22
ENDBRANCH  20  21
ENDBRANCH  19  20
ENDBRANCH   6  19
TORSDOF 4
ENDMDL
MODEL 7
REMARK VINA RESULT:      -8.0      2.044      3.167
REMARK  Name = 
REMARK  4 active torsions:
REMARK  status: ('A' for Active; 'I' for Inactive)
REMARK    1  A    between atoms: C_6  and  O_7
REMARK    2  A    between atoms: O_7  and  C_8
REMARK    3  A    between atoms: C_8  and  C_9
REMARK    4  A    between atoms: C_9  and  N_10
REMARK                            x       y       z     vdW  Elec       q    Type
REMARK                         _______ _______ _______ _____ _____    ______ ____
ROOT
ATOM      1  O   UNL     1       0.682  10.981  18.527  0.00  0.00    +0.000 OA
ATOM      2  C   UNL     1       0.662  10.216  19.484  0.00  0.00    +0.000 A 
ATOM      3  C   UNL     1       1.345   8.908  19.333  0.00  0.00    +0.000 A 
ATOM      4  C   UNL     1       1.988   8.598  18.135  0.00  0.00    +0.000 A 
ATOM      5  C   UNL     1       2.650   7.383  18.006  0.00  0.00    +0.000 A 
ATOM      6  C   UNL     1       2.706   6.489  19.084  0.00  0.00    +0.000 A 
ATOM      7  C   UNL     1       2.019   6.784  20.265  0.00  0.00    +0.000 A 
ATOM      8  C   UNL     1       1.345   8.003  20.401  0.00  0.00    +0.000 A 
ATOM      9  N   UNL     1       0.658   8.326  21.575  0.00  0.00    +0.000 N 
ATOM     10  C   UNL     1       0.032   9.564  21.790  0.00  0.00    +0.000 A 
ATOM     11  C   UNL     1      -0.598   9.798  23.015  0.00  0.00    +0.000 A 
ATOM     12  C   UNL     1      -1.244  11.008  23.250  0.00  0.00    +0.000 A 
ATOM     13  C   UNL     1      -1.273  11.994  22.264  0.00  0.00    +0.000 A 
ATOM     14 CL   UNL     1      -2.100  13.463  22.666  0.00  0.00    +0.000 Cl
ATOM     15  C   UNL     1      -0.658  11.779  21.019  0.00  0.00    +0.000 A 
ATOM     16 CL   UNL     1      -0.725  13.052  19.836  0.00  0.00    +0.000 Cl
ATOM     17  C   UNL     1      -0.009  10.552  20.778  0.00  0.00    +0.000 A 
ATOM     18  H   UNL     1       0.757   7.695  22.361  0.00  0.00    +0.000 HD
ENDROOT
BRANCH   6  19
ATOM     19  O   UNL     1       3.440   5.323  19.083  0.00  0.00    +0.000 OA
BRANCH  19  20
ATOM     20  C   UNL     1       4.812   5.545  19.427  0.00  0.00    +0.000 C 
BRANCH  20  21
ATOM     21  C   UNL     1       5.770   4.657  18.637  0.00  0.00    +0.000 C 
BRANCH  21  22
ATOM     22  N   UNL     1       6.637   5.357  17.677  0.00  0.00    +0.000 NA
ATOM     23  C   UNL     1       6.034   6.540  17.030  0.00  0.00    +0.000 C 
ATOM     24  C   UNL     1       5.342   6.274  15.679  0.00  0.00    +0.000 C 
ATOM     25  O   UNL     1       6.224   5.605  14.778  0.00  0.00    +0.000 OA
ATOM     26  C   UNL     1       6.619   4.344  15.323  0.00  0.00    +0.000 C 
ATOM     27  C   UNL     1       7.311   4.496  16.690  0.00  0.00    +0.000 C 
ENDBRANCH  21  22
ENDBRANCH  20  21
ENDBRANCH  19  20
ENDBRANCH   6  19
TORSDOF 4
ENDMDL
MODEL 8
REMARK VINA RESULT:      -7.9      2.308      3.371
REMARK  Name = 
REMARK  4 active torsions:
REMARK  status: ('A' for Active; 'I' for Inactive)
REMARK    1  A    between atoms: C_6  and  O_7
REMARK    2  A    between atoms: O_7  and  C_8
REMARK    3  A    between atoms: C_8  and  C_9
REMARK    4  A    between atoms: C_9  and  N_10
REMARK                            x       y       z     vdW  Elec       q    Type
REMARK                         _______ _______ _______ _____ _____    ______ ____
ROOT
ATOM      1  O   UNL     1       1.031  10.469  18.305  0.00  0.00    +0.000 OA
ATOM      2  C   UNL     1       1.062   9.720  19.274  0.00  0.00    +0.000 A 
ATOM      3  C   UNL     1       1.828   8.457  19.141  0.00  0.00    +0.000 A 
ATOM      4  C   UNL     1       2.489   8.171  17.947  0.00  0.00    +0.000 A 
ATOM      5  C   UNL     1       3.229   7.000  17.836  0.00  0.00    +0.000 A 
ATOM      6  C   UNL     1       3.345   6.129  18.927  0.00  0.00    +0.000 A 
ATOM      7  C   UNL     1       2.640   6.396  20.105  0.00  0.00    +0.000 A 
ATOM      8  C   UNL     1       1.889   7.571  20.224  0.00  0.00    +0.000 A 
ATOM      9  N   UNL     1       1.184   7.866  21.394  0.00  0.00    +0.000 N 
ATOM     10  C   UNL     1       0.478   9.064  21.591  0.00  0.00    +0.000 A 
ATOM     11  C   UNL     1      -0.165   9.275  22.814  0.00  0.00    +0.000 A 
ATOM     12  C   UNL     1      -0.888  10.444  23.031  0.00  0.00    +0.000 A 
ATOM     13  C   UNL     1      -0.982  11.411  22.030  0.00  0.00    +0.000 A 
ATOM     14 CL   UNL     1      -1.903  12.829  22.411  0.00  0.00    +0.000 Cl
ATOM     15  C   UNL     1      -0.356  11.217  20.787  0.00  0.00    +0.000 A 
ATOM     16 CL   UNL     1      -0.507  12.465  19.585  0.00  0.00    +0.000 Cl
ATOM     17  C   UNL     1       0.372  10.031  20.563  0.00  0.00    +0.000 A 
ATOM     18  H   UNL     1       1.324   7.255  22.190  0.00  0.00    +0.000 HD
ENDROOT
BRANCH   6  19
ATOM     19  O   UNL     1       4.152   5.013  18.942  0.00  0.00    +0.000 OA
BRANCH  19  20
ATOM     20  C   UNL     1       3.677   3.987  18.063  0.00  0.00    +0.000 C 
BRANCH  20  21
ATOM     21  C   UNL     1       4.202   4.139  16.638  0.00  0.00    +0.000 C 
BRANCH  21  22
ATOM     22  N   UNL     1       5.623   3.810  16.447  0.00  0.00    +0.000 NA
ATOM     23  C   UNL     1       6.569   4.620  17.240  0.00  0.00    +0.000 C 
ATOM     24  C   UNL     1       7.124   5.871  16.530  0.00  0.00    +0.000 C 
ATOM     25  O   UNL     1       7.692   5.528  15.267  0.00  0.00    +0.000 OA
ATOM     26  C   UNL     1       6.696   4.951  14.420  0.00  0.00    +0.000 C 
ATOM     27  C   UNL     1       6.062   3.696  15.046  0.00  0.00    +0.000 C 
ENDBRANCH  21  22
ENDBRANCH  20  21
ENDBRANCH  19  20
ENDBRANCH   6  19
TORSDOF 4
ENDMDL
MODEL 9
REMARK VINA RESULT:      -7.8      2.128      3.216
REMARK  Name = 
REMARK  4 active torsions:
REMARK  status: ('A' for Active; 'I' for Inactive)
REMARK    1  A    between atoms: C_6  and  O_7
REMARK    2  A    between atoms: O_7  and  C_8
REMARK    3  A    between atoms: C_8  and  C_9
REMARK    4  A    between atoms: C_9  and  N_10
REMARK                            x       y       z     vdW  Elec       q    Type
REMARK                         _______ _______ _______ _____ _____    ______ ____
ROOT
ATOM      1  O   UNL     1       0.946  11.247  18.539  0.00  0.00    +0.000 OA
ATOM      2  C   UNL     1       0.755  10.557  19.534  0.00  0.00    +0.000 A 
ATOM      3  C   UNL     1       1.274   9.168  19.518  0.00  0.00    +0.000 A 
ATOM      4  C   UNL     1       1.963   8.701  18.399  0.00  0.00    +0.000 A 
ATOM      5  C   UNL     1       2.472   7.408  18.399  0.00  0.00    +0.000 A 
ATOM      6  C   UNL     1       2.330   6.589  19.528  0.00  0.00    +0.000 A 
ATOM      7  C   UNL     1       1.596   7.047  20.627  0.00  0.00    +0.000 A 
ATOM      8  C   UNL     1       1.076   8.346  20.633  0.00  0.00    +0.000 A 
ATOM      9  N   UNL     1       0.347   8.830  21.724  0.00  0.00    +0.000 N 
ATOM     10  C   UNL     1      -0.131  10.147  21.812  0.00  0.00    +0.000 A 
ATOM     11  C   UNL     1      -0.819  10.540  22.963  0.00  0.00    +0.000 A 
ATOM     12  C   UNL     1      -1.321  11.833  23.071  0.00  0.00    +0.000 A 
ATOM     13  C   UNL     1      -1.147  12.745  22.030  0.00  0.00    +0.000 A 
ATOM     14 CL   UNL     1      -1.808  14.329  22.274  0.00  0.00    +0.000 Cl
ATOM     15  C   UNL     1      -0.470  12.372  20.857  0.00  0.00    +0.000 A 
ATOM     16 CL   UNL     1      -0.282  13.560  19.601  0.00  0.00    +0.000 Cl
ATOM     17  C   UNL     1       0.034  11.061  20.744  0.00  0.00    +0.000 A 
ATOM     18  H   UNL     1       0.303   8.247  22.551  0.00  0.00    +0.000 HD
ENDROOT
BRANCH   6  19
ATOM     19  O   UNL     1       2.906   5.345  19.657  0.00  0.00    +0.000 OA
BRANCH  19  20
ATOM     20  C   UNL     1       4.332   5.392  19.536  0.00  0.00    +0.000 C 
BRANCH  20  21
ATOM     21  C   UNL     1       4.858   4.534  18.389  0.00  0.00    +0.000 C 
BRANCH  21  22
ATOM     22  N   UNL     1       5.012   5.224  17.099  0.00  0.00    +0.000 NA
ATOM     23  C   UNL     1       5.521   4.387  15.994  0.00  0.00    +0.000 C 
ATOM     24  C   UNL     1       7.049   4.414  15.794  0.00  0.00    +0.000 C 
ATOM     25  O   UNL     1       7.522   5.754  15.668  0.00  0.00    +0.000 OA
ATOM     26  C   UNL     1       7.223   6.495  16.853  0.00  0.00    +0.000 C 
ATOM     27  C   UNL     1       5.714   6.517  17.155  0.00  0.00    +0.000 C 
ENDBRANCH  21  22
ENDBRANCH  20  21
ENDBRANCH  19  20
ENDBRANCH   6  19
TORSDOF 4
ENDMDL
