MODEL 1
REMARK VINA RESULT:      -6.6      0.000      0.000
REMARK  Name = 
REMARK  7 active torsions:
REMARK  status: ('A' for Active; 'I' for Inactive)
REMARK    1  A    between atoms: C_1  and  C_2
REMARK    2  A    between atoms: C_2  and  N_3
REMARK    3  A    between atoms: N_3  and  C_4
REMARK    4  A    between atoms: N_3  and  C_6
REMARK    5  A    between atoms: C_4  and  C_5
REMARK    6  A    between atoms: C_9  and  C_10
REMARK    7  A    between atoms: C_10  and  N_11
REMARK                            x       y       z     vdW  Elec       q    Type
REMARK                         _______ _______ _______ _____ _____    ______ ____
ROOT
ATOM      1  C   UNL     1       3.719   5.303  18.812  0.00  0.00    +0.000 A 
ATOM      2  C   UNL     1       5.032   5.524  19.256  0.00  0.00    +0.000 A 
ATOM      3  C   UNL     1       6.144   5.200  18.471  0.00  0.00    +0.000 A 
ATOM      4  C   UNL     1       5.981   4.642  17.201  0.00  0.00    +0.000 A 
ATOM      5  C   UNL     1       4.683   4.387  16.751  0.00  0.00    +0.000 A 
ATOM      6  C   UNL     1       3.572   4.717  17.545  0.00  0.00    +0.000 A 
ENDROOT
BRANCH   1   7
ATOM      7  N   UNL     1       2.594   5.666  19.572  0.00  0.00    +0.000 N 
BRANCH   7   9
ATOM      8  C   UNL     1       2.311   7.857  18.400  0.00  0.00    +0.000 C 
ATOM      9  C   UNL     1       2.319   7.104  19.723  0.00  0.00    +0.000 C 
ENDBRANCH   7   9
BRANCH   7  10
ATOM     10  C   UNL     1       2.201   4.745  20.655  0.00  0.00    +0.000 C 
ATOM     11  C   UNL     1       0.905   3.990  20.376  0.00  0.00    +0.000 C 
ENDBRANCH   7  10
ENDBRANCH   1   7
BRANCH   4  12
ATOM     12  C   UNL     1       7.189   4.301  16.359  0.00  0.00    +0.000 C 
BRANCH  12  13
ATOM     13  N   UNL     1       7.321   5.266  15.286  0.00  0.00    +0.000 N 
ATOM     14  C   UNL     1       7.215   4.869  14.013  0.00  0.00    +0.000 A 
ATOM     15  N   UNL     1       6.514   3.746  13.678  0.00  0.00    +0.000 NA
ATOM     16  C   UNL     1       6.614   3.712  12.369  0.00  0.00    +0.000 A 
ATOM     17  N   UNL     1       7.367   4.758  11.948  0.00  0.00    +0.000 N 
ATOM     18  N   UNL     1       7.763   5.512  12.984  0.00  0.00    +0.000 NA
ATOM     19  H   UNL     1       7.993   5.998  15.457  0.00  0.00    +0.000 HD
ATOM     20  H   UNL     1       7.643   5.018  11.009  0.00  0.00    +0.000 HD
ENDBRANCH  12  13
ENDBRANCH   4  12
TORSDOF 5
ENDMDL
MODEL 2
REMARK VINA RESULT:      -6.3      0.840      1.754
REMARK  Name = 
REMARK  7 active torsions:
REMARK  status: ('A' for Active; 'I' for Inactive)
REMARK    1  A    between atoms: C_1  and  C_2
REMARK    2  A    between atoms: C_2  and  N_3
REMARK    3  A    between atoms: N_3  and  C_4
REMARK    4  A    between atoms: N_3  and  C_6
REMARK    5  A    between atoms: C_4  and  C_5
REMARK    6  A    between atoms: C_9  and  C_10
REMARK    7  A    between atoms: C_10  and  N_11
REMARK                            x       y       z     vdW  Elec       q    Type
REMARK                         _______ _______ _______ _____ _____    ______ ____
ROOT
ATOM      1  C   UNL     1       3.752   5.773  19.024  0.00  0.00    +0.000 A 
ATOM      2  C   UNL     1       4.671   4.800  19.448  0.00  0.00    +0.000 A 
ATOM      3  C   UNL     1       5.764   4.419  18.662  0.00  0.00    +0.000 A 
ATOM      4  C   UNL     1       5.981   5.006  17.413  0.00  0.00    +0.000 A 
ATOM      5  C   UNL     1       5.063   5.956  16.958  0.00  0.00    +0.000 A 
ATOM      6  C   UNL     1       3.969   6.334  17.755  0.00  0.00    +0.000 A 
ENDROOT
BRANCH   1   7
ATOM      7  N   UNL     1       2.677   6.197  19.824  0.00  0.00    +0.000 N 
BRANCH   7   9
ATOM      8  C   UNL     1       1.313   4.164  19.313  0.00  0.00    +0.000 C 
ATOM      9  C   UNL     1       1.791   5.155  20.366  0.00  0.00    +0.000 C 
ENDBRANCH   7   9
BRANCH   7  10
ATOM     10  C   UNL     1       2.118   7.530  19.530  0.00  0.00    +0.000 C 
ATOM     11  C   UNL     1       1.452   8.193  20.732  0.00  0.00    +0.000 C 
ENDBRANCH   7  10
ENDBRANCH   1   7
BRANCH   4  12
ATOM     12  C   UNL     1       7.168   4.591  16.574  0.00  0.00    +0.000 C 
BRANCH  12  13
ATOM     13  N   UNL     1       7.256   5.442  15.404  0.00  0.00    +0.000 N 
ATOM     14  C   UNL     1       7.115   4.915  14.183  0.00  0.00    +0.000 A 
ATOM     15  N   UNL     1       6.416   3.758  13.988  0.00  0.00    +0.000 NA
ATOM     16  C   UNL     1       6.475   3.590  12.686  0.00  0.00    +0.000 A 
ATOM     17  N   UNL     1       7.203   4.593  12.136  0.00  0.00    +0.000 N 
ATOM     18  N   UNL     1       7.623   5.452  13.076  0.00  0.00    +0.000 NA
ATOM     19  H   UNL     1       7.926   6.192  15.477  0.00  0.00    +0.000 HD
ATOM     20  H   UNL     1       7.447   4.756  11.167  0.00  0.00    +0.000 HD
ENDBRANCH  12  13
ENDBRANCH   4  12
TORSDOF 5
ENDMDL
MODEL 3
REMARK VINA RESULT:      -6.3      0.375      2.125
REMARK  Name = 
REMARK  7 active torsions:
REMARK  status: ('A' for Active; 'I' for Inactive)
REMARK    1  A    between atoms: C_1  and  C_2
REMARK    2  A    between atoms: C_2  and  N_3
REMARK    3  A    between atoms: N_3  and  C_4
REMARK    4  A    between atoms: N_3  and  C_6
REMARK    5  A    between atoms: C_4  and  C_5
REMARK    6  A    between atoms: C_9  and  C_10
REMARK    7  A    between atoms: C_10  and  N_11
REMARK                            x       y       z     vdW  Elec       q    Type
REMARK                         _______ _______ _______ _____ _____    ______ ____
ROOT
ATOM      1  C   UNL     1       3.743   5.514  18.935  0.00  0.00    +0.000 A 
ATOM      2  C   UNL     1       3.561   4.950  17.662  0.00  0.00    +0.000 A 
ATOM      3  C   UNL     1       4.641   4.556  16.864  0.00  0.00    +0.000 A 
ATOM      4  C   UNL     1       5.953   4.711  17.316  0.00  0.00    +0.000 A 
ATOM      5  C   UNL     1       6.159   5.296  18.568  0.00  0.00    +0.000 A 
ATOM      6  C   UNL     1       5.069   5.687  19.364  0.00  0.00    +0.000 A 
ENDROOT
BRANCH   1   7
ATOM      7  N   UNL     1       2.666   5.871  19.765  0.00  0.00    +0.000 N 
BRANCH   7   9
ATOM      8  C   UNL     1       2.192   3.727  20.962  0.00  0.00    +0.000 C 
ATOM      9  C   UNL     1       1.667   4.831  20.054  0.00  0.00    +0.000 C 
ENDBRANCH   7   9
BRANCH   7  10
ATOM     10  C   UNL     1       2.240   7.282  19.725  0.00  0.00    +0.000 C 
ATOM     11  C   UNL     1       2.262   7.890  18.326  0.00  0.00    +0.000 C 
ENDBRANCH   7  10
ENDBRANCH   1   7
BRANCH   4  12
ATOM     12  C   UNL     1       7.112   4.277  16.448  0.00  0.00    +0.000 C 
BRANCH  12  13
ATOM     13  N   UNL     1       7.295   5.230  15.371  0.00  0.00    +0.000 N 
ATOM     14  C   UNL     1       7.168   4.834  14.100  0.00  0.00    +0.000 A 
ATOM     15  N   UNL     1       6.409   3.748  13.770  0.00  0.00    +0.000 NA
ATOM     16  C   UNL     1       6.506   3.704  12.460  0.00  0.00    +0.000 A 
ATOM     17  N   UNL     1       7.313   4.707  12.036  0.00  0.00    +0.000 N 
ATOM     18  N   UNL     1       7.749   5.443  13.069  0.00  0.00    +0.000 NA
ATOM     19  H   UNL     1       8.006   5.926  15.540  0.00  0.00    +0.000 HD
ATOM     20  H   UNL     1       7.603   4.948  11.096  0.00  0.00    +0.000 HD
ENDBRANCH  12  13
ENDBRANCH   4  12
TORSDOF 5
ENDMDL
MODEL 4
REMARK VINA RESULT:      -6.2      1.715      2.813
REMARK  Name = 
REMARK  7 active torsions:
REMARK  status: ('A' for Active; 'I' for Inactive)
REMARK    1  A    between atoms: C_1  and  C_2
REMARK    2  A    between atoms: C_2  and  N_3
REMARK    3  A    between atoms: N_3  and  C_4
REMARK    4  A    between atoms: N_3  and  C_6
REMARK    5  A    between atoms: C_4  and  C_5
REMARK    6  A    between atoms: C_9  and  C_10
REMARK    7  A    between atoms: C_10  and  N_11
REMARK                            x       y       z     vdW  Elec       q    Type
REMARK                         _______ _______ _______ _____ _____    ______ ____
ROOT
ATOM      1  C   UNL     1       3.125   4.920  19.223  0.00  0.00    +0.000 A 
ATOM      2  C   UNL     1       2.851   5.948  18.307  0.00  0.00    +0.000 A 
ATOM      3  C   UNL     1       3.871   6.674  17.682  0.00  0.00    +0.000 A 
ATOM      4  C   UNL     1       5.212   6.394  17.950  0.00  0.00    +0.000 A 
ATOM      5  C   UNL     1       5.507   5.394  18.881  0.00  0.00    +0.000 A 
ATOM      6  C   UNL     1       4.478   4.668  19.503  0.00  0.00    +0.000 A 
ENDROOT
BRANCH   1   7
ATOM      7  N   UNL     1       2.111   4.153  19.823  0.00  0.00    +0.000 N 
BRANCH   7   9
ATOM      8  C   UNL     1       1.300   2.694  21.685  0.00  0.00    +0.000 C 
ATOM      9  C   UNL     1       2.342   3.694  21.201  0.00  0.00    +0.000 C 
ENDBRANCH   7   9
BRANCH   7  10
ATOM     10  C   UNL     1       1.285   3.327  18.922  0.00  0.00    +0.000 C 
ATOM     11  C   UNL     1       2.094   2.362  18.061  0.00  0.00    +0.000 C 
ENDBRANCH   7  10
ENDBRANCH   1   7
BRANCH   4  12
ATOM     12  C   UNL     1       6.305   7.182  17.265  0.00  0.00    +0.000 C 
BRANCH  12  13
ATOM     13  N   UNL     1       7.253   6.269  16.657  0.00  0.00    +0.000 N 
ATOM     14  C   UNL     1       6.841   5.396  15.731  0.00  0.00    +0.000 A 
ATOM     15  N   UNL     1       5.727   5.637  14.979  0.00  0.00    +0.000 NA
ATOM     16  C   UNL     1       5.673   4.592  14.184  0.00  0.00    +0.000 A 
ATOM     17  N   UNL     1       6.698   3.754  14.474  0.00  0.00    +0.000 N 
ATOM     18  N   UNL     1       7.459   4.248  15.462  0.00  0.00    +0.000 NA
ATOM     19  H   UNL     1       7.974   5.934  17.278  0.00  0.00    +0.000 HD
ATOM     20  H   UNL     1       6.940   2.862  14.059  0.00  0.00    +0.000 HD
ENDBRANCH  12  13
ENDBRANCH   4  12
TORSDOF 5
ENDMDL
MODEL 5
REMARK VINA RESULT:      -6.2      3.734      5.494
REMARK  Name = 
REMARK  7 active torsions:
REMARK  status: ('A' for Active; 'I' for Inactive)
REMARK    1  A    between atoms: C_1  and  C_2
REMARK    2  A    between atoms: C_2  and  N_3
REMARK    3  A    between atoms: N_3  and  C_4
REMARK    4  A    between atoms: N_3  and  C_6
REMARK    5  A    between atoms: C_4  and  C_5
REMARK    6  A    between atoms: C_9  and  C_10
REMARK    7  A    between atoms: C_10  and  N_11
REMARK                            x       y       z     vdW  Elec       q    Type
REMARK                         _______ _______ _______ _____ _____    ______ ____
ROOT
ATOM      1  C   UNL     1       1.437   8.483  20.041  0.00  0.00    +0.000 A 
ATOM      2  C   UNL     1       1.840   8.760  18.725  0.00  0.00    +0.000 A 
ATOM      3  C   UNL     1       2.498   7.810  17.936  0.00  0.00    +0.000 A 
ATOM      4  C   UNL     1       2.777   6.538  18.438  0.00  0.00    +0.000 A 
ATOM      5  C   UNL     1       2.411   6.250  19.756  0.00  0.00    +0.000 A 
ATOM      6  C   UNL     1       1.749   7.208  20.541  0.00  0.00    +0.000 A 
ENDROOT
BRANCH   1   7
ATOM      7  N   UNL     1       0.735   9.413  20.827  0.00  0.00    +0.000 N 
BRANCH   7   9
ATOM      8  C   UNL     1      -0.175   9.637  23.146  0.00  0.00    +0.000 C 
ATOM      9  C   UNL     1      -0.202   8.876  21.827  0.00  0.00    +0.000 C 
ENDBRANCH   7   9
BRANCH   7  10
ATOM     10  C   UNL     1       0.450  10.722  20.210  0.00  0.00    +0.000 C 
ATOM     11  C   UNL     1      -0.968  10.845  19.662  0.00  0.00    +0.000 C 
ENDBRANCH   7  10
ENDBRANCH   1   7
BRANCH   4  12
ATOM     12  C   UNL     1       3.484   5.517  17.576  0.00  0.00    +0.000 C 
BRANCH  12  13
ATOM     13  N   UNL     1       4.558   4.904  18.331  0.00  0.00    +0.000 N 
ATOM     14  C   UNL     1       4.465   3.624  18.707  0.00  0.00    +0.000 A 
ATOM     15  N   UNL     1       3.682   2.740  18.021  0.00  0.00    +0.000 NA
ATOM     16  C   UNL     1       3.876   1.611  18.662  0.00  0.00    +0.000 A 
ATOM     17  N   UNL     1       4.718   1.823  19.703  0.00  0.00    +0.000 N 
ATOM     18  N   UNL     1       5.108   3.106  19.751  0.00  0.00    +0.000 NA
ATOM     19  H   UNL     1       5.015   5.517  18.989  0.00  0.00    +0.000 HD
ATOM     20  H   UNL     1       5.064   1.172  20.397  0.00  0.00    +0.000 HD
ENDBRANCH  12  13
ENDBRANCH   4  12
TORSDOF 5
ENDMDL
MODEL 6
REMARK VINA RESULT:      -6.1      1.737      7.222
REMARK  Name = 
REMARK  7 active torsions:
REMARK  status: ('A' for Active; 'I' for Inactive)
REMARK    1  A    between atoms: C_1  and  C_2
REMARK    2  A    between atoms: C_2  and  N_3
REMARK    3  A    between atoms: N_3  and  C_4
REMARK    4  A    between atoms: N_3  and  C_6
REMARK    5  A    between atoms: C_4  and  C_5
REMARK    6  A    between atoms: C_9  and  C_10
REMARK    7  A    between atoms: C_10  and  N_11
REMARK                            x       y       z     vdW  Elec       q    Type
REMARK                         _______ _______ _______ _____ _____    ______ ____
ROOT
ATOM      1  C   UNL     1       5.500   4.998  15.273  0.00  0.00    +0.000 A 
ATOM      2  C   UNL     1       5.258   6.321  15.676  0.00  0.00    +0.000 A 
ATOM      3  C   UNL     1       4.605   6.622  16.877  0.00  0.00    +0.000 A 
ATOM      4  C   UNL     1       4.171   5.602  17.726  0.00  0.00    +0.000 A 
ATOM      5  C   UNL     1       4.376   4.277  17.331  0.00  0.00    +0.000 A 
ATOM      6  C   UNL     1       5.033   3.984  16.125  0.00  0.00    +0.000 A 
ENDROOT
BRANCH   1   7
ATOM      7  N   UNL     1       6.194   4.684  14.092  0.00  0.00    +0.000 N 
BRANCH   7   9
ATOM      8  C   UNL     1       4.985   3.603  12.188  0.00  0.00    +0.000 C 
ATOM      9  C   UNL     1       5.851   3.417  13.427  0.00  0.00    +0.000 C 
ENDBRANCH   7   9
BRANCH   7  10
ATOM     10  C   UNL     1       7.569   5.205  13.973  0.00  0.00    +0.000 C 
ATOM     11  C   UNL     1       7.987   5.507  12.537  0.00  0.00    +0.000 C 
ENDBRANCH   7  10
ENDBRANCH   1   7
BRANCH   4  12
ATOM     12  C   UNL     1       3.473   5.938  19.023  0.00  0.00    +0.000 C 
BRANCH  12  13
ATOM     13  N   UNL     1       2.142   5.362  19.022  0.00  0.00    +0.000 N 
ATOM     14  C   UNL     1       1.823   4.416  19.911  0.00  0.00    +0.000 A 
ATOM     15  N   UNL     1       2.480   4.315  21.105  0.00  0.00    +0.000 NA
ATOM     16  C   UNL     1       1.872   3.312  21.695  0.00  0.00    +0.000 A 
ATOM     17  N   UNL     1       0.912   2.821  20.874  0.00  0.00    +0.000 N 
ATOM     18  N   UNL     1       0.864   3.512  19.725  0.00  0.00    +0.000 NA
ATOM     19  H   UNL     1       1.730   5.255  18.108  0.00  0.00    +0.000 HD
ATOM     20  H   UNL     1       0.273   2.049  21.017  0.00  0.00    +0.000 HD
ENDBRANCH  12  13
ENDBRANCH   4  12
TORSDOF 5
ENDMDL
MODEL 7
REMARK VINA RESULT:      -6.1      2.266      6.835
REMARK  Name = 
REMARK  7 active torsions:
REMARK  status: ('A' for Active; 'I' for Inactive)
REMARK    1  A    between atoms: C_1  and  C_2
REMARK    2  A    between atoms: C_2  and  N_3
REMARK    3  A    between atoms: N_3  and  C_4
REMARK    4  A    between atoms: N_3  and  C_6
REMARK    5  A    between atoms: C_4  and  C_5
REMARK    6  A    between atoms: C_9  and  C_10
REMARK    7  A    between atoms: C_10  and  N_11
REMARK                            x       y       z     vdW  Elec       q    Type
REMARK                         _______ _______ _______ _____ _____    ______ ____
ROOT
ATOM      1  C   UNL     1       5.215   5.217  17.047  0.00  0.00    +0.000 A 
ATOM      2  C   UNL     1       4.294   6.152  17.546  0.00  0.00    +0.000 A 
ATOM      3  C   UNL     1       2.968   5.806  17.830  0.00  0.00    +0.000 A 
ATOM      4  C   UNL     1       2.513   4.502  17.626  0.00  0.00    +0.000 A 
ATOM      5  C   UNL     1       3.405   3.562  17.102  0.00  0.00    +0.000 A 
ATOM      6  C   UNL     1       4.735   3.917  16.822  0.00  0.00    +0.000 A 
ENDROOT
BRANCH   1   7
ATOM      7  N   UNL     1       6.561   5.541  16.801  0.00  0.00    +0.000 N 
BRANCH   7   9
ATOM      8  C   UNL     1       7.013   4.963  14.410  0.00  0.00    +0.000 C 
ATOM      9  C   UNL     1       7.303   4.670  15.876  0.00  0.00    +0.000 C 
ENDBRANCH   7   9
BRANCH   7  10
ATOM     10  C   UNL     1       7.291   6.213  17.893  0.00  0.00    +0.000 C 
ATOM     11  C   UNL     1       7.648   7.664  17.587  0.00  0.00    +0.000 C 
ENDBRANCH   7  10
ENDBRANCH   1   7
BRANCH   4  12
ATOM     12  C   UNL     1       1.080   4.138  17.942  0.00  0.00    +0.000 C 
BRANCH  12  13
ATOM     13  N   UNL     1       1.053   2.974  18.805  0.00  0.00    +0.000 N 
ATOM     14  C   UNL     1       1.557   3.047  20.041  0.00  0.00    +0.000 A 
ATOM     15  N   UNL     1       1.637   4.239  20.704  0.00  0.00    +0.000 NA
ATOM     16  C   UNL     1       2.143   3.899  21.867  0.00  0.00    +0.000 A 
ATOM     17  N   UNL     1       2.380   2.565  21.883  0.00  0.00    +0.000 N 
ATOM     18  N   UNL     1       2.013   1.999  20.724  0.00  0.00    +0.000 NA
ATOM     19  H   UNL     1       1.192   2.094  18.331  0.00  0.00    +0.000 HD
ATOM     20  H   UNL     1       2.772   1.987  22.616  0.00  0.00    +0.000 HD
ENDBRANCH  12  13
ENDBRANCH   4  12
TORSDOF 5
ENDMDL
MODEL 8
REMARK VINA RESULT:      -6.1      2.508      4.310
REMARK  Name = 
REMARK  7 active torsions:
REMARK  status: ('A' for Active; 'I' for Inactive)
REMARK    1  A    between atoms: C_1  and  C_2
REMARK    2  A    between atoms: C_2  and  N_3
REMARK    3  A    between atoms: N_3  and  C_4
REMARK    4  A    between atoms: N_3  and  C_6
REMARK    5  A    between atoms: C_4  and  C_5
REMARK    6  A    between atoms: C_9  and  C_10
REMARK    7  A    between atoms: C_10  and  N_11
REMARK                            x       y       z     vdW  Elec       q    Type
REMARK                         _______ _______ _______ _____ _____    ______ ____
ROOT
ATOM      1  C   UNL     1       1.471   7.992  20.122  0.00  0.00    +0.000 A 
ATOM      2  C   UNL     1       1.536   6.791  20.846  0.00  0.00    +0.000 A 
ATOM      3  C   UNL     1       2.292   5.699  20.405  0.00  0.00    +0.000 A 
ATOM      4  C   UNL     1       3.018   5.771  19.214  0.00  0.00    +0.000 A 
ATOM      5  C   UNL     1       2.944   6.947  18.462  0.00  0.00    +0.000 A 
ATOM      6  C   UNL     1       2.185   8.039  18.913  0.00  0.00    +0.000 A 
ENDROOT
BRANCH   1   7
ATOM      7  N   UNL     1       0.753   9.111  20.577  0.00  0.00    +0.000 N 
BRANCH   7   9
ATOM      8  C   UNL     1       0.932  11.509  19.890  0.00  0.00    +0.000 C 
ATOM      9  C   UNL     1       0.381  10.124  19.577  0.00  0.00    +0.000 C 
ENDBRANCH   7   9
BRANCH   7  10
ATOM     10  C   UNL     1       0.999   9.535  21.968  0.00  0.00    +0.000 C 
ATOM     11  C   UNL     1      -0.236   9.459  22.860  0.00  0.00    +0.000 C 
ENDBRANCH   7  10
ENDBRANCH   1   7
BRANCH   4  12
ATOM     12  C   UNL     1       3.835   4.588  18.749  0.00  0.00    +0.000 C 
BRANCH  12  13
ATOM     13  N   UNL     1       5.239   4.833  19.013  0.00  0.00    +0.000 N 
ATOM     14  C   UNL     1       6.141   4.668  18.040  0.00  0.00    +0.000 A 
ATOM     15  N   UNL     1       5.789   4.769  16.724  0.00  0.00    +0.000 NA
ATOM     16  C   UNL     1       6.927   4.581  16.096  0.00  0.00    +0.000 A 
ATOM     17  N   UNL     1       7.908   4.351  17.002  0.00  0.00    +0.000 N 
ATOM     18  N   UNL     1       7.428   4.401  18.254  0.00  0.00    +0.000 NA
ATOM     19  H   UNL     1       5.546   4.572  19.938  0.00  0.00    +0.000 HD
ATOM     20  H   UNL     1       8.892   4.160  16.854  0.00  0.00    +0.000 HD
ENDBRANCH  12  13
ENDBRANCH   4  12
TORSDOF 5
ENDMDL
MODEL 9
REMARK VINA RESULT:      -6.1      2.652      4.599
REMARK  Name = 
REMARK  7 active torsions:
REMARK  status: ('A' for Active; 'I' for Inactive)
REMARK    1  A    between atoms: C_1  and  C_2
REMARK    2  A    between atoms: C_2  and  N_3
REMARK    3  A    between atoms: N_3  and  C_4
REMARK    4  A    between atoms: N_3  and  C_6
REMARK    5  A    between atoms: C_4  and  C_5
REMARK    6  A    between atoms: C_9  and  C_10
REMARK    7  A    between atoms: C_10  and  N_11
REMARK                            x       y       z     vdW  Elec       q    Type
REMARK                         _______ _______ _______ _____ _____    ______ ____
ROOT
ATOM      1  C   UNL     1       1.411   8.508  19.987  0.00  0.00    +0.000 A 
ATOM      2  C   UNL     1       1.745   7.272  20.563  0.00  0.00    +0.000 A 
ATOM      3  C   UNL     1       2.446   6.289  19.855  0.00  0.00    +0.000 A 
ATOM      4  C   UNL     1       2.844   6.511  18.535  0.00  0.00    +0.000 A 
ATOM      5  C   UNL     1       2.496   7.723  17.932  0.00  0.00    +0.000 A 
ATOM      6  C   UNL     1       1.795   8.705  18.650  0.00  0.00    +0.000 A 
ENDROOT
BRANCH   1   7
ATOM      7  N   UNL     1       0.749   9.521  20.702  0.00  0.00    +0.000 N 
BRANCH   7   9
ATOM      8  C   UNL     1      -0.470   9.561  22.885  0.00  0.00    +0.000 C 
ATOM      9  C   UNL     1       0.871   9.499  22.168  0.00  0.00    +0.000 C 
ENDBRANCH   7   9
BRANCH   7  10
ATOM     10  C   UNL     1      -0.481  10.064  20.095  0.00  0.00    +0.000 C 
ATOM     11  C   UNL     1      -0.398  11.553  19.772  0.00  0.00    +0.000 C 
ENDBRANCH   7  10
ENDBRANCH   1   7
BRANCH   4  12
ATOM     12  C   UNL     1       3.604   5.444  17.781  0.00  0.00    +0.000 C 
BRANCH  12  13
ATOM     13  N   UNL     1       4.929   5.299  18.351  0.00  0.00    +0.000 N 
ATOM     14  C   UNL     1       5.967   5.001  17.561  0.00  0.00    +0.000 A 
ATOM     15  N   UNL     1       5.956   5.310  16.231  0.00  0.00    +0.000 NA
ATOM     16  C   UNL     1       7.133   4.898  15.820  0.00  0.00    +0.000 A 
ATOM     17  N   UNL     1       7.804   4.343  16.859  0.00  0.00    +0.000 N 
ATOM     18  N   UNL     1       7.076   4.397  17.984  0.00  0.00    +0.000 NA
ATOM     19  H   UNL     1       4.951   4.883  19.269  0.00  0.00    +0.000 HD
ATOM     20  H   UNL     1       8.725   3.922  16.882  0.00  0.00    +0.000 HD
ENDBRANCH  12  13
ENDBRANCH   4  12
TORSDOF 5
ENDMDL
