MODEL 1
REMARK VINA RESULT:      -8.4      0.000      0.000
REMARK  Name = 
REMARK  16 active torsions:
REMARK  status: ('A' for Active; 'I' for Inactive)
REMARK    1  A    between atoms: C_1  and  C_2
REMARK    2  A    between atoms: C_4  and  N_5
REMARK    3  A    between atoms: N_5  and  C_6
REMARK    4  A    between atoms: C_6  and  C_7
REMARK    5  A    between atoms: C_6  and  C_11
REMARK    6  A    between atoms: C_7  and  C_8
REMARK    7  A    between atoms: C_8  and  C_9
REMARK    8  A    between atoms: C_8  and  C_10
REMARK    9  A    between atoms: N_13  and  C_14
REMARK   10  A    between atoms: C_14  and  C_15
REMARK   11  A    between atoms: C_15  and  O_16
REMARK   12  A    between atoms: O_16  and  C_17
REMARK   13  A    between atoms: N_25  and  C_26
REMARK   14  A    between atoms: C_26  and  C_27
REMARK   15  A    between atoms: C_27  and  O_28
REMARK   16  A    between atoms: O_28  and  C_29
REMARK                            x       y       z     vdW  Elec       q    Type
REMARK                         _______ _______ _______ _____ _____    ______ ____
ROOT
ATOM      1  N   UNL     1       5.077   3.835  18.476  0.00  0.00    +0.000 N 
ATOM      2  H   UNL     1       5.572   2.958  18.657  0.00  0.00    +0.000 HD
ENDROOT
BRANCH   1   6
ATOM      3  C   UNL     1       6.568   3.928  13.833  0.00  0.00    +0.000 C 
ATOM      4  C   UNL     1       6.284   4.590  15.144  0.00  0.00    +0.000 A 
ATOM      5  C   UNL     1       5.601   3.924  16.131  0.00  0.00    +0.000 A 
ATOM      6  C   UNL     1       5.618   4.490  17.385  0.00  0.00    +0.000 A 
ATOM      7  N   UNL     1       6.198   5.682  17.612  0.00  0.00    +0.000 NA
ATOM      8  C   UNL     1       6.776   6.309  16.575  0.00  0.00    +0.000 A 
ATOM      9  N   UNL     1       7.466   7.504  16.733  0.00  0.00    +0.000 N 
ATOM     10  N   UNL     1       6.819   5.805  15.339  0.00  0.00    +0.000 NA
ATOM     11  H   UNL     1       6.910   8.241  16.318  0.00  0.00    +0.000 HD
BRANCH   9  12
ATOM     12  C   UNL     1       8.032   7.808  18.039  0.00  0.00    +0.000 C 
BRANCH  12  13
ATOM     13  C   UNL     1       8.218   9.324  18.201  0.00  0.00    +0.000 C 
BRANCH  13  14
ATOM     14  O   UNL     1       9.111   9.634  19.270  0.00  0.00    +0.000 OA
BRANCH  14  15
ATOM     15  C   UNL     1       9.928  10.721  19.072  0.00  0.00    +0.000 A 
ATOM     16  C   UNL     1      10.402  11.325  20.238  0.00  0.00    +0.000 A 
ATOM     17  C   UNL     1      11.271  12.416  20.169  0.00  0.00    +0.000 A 
ATOM     18  C   UNL     1      11.706  12.891  18.934  0.00  0.00    +0.000 A 
ATOM     19  C   UNL     1      11.244  12.294  17.767  0.00  0.00    +0.000 A 
ATOM     20  C   UNL     1      10.329  11.240  17.837  0.00  0.00    +0.000 A 
ENDBRANCH  14  15
ENDBRANCH  13  14
ENDBRANCH  12  13
ENDBRANCH   9  12
ENDBRANCH   1   6
BRANCH   1  21
ATOM     21  C   UNL     1       3.629   3.758  18.756  0.00  0.00    +0.000 C 
BRANCH  21  22
ATOM     22  C   UNL     1       2.916   4.999  18.174  0.00  0.00    +0.000 C 
ATOM     23  O   UNL     1       2.000   4.918  17.353  0.00  0.00    +0.000 OA
ATOM     24  N   UNL     1       3.385   6.219  18.637  0.00  0.00    +0.000 N 
ATOM     25  H   UNL     1       4.275   6.238  19.116  0.00  0.00    +0.000 HD
BRANCH  24  26
ATOM     26  C   UNL     1       2.913   7.468  18.060  0.00  0.00    +0.000 C 
BRANCH  26  27
ATOM     27  C   UNL     1       1.658   7.983  18.762  0.00  0.00    +0.000 C 
BRANCH  27  28
ATOM     28  O   UNL     1       1.920   8.111  20.159  0.00  0.00    +0.000 OA
BRANCH  28  29
ATOM     29  C   UNL     1       1.139   9.015  20.829  0.00  0.00    +0.000 A 
ATOM     30  C   UNL     1       0.766   8.638  22.121  0.00  0.00    +0.000 A 
ATOM     31  C   UNL     1      -0.030   9.479  22.902  0.00  0.00    +0.000 A 
ATOM     32  C   UNL     1      -0.445  10.710  22.399  0.00  0.00    +0.000 A 
ATOM     33  C   UNL     1      -0.056  11.102  21.119  0.00  0.00    +0.000 A 
ATOM     34  C   UNL     1       0.735  10.258  20.336  0.00  0.00    +0.000 A 
ENDBRANCH  28  29
ENDBRANCH  27  28
ENDBRANCH  26  27
ENDBRANCH  24  26
ENDBRANCH  21  22
BRANCH  21  35
ATOM     35  C   UNL     1       3.255   3.579  20.254  0.00  0.00    +0.000 C 
BRANCH  35  36
ATOM     36  C   UNL     1       1.796   3.191  20.562  0.00  0.00    +0.000 C 
ATOM     37  C   UNL     1       1.252   2.248  19.482  0.00  0.00    +0.000 C 
ATOM     38  C   UNL     1       1.669   2.499  21.903  0.00  0.00    +0.000 C 
ENDBRANCH  35  36
ENDBRANCH  21  35
ENDBRANCH   1  21
TORSDOF 13
ENDMDL
MODEL 2
REMARK VINA RESULT:      -8.3      2.395      8.681
REMARK  Name = 
REMARK  16 active torsions:
REMARK  status: ('A' for Active; 'I' for Inactive)
REMARK    1  A    between atoms: C_1  and  C_2
REMARK    2  A    between atoms: C_4  and  N_5
REMARK    3  A    between atoms: N_5  and  C_6
REMARK    4  A    between atoms: C_6  and  C_7
REMARK    5  A    between atoms: C_6  and  C_11
REMARK    6  A    between atoms: C_7  and  C_8
REMARK    7  A    between atoms: C_8  and  C_9
REMARK    8  A    between atoms: C_8  and  C_10
REMARK    9  A    between atoms: N_13  and  C_14
REMARK   10  A    between atoms: C_14  and  C_15
REMARK   11  A    between atoms: C_15  and  O_16
REMARK   12  A    between atoms: O_16  and  C_17
REMARK   13  A    between atoms: N_25  and  C_26
REMARK   14  A    between atoms: C_26  and  C_27
REMARK   15  A    between atoms: C_27  and  O_28
REMARK   16  A    between atoms: O_28  and  C_29
REMARK                            x       y       z     vdW  Elec       q    Type
REMARK                         _______ _______ _______ _____ _____    ______ ____
ROOT
ATOM      1  N   UNL     1       4.762   5.294  16.904  0.00  0.00    +0.000 N 
ATOM      2  H   UNL     1       4.337   5.348  15.975  0.00  0.00    +0.000 HD
ENDROOT
BRANCH   1   6
ATOM      3  C   UNL     1       1.300   3.468  19.813  0.00  0.00    +0.000 C 
ATOM      4  C   UNL     1       2.183   4.582  19.347  0.00  0.00    +0.000 A 
ATOM      5  C   UNL     1       3.218   4.338  18.479  0.00  0.00    +0.000 A 
ATOM      6  C   UNL     1       3.805   5.434  17.891  0.00  0.00    +0.000 A 
ATOM      7  N   UNL     1       3.441   6.687  18.219  0.00  0.00    +0.000 NA
ATOM      8  C   UNL     1       2.475   6.843  19.138  0.00  0.00    +0.000 A 
ATOM      9  N   UNL     1       1.983   8.096  19.480  0.00  0.00    +0.000 N 
ATOM     10  N   UNL     1       1.846   5.823  19.728  0.00  0.00    +0.000 NA
ATOM     11  H   UNL     1       2.312   8.317  20.411  0.00  0.00    +0.000 HD
BRANCH   9  12
ATOM     12  C   UNL     1       2.097   9.173  18.506  0.00  0.00    +0.000 C 
BRANCH  12  13
ATOM     13  C   UNL     1       0.735   9.448  17.853  0.00  0.00    +0.000 C 
BRANCH  13  14
ATOM     14  O   UNL     1       0.113  10.610  18.400  0.00  0.00    +0.000 OA
BRANCH  14  15
ATOM     15  C   UNL     1      -1.233  10.740  18.159  0.00  0.00    +0.000 A 
ATOM     16  C   UNL     1      -1.750   9.860  17.206  0.00  0.00    +0.000 A 
ATOM     17  C   UNL     1      -3.113   9.868  16.900  0.00  0.00    +0.000 A 
ATOM     18  C   UNL     1      -3.980  10.728  17.571  0.00  0.00    +0.000 A 
ATOM     19  C   UNL     1      -3.476  11.604  18.525  0.00  0.00    +0.000 A 
ATOM     20  C   UNL     1      -2.104  11.635  18.787  0.00  0.00    +0.000 A 
ENDBRANCH  14  15
ENDBRANCH  13  14
ENDBRANCH  12  13
ENDBRANCH   9  12
ENDBRANCH   1   6
BRANCH   1  21
ATOM     21  C   UNL     1       5.889   4.343  16.978  0.00  0.00    +0.000 C 
BRANCH  21  22
ATOM     22  C   UNL     1       7.097   5.015  17.671  0.00  0.00    +0.000 C 
ATOM     23  O   UNL     1       7.993   4.370  18.220  0.00  0.00    +0.000 OA
ATOM     24  N   UNL     1       7.099   6.400  17.638  0.00  0.00    +0.000 N 
ATOM     25  H   UNL     1       6.241   6.874  17.391  0.00  0.00    +0.000 HD
BRANCH  24  26
ATOM     26  C   UNL     1       8.089   7.163  18.382  0.00  0.00    +0.000 C 
BRANCH  26  27
ATOM     27  C   UNL     1       8.107   8.633  17.967  0.00  0.00    +0.000 C 
BRANCH  27  28
ATOM     28  O   UNL     1       9.028   9.344  18.793  0.00  0.00    +0.000 OA
BRANCH  28  29
ATOM     29  C   UNL     1       9.259  10.647  18.440  0.00  0.00    +0.000 A 
ATOM     30  C   UNL     1      10.541  11.122  18.722  0.00  0.00    +0.000 A 
ATOM     31  C   UNL     1      10.895  12.436  18.407  0.00  0.00    +0.000 A 
ATOM     32  C   UNL     1       9.970  13.277  17.792  0.00  0.00    +0.000 A 
ATOM     33  C   UNL     1       8.697  12.801  17.487  0.00  0.00    +0.000 A 
ATOM     34  C   UNL     1       8.341  11.489  17.808  0.00  0.00    +0.000 A 
ENDBRANCH  28  29
ENDBRANCH  27  28
ENDBRANCH  26  27
ENDBRANCH  24  26
ENDBRANCH  21  22
BRANCH  21  35
ATOM     35  C   UNL     1       6.325   3.729  15.618  0.00  0.00    +0.000 C 
BRANCH  35  36
ATOM     36  C   UNL     1       6.097   4.593  14.363  0.00  0.00    +0.000 C 
ATOM     37  C   UNL     1       7.411   5.244  13.913  0.00  0.00    +0.000 C 
ATOM     38  C   UNL     1       5.553   3.777  13.210  0.00  0.00    +0.000 C 
ENDBRANCH  35  36
ENDBRANCH  21  35
ENDBRANCH   1  21
TORSDOF 13
ENDMDL
MODEL 3
REMARK VINA RESULT:      -8.3      1.920      2.742
REMARK  Name = 
REMARK  16 active torsions:
REMARK  status: ('A' for Active; 'I' for Inactive)
REMARK    1  A    between atoms: C_1  and  C_2
REMARK    2  A    between atoms: C_4  and  N_5
REMARK    3  A    between atoms: N_5  and  C_6
REMARK    4  A    between atoms: C_6  and  C_7
REMARK    5  A    between atoms: C_6  and  C_11
REMARK    6  A    between atoms: C_7  and  C_8
REMARK    7  A    between atoms: C_8  and  C_9
REMARK    8  A    between atoms: C_8  and  C_10
REMARK    9  A    between atoms: N_13  and  C_14
REMARK   10  A    between atoms: C_14  and  C_15
REMARK   11  A    between atoms: C_15  and  O_16
REMARK   12  A    between atoms: O_16  and  C_17
REMARK   13  A    between atoms: N_25  and  C_26
REMARK   14  A    between atoms: C_26  and  C_27
REMARK   15  A    between atoms: C_27  and  O_28
REMARK   16  A    between atoms: O_28  and  C_29
REMARK                            x       y       z     vdW  Elec       q    Type
REMARK                         _______ _______ _______ _____ _____    ______ ____
ROOT
ATOM      1  N   UNL     1       3.467   6.530  17.777  0.00  0.00    +0.000 N 
ATOM      2  H   UNL     1       3.370   7.520  18.012  0.00  0.00    +0.000 HD
ENDROOT
BRANCH   1   6
ATOM      3  C   UNL     1       6.213   3.839  14.777  0.00  0.00    +0.000 C 
ATOM      4  C   UNL     1       5.956   5.071  15.585  0.00  0.00    +0.000 A 
ATOM      5  C   UNL     1       4.718   5.305  16.129  0.00  0.00    +0.000 A 
ATOM      6  C   UNL     1       4.634   6.303  17.072  0.00  0.00    +0.000 A 
ATOM      7  N   UNL     1       5.695   7.071  17.379  0.00  0.00    +0.000 NA
ATOM      8  C   UNL     1       6.852   6.831  16.743  0.00  0.00    +0.000 A 
ATOM      9  N   UNL     1       8.017   7.522  17.054  0.00  0.00    +0.000 N 
ATOM     10  N   UNL     1       7.010   5.862  15.838  0.00  0.00    +0.000 NA
ATOM     11  H   UNL     1       8.220   8.150  16.287  0.00  0.00    +0.000 HD
BRANCH   9  12
ATOM     12  C   UNL     1       8.145   8.098  18.385  0.00  0.00    +0.000 C 
BRANCH  12  13
ATOM     13  C   UNL     1       8.539   9.579  18.290  0.00  0.00    +0.000 C 
BRANCH  13  14
ATOM     14  O   UNL     1       9.317   9.991  19.413  0.00  0.00    +0.000 OA
BRANCH  14  15
ATOM     15  C   UNL     1      10.169  11.047  19.197  0.00  0.00    +0.000 A 
ATOM     16  C   UNL     1      10.378  11.374  17.857  0.00  0.00    +0.000 A 
ATOM     17  C   UNL     1      11.195  12.452  17.508  0.00  0.00    +0.000 A 
ATOM     18  C   UNL     1      11.780  13.239  18.497  0.00  0.00    +0.000 A 
ATOM     19  C   UNL     1      11.575  12.925  19.835  0.00  0.00    +0.000 A 
ATOM     20  C   UNL     1      10.805  11.811  20.181  0.00  0.00    +0.000 A 
ENDBRANCH  14  15
ENDBRANCH  13  14
ENDBRANCH  12  13
ENDBRANCH   9  12
ENDBRANCH   1   6
BRANCH   1  21
ATOM     21  C   UNL     1       2.949   5.626  18.824  0.00  0.00    +0.000 C 
BRANCH  21  22
ATOM     22  C   UNL     1       2.188   6.443  19.893  0.00  0.00    +0.000 C 
ATOM     23  O   UNL     1       1.781   5.947  20.945  0.00  0.00    +0.000 OA
ATOM     24  N   UNL     1       1.987   7.779  19.580  0.00  0.00    +0.000 N 
ATOM     25  H   UNL     1       2.126   8.072  18.623  0.00  0.00    +0.000 HD
BRANCH  24  26
ATOM     26  C   UNL     1       1.154   8.624  20.420  0.00  0.00    +0.000 C 
BRANCH  26  27
ATOM     27  C   UNL     1       1.003  10.031  19.843  0.00  0.00    +0.000 C 
BRANCH  27  28
ATOM     28  O   UNL     1       0.502   9.941  18.510  0.00  0.00    +0.000 OA
BRANCH  28  29
ATOM     29  C   UNL     1      -0.769  10.414  18.319  0.00  0.00    +0.000 A 
ATOM     30  C   UNL     1      -1.525   9.728  17.367  0.00  0.00    +0.000 A 
ATOM     31  C   UNL     1      -2.836  10.119  17.087  0.00  0.00    +0.000 A 
ATOM     32  C   UNL     1      -3.404  11.191  17.772  0.00  0.00    +0.000 A 
ATOM     33  C   UNL     1      -2.662  11.865  18.740  0.00  0.00    +0.000 A 
ATOM     34  C   UNL     1      -1.348  11.479  19.016  0.00  0.00    +0.000 A 
ENDBRANCH  28  29
ENDBRANCH  27  28
ENDBRANCH  26  27
ENDBRANCH  24  26
ENDBRANCH  21  22
BRANCH  21  35
ATOM     35  C   UNL     1       4.016   4.721  19.501  0.00  0.00    +0.000 C 
BRANCH  35  36
ATOM     36  C   UNL     1       3.783   3.200  19.425  0.00  0.00    +0.000 C 
ATOM     37  C   UNL     1       2.447   2.828  20.082  0.00  0.00    +0.000 C 
ATOM     38  C   UNL     1       3.760   2.706  17.994  0.00  0.00    +0.000 C 
ENDBRANCH  35  36
ENDBRANCH  21  35
ENDBRANCH   1  21
TORSDOF 13
ENDMDL
MODEL 4
REMARK VINA RESULT:      -8.2      1.587      2.358
REMARK  Name = 
REMARK  16 active torsions:
REMARK  status: ('A' for Active; 'I' for Inactive)
REMARK    1  A    between atoms: C_1  and  C_2
REMARK    2  A    between atoms: C_4  and  N_5
REMARK    3  A    between atoms: N_5  and  C_6
REMARK    4  A    between atoms: C_6  and  C_7
REMARK    5  A    between atoms: C_6  and  C_11
REMARK    6  A    between atoms: C_7  and  C_8
REMARK    7  A    between atoms: C_8  and  C_9
REMARK    8  A    between atoms: C_8  and  C_10
REMARK    9  A    between atoms: N_13  and  C_14
REMARK   10  A    between atoms: C_14  and  C_15
REMARK   11  A    between atoms: C_15  and  O_16
REMARK   12  A    between atoms: O_16  and  C_17
REMARK   13  A    between atoms: N_25  and  C_26
REMARK   14  A    between atoms: C_26  and  C_27
REMARK   15  A    between atoms: C_27  and  O_28
REMARK   16  A    between atoms: O_28  and  C_29
REMARK                            x       y       z     vdW  Elec       q    Type
REMARK                         _______ _______ _______ _____ _____    ______ ____
ROOT
ATOM      1  N   UNL     1       4.079   5.491  19.389  0.00  0.00    +0.000 N 
ATOM      2  H   UNL     1       4.455   4.686  19.895  0.00  0.00    +0.000 HD
ENDROOT
BRANCH   1   6
ATOM      3  C   UNL     1       5.292   4.020  14.899  0.00  0.00    +0.000 C 
ATOM      4  C   UNL     1       5.292   5.026  16.006  0.00  0.00    +0.000 A 
ATOM      5  C   UNL     1       4.487   4.858  17.105  0.00  0.00    +0.000 A 
ATOM      6  C   UNL     1       4.740   5.669  18.187  0.00  0.00    +0.000 A 
ATOM      7  N   UNL     1       5.670   6.639  18.138  0.00  0.00    +0.000 NA
ATOM      8  C   UNL     1       6.360   6.793  16.997  0.00  0.00    +0.000 A 
ATOM      9  N   UNL     1       7.392   7.716  16.882  0.00  0.00    +0.000 N 
ATOM     10  N   UNL     1       6.185   6.024  15.919  0.00  0.00    +0.000 NA
ATOM     11  H   UNL     1       7.071   8.470  16.289  0.00  0.00    +0.000 HD
BRANCH   9  12
ATOM     12  C   UNL     1       8.089   8.127  18.093  0.00  0.00    +0.000 C 
BRANCH  12  13
ATOM     13  C   UNL     1       8.237   9.655  18.131  0.00  0.00    +0.000 C 
BRANCH  13  14
ATOM     14  O   UNL     1       9.561  10.048  18.491  0.00  0.00    +0.000 OA
BRANCH  14  15
ATOM     15  C   UNL     1       9.899  11.348  18.206  0.00  0.00    +0.000 A 
ATOM     16  C   UNL     1      11.266  11.583  18.050  0.00  0.00    +0.000 A 
ATOM     17  C   UNL     1      11.734  12.858  17.722  0.00  0.00    +0.000 A 
ATOM     18  C   UNL     1      10.838  13.902  17.507  0.00  0.00    +0.000 A 
ATOM     19  C   UNL     1       9.474  13.678  17.655  0.00  0.00    +0.000 A 
ATOM     20  C   UNL     1       9.012  12.416  18.041  0.00  0.00    +0.000 A 
ENDBRANCH  14  15
ENDBRANCH  13  14
ENDBRANCH  12  13
ENDBRANCH   9  12
ENDBRANCH   1   6
BRANCH   1  21
ATOM     21  C   UNL     1       2.622   5.662  19.560  0.00  0.00    +0.000 C 
BRANCH  21  22
ATOM     22  C   UNL     1       2.278   7.166  19.655  0.00  0.00    +0.000 C 
ATOM     23  O   UNL     1       2.474   7.954  18.728  0.00  0.00    +0.000 OA
ATOM     24  N   UNL     1       1.739   7.572  20.866  0.00  0.00    +0.000 N 
ATOM     25  H   UNL     1       1.819   6.948  21.658  0.00  0.00    +0.000 HD
BRANCH  24  26
ATOM     26  C   UNL     1       1.515   8.980  21.149  0.00  0.00    +0.000 C 
BRANCH  26  27
ATOM     27  C   UNL     1       0.102   9.421  20.768  0.00  0.00    +0.000 C 
BRANCH  27  28
ATOM     28  O   UNL     1       0.126  10.796  20.385  0.00  0.00    +0.000 OA
BRANCH  28  29
ATOM     29  C   UNL     1      -0.304  11.684  21.335  0.00  0.00    +0.000 A 
ATOM     30  C   UNL     1       0.216  12.975  21.223  0.00  0.00    +0.000 A 
ATOM     31  C   UNL     1      -0.150  13.968  22.134  0.00  0.00    +0.000 A 
ATOM     32  C   UNL     1      -1.053  13.677  23.155  0.00  0.00    +0.000 A 
ATOM     33  C   UNL     1      -1.593  12.397  23.258  0.00  0.00    +0.000 A 
ATOM     34  C   UNL     1      -1.222  11.402  22.350  0.00  0.00    +0.000 A 
ENDBRANCH  28  29
ENDBRANCH  27  28
ENDBRANCH  26  27
ENDBRANCH  24  26
ENDBRANCH  21  22
BRANCH  21  35
ATOM     35  C   UNL     1       2.005   4.895  20.763  0.00  0.00    +0.000 C 
BRANCH  35  36
ATOM     36  C   UNL     1       1.105   3.690  20.428  0.00  0.00    +0.000 C 
ATOM     37  C   UNL     1       1.193   3.353  18.933  0.00  0.00    +0.000 C 
ATOM     38  C   UNL     1       1.499   2.458  21.215  0.00  0.00    +0.000 C 
ENDBRANCH  35  36
ENDBRANCH  21  35
ENDBRANCH   1  21
TORSDOF 13
ENDMDL
MODEL 5
REMARK VINA RESULT:      -8.2      1.498      2.107
REMARK  Name = 
REMARK  16 active torsions:
REMARK  status: ('A' for Active; 'I' for Inactive)
REMARK    1  A    between atoms: C_1  and  C_2
REMARK    2  A    between atoms: C_4  and  N_5
REMARK    3  A    between atoms: N_5  and  C_6
REMARK    4  A    between atoms: C_6  and  C_7
REMARK    5  A    between atoms: C_6  and  C_11
REMARK    6  A    between atoms: C_7  and  C_8
REMARK    7  A    between atoms: C_8  and  C_9
REMARK    8  A    between atoms: C_8  and  C_10
REMARK    9  A    between atoms: N_13  and  C_14
REMARK   10  A    between atoms: C_14  and  C_15
REMARK   11  A    between atoms: C_15  and  O_16
REMARK   12  A    between atoms: O_16  and  C_17
REMARK   13  A    between atoms: N_25  and  C_26
REMARK   14  A    between atoms: C_26  and  C_27
REMARK   15  A    between atoms: C_27  and  O_28
REMARK   16  A    between atoms: O_28  and  C_29
REMARK                            x       y       z     vdW  Elec       q    Type
REMARK                         _______ _______ _______ _____ _____    ______ ____
ROOT
ATOM      1  N   UNL     1       3.877   5.661  19.162  0.00  0.00    +0.000 N 
ATOM      2  H   UNL     1       4.115   4.790  19.641  0.00  0.00    +0.000 HD
ENDROOT
BRANCH   1   6
ATOM      3  C   UNL     1       5.400   4.241  14.751  0.00  0.00    +0.000 C 
ATOM      4  C   UNL     1       5.360   5.215  15.887  0.00  0.00    +0.000 A 
ATOM      5  C   UNL     1       4.451   5.068  16.904  0.00  0.00    +0.000 A 
ATOM      6  C   UNL     1       4.653   5.830  18.031  0.00  0.00    +0.000 A 
ATOM      7  N   UNL     1       5.642   6.741  18.096  0.00  0.00    +0.000 NA
ATOM      8  C   UNL     1       6.441   6.882  17.027  0.00  0.00    +0.000 A 
ATOM      9  N   UNL     1       7.533   7.740  17.035  0.00  0.00    +0.000 N 
ATOM     10  N   UNL     1       6.317   6.156  15.912  0.00  0.00    +0.000 NA
ATOM     11  H   UNL     1       7.313   8.529  16.440  0.00  0.00    +0.000 HD
BRANCH   9  12
ATOM     12  C   UNL     1       8.141   8.072  18.316  0.00  0.00    +0.000 C 
BRANCH  12  13
ATOM     13  C   UNL     1       8.489   9.567  18.369  0.00  0.00    +0.000 C 
BRANCH  13  14
ATOM     14  O   UNL     1       9.463   9.846  19.374  0.00  0.00    +0.000 OA
BRANCH  14  15
ATOM     15  C   UNL     1      10.107  11.054  19.265  0.00  0.00    +0.000 A 
ATOM     16  C   UNL     1      10.388  11.459  17.959  0.00  0.00    +0.000 A 
ATOM     17  C   UNL     1      11.008  12.687  17.715  0.00  0.00    +0.000 A 
ATOM     18  C   UNL     1      11.317  13.541  18.771  0.00  0.00    +0.000 A 
ATOM     19  C   UNL     1      11.037  13.150  20.075  0.00  0.00    +0.000 A 
ATOM     20  C   UNL     1      10.472  11.895  20.321  0.00  0.00    +0.000 A 
ENDBRANCH  14  15
ENDBRANCH  13  14
ENDBRANCH  12  13
ENDBRANCH   9  12
ENDBRANCH   1   6
BRANCH   1  21
ATOM     21  C   UNL     1       2.440   5.993  19.231  0.00  0.00    +0.000 C 
BRANCH  21  22
ATOM     22  C   UNL     1       2.256   7.528  19.263  0.00  0.00    +0.000 C 
ATOM     23  O   UNL     1       2.151   8.164  20.313  0.00  0.00    +0.000 OA
ATOM     24  N   UNL     1       2.209   8.141  18.021  0.00  0.00    +0.000 N 
ATOM     25  H   UNL     1       2.063   7.561  17.206  0.00  0.00    +0.000 HD
BRANCH  24  26
ATOM     26  C   UNL     1       1.886   9.553  17.898  0.00  0.00    +0.000 C 
BRANCH  26  27
ATOM     27  C   UNL     1       0.390   9.814  18.072  0.00  0.00    +0.000 C 
BRANCH  27  28
ATOM     28  O   UNL     1       0.180  11.206  18.305  0.00  0.00    +0.000 OA
BRANCH  28  29
ATOM     29  C   UNL     1      -0.015  11.567  19.612  0.00  0.00    +0.000 A 
ATOM     30  C   UNL     1      -0.659  10.614  20.403  0.00  0.00    +0.000 A 
ATOM     31  C   UNL     1      -0.913  10.868  21.752  0.00  0.00    +0.000 A 
ATOM     32  C   UNL     1      -0.507  12.073  22.322  0.00  0.00    +0.000 A 
ATOM     33  C   UNL     1       0.157  13.018  21.543  0.00  0.00    +0.000 A 
ATOM     34  C   UNL     1       0.405  12.767  20.191  0.00  0.00    +0.000 A 
ENDBRANCH  28  29
ENDBRANCH  27  28
ENDBRANCH  26  27
ENDBRANCH  24  26
ENDBRANCH  21  22
BRANCH  21  35
ATOM     35  C   UNL     1       1.667   5.337  20.410  0.00  0.00    +0.000 C 
BRANCH  35  36
ATOM     36  C   UNL     1       0.985   3.986  20.124  0.00  0.00    +0.000 C 
ATOM     37  C   UNL     1       1.250   3.545  18.679  0.00  0.00    +0.000 C 
ATOM     38  C   UNL     1       1.484   2.897  21.050  0.00  0.00    +0.000 C 
ENDBRANCH  35  36
ENDBRANCH  21  35
ENDBRANCH   1  21
TORSDOF 13
ENDMDL
MODEL 6
REMARK VINA RESULT:      -8.2      1.777      7.901
REMARK  Name = 
REMARK  16 active torsions:
REMARK  status: ('A' for Active; 'I' for Inactive)
REMARK    1  A    between atoms: C_1  and  C_2
REMARK    2  A    between atoms: C_4  and  N_5
REMARK    3  A    between atoms: N_5  and  C_6
REMARK    4  A    between atoms: C_6  and  C_7
REMARK    5  A    between atoms: C_6  and  C_11
REMARK    6  A    between atoms: C_7  and  C_8
REMARK    7  A    between atoms: C_8  and  C_9
REMARK    8  A    between atoms: C_8  and  C_10
REMARK    9  A    between atoms: N_13  and  C_14
REMARK   10  A    between atoms: C_14  and  C_15
REMARK   11  A    between atoms: C_15  and  O_16
REMARK   12  A    between atoms: O_16  and  C_17
REMARK   13  A    between atoms: N_25  and  C_26
REMARK   14  A    between atoms: C_26  and  C_27
REMARK   15  A    between atoms: C_27  and  O_28
REMARK   16  A    between atoms: O_28  and  C_29
REMARK                            x       y       z     vdW  Elec       q    Type
REMARK                         _______ _______ _______ _____ _____    ______ ____
ROOT
ATOM      1  N   UNL     1       4.748   5.574  18.030  0.00  0.00    +0.000 N 
ATOM      2  H   UNL     1       4.468   5.853  17.087  0.00  0.00    +0.000 HD
ENDROOT
BRANCH   1   6
ATOM      3  C   UNL     1       1.051   2.543  18.997  0.00  0.00    +0.000 C 
ATOM      4  C   UNL     1       1.903   3.732  19.311  0.00  0.00    +0.000 A 
ATOM      5  C   UNL     1       3.069   3.958  18.625  0.00  0.00    +0.000 A 
ATOM      6  C   UNL     1       3.648   5.196  18.778  0.00  0.00    +0.000 A 
ATOM      7  N   UNL     1       3.144   6.108  19.630  0.00  0.00    +0.000 NA
ATOM      8  C   UNL     1       2.045   5.779  20.327  0.00  0.00    +0.000 A 
ATOM      9  N   UNL     1       1.412   6.685  21.169  0.00  0.00    +0.000 N 
ATOM     10  N   UNL     1       1.418   4.606  20.206  0.00  0.00    +0.000 NA
ATOM     11  H   UNL     1       1.584   6.395  22.123  0.00  0.00    +0.000 HD
BRANCH   9  12
ATOM     12  C   UNL     1       1.583   8.107  20.907  0.00  0.00    +0.000 C 
BRANCH  12  13
ATOM     13  C   UNL     1       0.279   8.863  21.196  0.00  0.00    +0.000 C 
BRANCH  13  14
ATOM     14  O   UNL     1      -0.099   9.700  20.104  0.00  0.00    +0.000 OA
BRANCH  14  15
ATOM     15  C   UNL     1       0.696  10.799  19.888  0.00  0.00    +0.000 A 
ATOM     16  C   UNL     1       1.278  10.869  18.621  0.00  0.00    +0.000 A 
ATOM     17  C   UNL     1       2.079  11.957  18.266  0.00  0.00    +0.000 A 
ATOM     18  C   UNL     1       2.274  13.007  19.161  0.00  0.00    +0.000 A 
ATOM     19  C   UNL     1       1.695  12.951  20.423  0.00  0.00    +0.000 A 
ATOM     20  C   UNL     1       0.943  11.833  20.797  0.00  0.00    +0.000 A 
ENDBRANCH  14  15
ENDBRANCH  13  14
ENDBRANCH  12  13
ENDBRANCH   9  12
ENDBRANCH   1   6
BRANCH   1  21
ATOM     21  C   UNL     1       6.050   4.880  18.072  0.00  0.00    +0.000 C 
BRANCH  21  22
ATOM     22  C   UNL     1       7.081   5.745  18.833  0.00  0.00    +0.000 C 
ATOM     23  O   UNL     1       7.425   5.505  19.992  0.00  0.00    +0.000 OA
ATOM     24  N   UNL     1       7.589   6.819  18.120  0.00  0.00    +0.000 N 
ATOM     25  H   UNL     1       7.108   7.105  17.278  0.00  0.00    +0.000 HD
BRANCH  24  26
ATOM     26  C   UNL     1       8.446   7.803  18.763  0.00  0.00    +0.000 C 
BRANCH  26  27
ATOM     27  C   UNL     1       8.336   9.176  18.099  0.00  0.00    +0.000 C 
BRANCH  27  28
ATOM     28  O   UNL     1       8.541  10.190  19.082  0.00  0.00    +0.000 OA
BRANCH  28  29
ATOM     29  C   UNL     1       9.701  10.907  18.961  0.00  0.00    +0.000 A 
ATOM     30  C   UNL     1      10.288  11.299  20.166  0.00  0.00    +0.000 A 
ATOM     31  C   UNL     1      11.475  12.035  20.169  0.00  0.00    +0.000 A 
ATOM     32  C   UNL     1      12.091  12.370  18.965  0.00  0.00    +0.000 A 
ATOM     33  C   UNL     1      11.522  11.961  17.760  0.00  0.00    +0.000 A 
ATOM     34  C   UNL     1      10.331  11.230  17.756  0.00  0.00    +0.000 A 
ENDBRANCH  28  29
ENDBRANCH  27  28
ENDBRANCH  26  27
ENDBRANCH  24  26
ENDBRANCH  21  22
BRANCH  21  35
ATOM     35  C   UNL     1       6.621   4.462  16.688  0.00  0.00    +0.000 C 
BRANCH  35  36
ATOM     36  C   UNL     1       5.657   4.543  15.489  0.00  0.00    +0.000 C 
ATOM     37  C   UNL     1       5.351   6.006  15.143  0.00  0.00    +0.000 C 
ATOM     38  C   UNL     1       6.233   3.876  14.258  0.00  0.00    +0.000 C 
ENDBRANCH  35  36
ENDBRANCH  21  35
ENDBRANCH   1  21
TORSDOF 13
ENDMDL
MODEL 7
REMARK VINA RESULT:      -8.1      1.851      8.232
REMARK  Name = 
REMARK  16 active torsions:
REMARK  status: ('A' for Active; 'I' for Inactive)
REMARK    1  A    between atoms: C_1  and  C_2
REMARK    2  A    between atoms: C_4  and  N_5
REMARK    3  A    between atoms: N_5  and  C_6
REMARK    4  A    between atoms: C_6  and  C_7
REMARK    5  A    between atoms: C_6  and  C_11
REMARK    6  A    between atoms: C_7  and  C_8
REMARK    7  A    between atoms: C_8  and  C_9
REMARK    8  A    between atoms: C_8  and  C_10
REMARK    9  A    between atoms: N_13  and  C_14
REMARK   10  A    between atoms: C_14  and  C_15
REMARK   11  A    between atoms: C_15  and  O_16
REMARK   12  A    between atoms: O_16  and  C_17
REMARK   13  A    between atoms: N_25  and  C_26
REMARK   14  A    between atoms: C_26  and  C_27
REMARK   15  A    between atoms: C_27  and  O_28
REMARK   16  A    between atoms: O_28  and  C_29
REMARK                            x       y       z     vdW  Elec       q    Type
REMARK                         _______ _______ _______ _____ _____    ______ ____
ROOT
ATOM      1  N   UNL     1       4.439   6.591  17.562  0.00  0.00    +0.000 N 
ATOM      2  H   UNL     1       4.033   7.351  17.011  0.00  0.00    +0.000 HD
ENDROOT
BRANCH   1   6
ATOM      3  C   UNL     1       1.120   3.138  18.479  0.00  0.00    +0.000 C 
ATOM      4  C   UNL     1       1.931   4.331  18.875  0.00  0.00    +0.000 A 
ATOM      5  C   UNL     1       2.970   4.763  18.090  0.00  0.00    +0.000 A 
ATOM      6  C   UNL     1       3.485   6.006  18.373  0.00  0.00    +0.000 A 
ATOM      7  N   UNL     1       3.051   6.725  19.425  0.00  0.00    +0.000 NA
ATOM      8  C   UNL     1       2.086   6.196  20.194  0.00  0.00    +0.000 A 
ATOM      9  N   UNL     1       1.524   6.899  21.252  0.00  0.00    +0.000 N 
ATOM     10  N   UNL     1       1.524   5.007  19.960  0.00  0.00    +0.000 NA
ATOM     11  H   UNL     1       1.849   6.478  22.113  0.00  0.00    +0.000 HD
BRANCH   9  12
ATOM     12  C   UNL     1       1.565   8.354  21.214  0.00  0.00    +0.000 C 
BRANCH  12  13
ATOM     13  C   UNL     1       0.570   8.889  20.174  0.00  0.00    +0.000 C 
BRANCH  13  14
ATOM     14  O   UNL     1       1.216   9.703  19.196  0.00  0.00    +0.000 OA
BRANCH  14  15
ATOM     15  C   UNL     1       0.628  10.919  18.945  0.00  0.00    +0.000 A 
ATOM     16  C   UNL     1       1.517  11.983  18.784  0.00  0.00    +0.000 A 
ATOM     17  C   UNL     1       1.044  13.264  18.489  0.00  0.00    +0.000 A 
ATOM     18  C   UNL     1      -0.320  13.487  18.312  0.00  0.00    +0.000 A 
ATOM     19  C   UNL     1      -1.213  12.433  18.465  0.00  0.00    +0.000 A 
ATOM     20  C   UNL     1      -0.742  11.165  18.819  0.00  0.00    +0.000 A 
ENDBRANCH  14  15
ENDBRANCH  13  14
ENDBRANCH  12  13
ENDBRANCH   9  12
ENDBRANCH   1   6
BRANCH   1  21
ATOM     21  C   UNL     1       5.479   5.834  16.837  0.00  0.00    +0.000 C 
BRANCH  21  22
ATOM     22  C   UNL     1       6.879   6.240  17.352  0.00  0.00    +0.000 C 
ATOM     23  O   UNL     1       7.781   5.423  17.543  0.00  0.00    +0.000 OA
ATOM     24  N   UNL     1       7.047   7.594  17.594  0.00  0.00    +0.000 N 
ATOM     25  H   UNL     1       6.223   8.177  17.649  0.00  0.00    +0.000 HD
BRANCH  24  26
ATOM     26  C   UNL     1       8.257   8.095  18.227  0.00  0.00    +0.000 C 
BRANCH  26  27
ATOM     27  C   UNL     1       8.412   9.605  18.050  0.00  0.00    +0.000 C 
BRANCH  27  28
ATOM     28  O   UNL     1       8.911  10.172  19.261  0.00  0.00    +0.000 OA
BRANCH  28  29
ATOM     29  C   UNL     1       9.989  11.005  19.126  0.00  0.00    +0.000 A 
ATOM     30  C   UNL     1      10.250  11.436  17.824  0.00  0.00    +0.000 A 
ATOM     31  C   UNL     1      11.324  12.290  17.563  0.00  0.00    +0.000 A 
ATOM     32  C   UNL     1      12.134  12.730  18.608  0.00  0.00    +0.000 A 
ATOM     33  C   UNL     1      11.864  12.322  19.912  0.00  0.00    +0.000 A 
ATOM     34  C   UNL     1      10.794  11.463  20.173  0.00  0.00    +0.000 A 
ENDBRANCH  28  29
ENDBRANCH  27  28
ENDBRANCH  26  27
ENDBRANCH  24  26
ENDBRANCH  21  22
BRANCH  21  35
ATOM     35  C   UNL     1       5.424   5.955  15.288  0.00  0.00    +0.000 C 
BRANCH  35  36
ATOM     36  C   UNL     1       5.734   4.679  14.482  0.00  0.00    +0.000 C 
ATOM     37  C   UNL     1       7.088   4.807  13.773  0.00  0.00    +0.000 C 
ATOM     38  C   UNL     1       5.778   3.452  15.368  0.00  0.00    +0.000 C 
ENDBRANCH  35  36
ENDBRANCH  21  35
ENDBRANCH   1  21
TORSDOF 13
ENDMDL
MODEL 8
REMARK VINA RESULT:      -8.1      2.127      2.713
REMARK  Name = 
REMARK  16 active torsions:
REMARK  status: ('A' for Active; 'I' for Inactive)
REMARK    1  A    between atoms: C_1  and  C_2
REMARK    2  A    between atoms: C_4  and  N_5
REMARK    3  A    between atoms: N_5  and  C_6
REMARK    4  A    between atoms: C_6  and  C_7
REMARK    5  A    between atoms: C_6  and  C_11
REMARK    6  A    between atoms: C_7  and  C_8
REMARK    7  A    between atoms: C_8  and  C_9
REMARK    8  A    between atoms: C_8  and  C_10
REMARK    9  A    between atoms: N_13  and  C_14
REMARK   10  A    between atoms: C_14  and  C_15
REMARK   11  A    between atoms: C_15  and  O_16
REMARK   12  A    between atoms: O_16  and  C_17
REMARK   13  A    between atoms: N_25  and  C_26
REMARK   14  A    between atoms: C_26  and  C_27
REMARK   15  A    between atoms: C_27  and  O_28
REMARK   16  A    between atoms: O_28  and  C_29
REMARK                            x       y       z     vdW  Elec       q    Type
REMARK                         _______ _______ _______ _____ _____    ______ ____
ROOT
ATOM      1  N   UNL     1       3.971   5.170  18.571  0.00  0.00    +0.000 N 
ATOM      2  H   UNL     1       4.130   4.255  18.999  0.00  0.00    +0.000 HD
ENDROOT
BRANCH   1   6
ATOM      3  C   UNL     1       6.016   3.833  14.350  0.00  0.00    +0.000 C 
ATOM      4  C   UNL     1       5.803   4.806  15.467  0.00  0.00    +0.000 A 
ATOM      5  C   UNL     1       4.806   4.606  16.388  0.00  0.00    +0.000 A 
ATOM      6  C   UNL     1       4.846   5.383  17.522  0.00  0.00    +0.000 A 
ATOM      7  N   UNL     1       5.767   6.352  17.680  0.00  0.00    +0.000 NA
ATOM      8  C   UNL     1       6.660   6.538  16.695  0.00  0.00    +0.000 A 
ATOM      9  N   UNL     1       7.692   7.461  16.806  0.00  0.00    +0.000 N 
ATOM     10  N   UNL     1       6.694   5.803  15.580  0.00  0.00    +0.000 NA
ATOM     11  H   UNL     1       7.487   8.234  16.185  0.00  0.00    +0.000 HD
BRANCH   9  12
ATOM     12  C   UNL     1       8.145   7.834  18.139  0.00  0.00    +0.000 C 
BRANCH  12  13
ATOM     13  C   UNL     1       8.100   9.359  18.311  0.00  0.00    +0.000 C 
BRANCH  13  14
ATOM     14  O   UNL     1       9.263   9.986  17.772  0.00  0.00    +0.000 OA
BRANCH  14  15
ATOM     15  C   UNL     1       9.652  11.152  18.383  0.00  0.00    +0.000 A 
ATOM     16  C   UNL     1       9.096  12.315  17.847  0.00  0.00    +0.000 A 
ATOM     17  C   UNL     1       9.385  13.563  18.405  0.00  0.00    +0.000 A 
ATOM     18  C   UNL     1      10.204  13.658  19.528  0.00  0.00    +0.000 A 
ATOM     19  C   UNL     1      10.759  12.506  20.073  0.00  0.00    +0.000 A 
ATOM     20  C   UNL     1      10.515  11.265  19.477  0.00  0.00    +0.000 A 
ENDBRANCH  14  15
ENDBRANCH  13  14
ENDBRANCH  12  13
ENDBRANCH   9  12
ENDBRANCH   1   6
BRANCH   1  21
ATOM     21  C   UNL     1       2.548   5.566  18.548  0.00  0.00    +0.000 C 
BRANCH  21  22
ATOM     22  C   UNL     1       2.408   7.045  18.977  0.00  0.00    +0.000 C 
ATOM     23  O   UNL     1       2.368   7.394  20.158  0.00  0.00    +0.000 OA
ATOM     24  N   UNL     1       2.324   7.954  17.935  0.00  0.00    +0.000 N 
ATOM     25  H   UNL     1       2.126   7.603  17.008  0.00  0.00    +0.000 HD
BRANCH  24  26
ATOM     26  C   UNL     1       2.034   9.356  18.190  0.00  0.00    +0.000 C 
BRANCH  26  27
ATOM     27  C   UNL     1       0.591   9.568  18.647  0.00  0.00    +0.000 C 
BRANCH  27  28
ATOM     28  O   UNL     1      -0.243   9.747  17.502  0.00  0.00    +0.000 OA
BRANCH  28  29
ATOM     29  C   UNL     1      -1.481  10.277  17.748  0.00  0.00    +0.000 A 
ATOM     30  C   UNL     1      -1.502  11.360  18.628  0.00  0.00    +0.000 A 
ATOM     31  C   UNL     1      -2.708  11.984  18.955  0.00  0.00    +0.000 A 
ATOM     32  C   UNL     1      -3.900  11.536  18.389  0.00  0.00    +0.000 A 
ATOM     33  C   UNL     1      -3.882  10.470  17.492  0.00  0.00    +0.000 A 
ATOM     34  C   UNL     1      -2.677   9.841  17.170  0.00  0.00    +0.000 A 
ENDBRANCH  28  29
ENDBRANCH  27  28
ENDBRANCH  26  27
ENDBRANCH  24  26
ENDBRANCH  21  22
BRANCH  21  35
ATOM     35  C   UNL     1       1.601   4.671  19.396  0.00  0.00    +0.000 C 
BRANCH  35  36
ATOM     36  C   UNL     1       2.188   3.349  19.926  0.00  0.00    +0.000 C 
ATOM     37  C   UNL     1       1.767   3.120  21.384  0.00  0.00    +0.000 C 
ATOM     38  C   UNL     1       1.726   2.161  19.108  0.00  0.00    +0.000 C 
ENDBRANCH  35  36
ENDBRANCH  21  35
ENDBRANCH   1  21
TORSDOF 13
ENDMDL
MODEL 9
REMARK VINA RESULT:      -8.0      2.086      8.584
REMARK  Name = 
REMARK  16 active torsions:
REMARK  status: ('A' for Active; 'I' for Inactive)
REMARK    1  A    between atoms: C_1  and  C_2
REMARK    2  A    between atoms: C_4  and  N_5
REMARK    3  A    between atoms: N_5  and  C_6
REMARK    4  A    between atoms: C_6  and  C_7
REMARK    5  A    between atoms: C_6  and  C_11
REMARK    6  A    between atoms: C_7  and  C_8
REMARK    7  A    between atoms: C_8  and  C_9
REMARK    8  A    between atoms: C_8  and  C_10
REMARK    9  A    between atoms: N_13  and  C_14
REMARK   10  A    between atoms: C_14  and  C_15
REMARK   11  A    between atoms: C_15  and  O_16
REMARK   12  A    between atoms: O_16  and  C_17
REMARK   13  A    between atoms: N_25  and  C_26
REMARK   14  A    between atoms: C_26  and  C_27
REMARK   15  A    between atoms: C_27  and  O_28
REMARK   16  A    between atoms: O_28  and  C_29
REMARK                            x       y       z     vdW  Elec       q    Type
REMARK                         _______ _______ _______ _____ _____    ______ ____
ROOT
ATOM      1  N   UNL     1       4.402   4.363  17.072  0.00  0.00    +0.000 N 
ATOM      2  H   UNL     1       4.136   3.392  16.892  0.00  0.00    +0.000 HD
ENDROOT
BRANCH   1   6
ATOM      3  C   UNL     1       2.109   3.745  21.331  0.00  0.00    +0.000 C 
ATOM      4  C   UNL     1       2.690   4.606  20.255  0.00  0.00    +0.000 A 
ATOM      5  C   UNL     1       3.472   4.062  19.268  0.00  0.00    +0.000 A 
ATOM      6  C   UNL     1       3.739   4.858  18.179  0.00  0.00    +0.000 A 
ATOM      7  N   UNL     1       3.328   6.138  18.126  0.00  0.00    +0.000 NA
ATOM      8  C   UNL     1       2.636   6.622  19.169  0.00  0.00    +0.000 A 
ATOM      9  N   UNL     1       2.106   7.906  19.167  0.00  0.00    +0.000 N 
ATOM     10  N   UNL     1       2.320   5.896  20.245  0.00  0.00    +0.000 NA
ATOM     11  H   UNL     1       2.646   8.467  19.813  0.00  0.00    +0.000 HD
BRANCH   9  12
ATOM     12  C   UNL     1       1.820   8.532  17.884  0.00  0.00    +0.000 C 
BRANCH  12  13
ATOM     13  C   UNL     1       1.321   9.969  18.091  0.00  0.00    +0.000 C 
BRANCH  13  14
ATOM     14  O   UNL     1       0.230  10.022  19.009  0.00  0.00    +0.000 OA
BRANCH  14  15
ATOM     15  C   UNL     1      -0.987  10.369  18.475  0.00  0.00    +0.000 A 
ATOM     16  C   UNL     1      -1.684  11.351  19.181  0.00  0.00    +0.000 A 
ATOM     17  C   UNL     1      -2.918  11.816  18.719  0.00  0.00    +0.000 A 
ATOM     18  C   UNL     1      -3.449  11.333  17.525  0.00  0.00    +0.000 A 
ATOM     19  C   UNL     1      -2.761  10.359  16.811  0.00  0.00    +0.000 A 
ATOM     20  C   UNL     1      -1.555   9.853  17.306  0.00  0.00    +0.000 A 
ENDBRANCH  14  15
ENDBRANCH  13  14
ENDBRANCH  12  13
ENDBRANCH   9  12
ENDBRANCH   1   6
BRANCH   1  21
ATOM     21  C   UNL     1       5.818   4.649  16.764  0.00  0.00    +0.000 C 
BRANCH  21  22
ATOM     22  C   UNL     1       6.015   6.170  16.567  0.00  0.00    +0.000 C 
ATOM     23  O   UNL     1       5.333   6.834  15.786  0.00  0.00    +0.000 OA
ATOM     24  N   UNL     1       7.024   6.736  17.330  0.00  0.00    +0.000 N 
ATOM     25  H   UNL     1       7.697   6.120  17.767  0.00  0.00    +0.000 HD
BRANCH  24  26
ATOM     26  C   UNL     1       7.422   8.120  17.133  0.00  0.00    +0.000 C 
BRANCH  26  27
ATOM     27  C   UNL     1       8.355   8.610  18.239  0.00  0.00    +0.000 C 
BRANCH  27  28
ATOM     28  O   UNL     1       8.217  10.023  18.380  0.00  0.00    +0.000 OA
BRANCH  28  29
ATOM     29  C   UNL     1       9.352  10.697  18.746  0.00  0.00    +0.000 A 
ATOM     30  C   UNL     1       9.518  10.881  20.120  0.00  0.00    +0.000 A 
ATOM     31  C   UNL     1      10.638  11.554  20.615  0.00  0.00    +0.000 A 
ATOM     32  C   UNL     1      11.606  12.033  19.735  0.00  0.00    +0.000 A 
ATOM     33  C   UNL     1      11.457  11.832  18.365  0.00  0.00    +0.000 A 
ATOM     34  C   UNL     1      10.334  11.165  17.870  0.00  0.00    +0.000 A 
ENDBRANCH  28  29
ENDBRANCH  27  28
ENDBRANCH  26  27
ENDBRANCH  24  26
ENDBRANCH  21  22
BRANCH  21  35
ATOM     35  C   UNL     1       6.398   3.873  15.548  0.00  0.00    +0.000 C 
BRANCH  35  36
ATOM     36  C   UNL     1       6.192   4.507  14.159  0.00  0.00    +0.000 C 
ATOM     37  C   UNL     1       7.523   5.029  13.604  0.00  0.00    +0.000 C 
ATOM     38  C   UNL     1       5.622   3.514  13.168  0.00  0.00    +0.000 C 
ENDBRANCH  35  36
ENDBRANCH  21  35
ENDBRANCH   1  21
TORSDOF 13
ENDMDL
