MODEL 1
REMARK VINA RESULT:      -7.8      0.000      0.000
REMARK  Name = 
REMARK  8 active torsions:
REMARK  status: ('A' for Active; 'I' for Inactive)
REMARK    1  A    between atoms: N_1  and  S_2
REMARK    2  A    between atoms: S_2  and  C_5
REMARK    3  A    between atoms: C_9  and  C_10
REMARK    4  A    between atoms: N_12  and  C_13
REMARK    5  A    between atoms: C_13  and  C_14
REMARK    6  A    between atoms: C_14  and  O_15
REMARK    7  A    between atoms: C_14  and  C_16
REMARK    8  A    between atoms: C_16  and  N_17
REMARK                            x       y       z     vdW  Elec       q    Type
REMARK                         _______ _______ _______ _____ _____    ______ ____
ROOT
ATOM      1  C   UNL     1       1.948   4.962  20.495  0.00  0.00    +0.000 C 
ATOM      2  O   UNL     1       2.240   4.650  21.647  0.00  0.00    +0.000 OA
ATOM      3  N   UNL     1       1.772   4.009  19.507  0.00  0.00    +0.000 N 
ATOM      4  H   UNL     1       1.710   4.266  18.532  0.00  0.00    +0.000 HD
ENDROOT
BRANCH   1   9
ATOM      5  C   UNL     1       1.240   8.720  20.638  0.00  0.00    +0.000 A 
ATOM      6  C   UNL     1       1.572   9.121  19.346  0.00  0.00    +0.000 A 
ATOM      7  C   UNL     1       2.035   8.170  18.440  0.00  0.00    +0.000 A 
ATOM      8  C   UNL     1       2.137   6.831  18.840  0.00  0.00    +0.000 A 
ATOM      9  C   UNL     1       1.792   6.417  20.147  0.00  0.00    +0.000 A 
ATOM     10  C   UNL     1       1.342   7.390  21.051  0.00  0.00    +0.000 A 
BRANCH   5  11
ATOM     11  S   UNL     1       0.624   9.955  21.756  0.00  0.00    +0.000 S 
ATOM     12  O   UNL     1       1.203   9.741  23.066  0.00  0.00    +0.000 OA
ATOM     13  O   UNL     1      -0.792  10.116  21.568  0.00  0.00    +0.000 OA
BRANCH  11  14
ATOM     14  N   UNL     1       1.331  11.356  21.144  0.00  0.00    +0.000 NA
ATOM     15  H   UNL     1       1.520  11.225  20.145  0.00  0.00    +0.000 HD
ATOM     16  H   UNL     1       2.154  11.614  21.689  0.00  0.00    +0.000 HD
ENDBRANCH  11  14
ENDBRANCH   5  11
ENDBRANCH   1   9
BRANCH   3  17
ATOM     17  C   UNL     1       1.985   2.583  19.797  0.00  0.00    +0.000 C 
BRANCH  17  18
ATOM     18  C   UNL     1       2.703   1.834  18.653  0.00  0.00    +0.000 C 
BRANCH  18  19
ATOM     19  O   UNL     1       1.886   1.929  17.474  0.00  0.00    +0.000 OA
ATOM     20  H   UNL     1       2.358   1.475  16.753  0.00  0.00    +0.000 HD
ENDBRANCH  18  19
BRANCH  18  21
ATOM     21  C   UNL     1       4.161   2.369  18.386  0.00  0.00    +0.000 C 
BRANCH  21  22
ATOM     22  N   UNL     1       4.268   3.835  18.205  0.00  0.00    +0.000 NA
ATOM     23  C   UNL     1       4.721   4.220  16.859  0.00  0.00    +0.000 C 
ATOM     24  C   UNL     1       4.645   5.750  16.733  0.00  0.00    +0.000 C 
ATOM     25  C   UNL     1       5.788   6.267  17.558  0.00  0.00    +0.000 A 
ATOM     26  C   UNL     1       6.649   7.249  17.058  0.00  0.00    +0.000 A 
ATOM     27  C   UNL     1       7.884   7.439  17.664  0.00  0.00    +0.000 A 
ATOM     28  C   UNL     1       8.228   6.683  18.787  0.00  0.00    +0.000 A 
ATOM     29  C   UNL     1       7.315   5.779  19.354  0.00  0.00    +0.000 A 
ATOM     30  C   UNL     1       6.076   5.562  18.744  0.00  0.00    +0.000 A 
ATOM     31  C   UNL     1       5.035   4.558  19.262  0.00  0.00    +0.000 C 
ENDBRANCH  21  22
ENDBRANCH  18  21
ENDBRANCH  17  18
ENDBRANCH   3  17
TORSDOF 8
ENDMDL
MODEL 2
REMARK VINA RESULT:      -7.5      3.725      8.195
REMARK  Name = 
REMARK  8 active torsions:
REMARK  status: ('A' for Active; 'I' for Inactive)
REMARK    1  A    between atoms: N_1  and  S_2
REMARK    2  A    between atoms: S_2  and  C_5
REMARK    3  A    between atoms: C_9  and  C_10
REMARK    4  A    between atoms: N_12  and  C_13
REMARK    5  A    between atoms: C_13  and  C_14
REMARK    6  A    between atoms: C_14  and  O_15
REMARK    7  A    between atoms: C_14  and  C_16
REMARK    8  A    between atoms: C_16  and  N_17
REMARK                            x       y       z     vdW  Elec       q    Type
REMARK                         _______ _______ _______ _____ _____    ______ ____
ROOT
ATOM      1  C   UNL     1       1.652   6.929  20.399  0.00  0.00    +0.000 C 
ATOM      2  O   UNL     1       1.182   5.925  20.929  0.00  0.00    +0.000 OA
ATOM      3  N   UNL     1       1.195   8.197  20.713  0.00  0.00    +0.000 N 
ATOM      4  H   UNL     1       1.449   9.001  20.156  0.00  0.00    +0.000 HD
ENDROOT
BRANCH   1   9
ATOM      5  C   UNL     1       4.768   5.796  18.487  0.00  0.00    +0.000 A 
ATOM      6  C   UNL     1       4.700   6.584  17.341  0.00  0.00    +0.000 A 
ATOM      7  C   UNL     1       3.635   7.469  17.190  0.00  0.00    +0.000 A 
ATOM      8  C   UNL     1       2.670   7.564  18.201  0.00  0.00    +0.000 A 
ATOM      9  C   UNL     1       2.740   6.773  19.372  0.00  0.00    +0.000 A 
ATOM     10  C   UNL     1       3.811   5.877  19.501  0.00  0.00    +0.000 A 
BRANCH   5  11
ATOM     11  S   UNL     1       6.156   4.701  18.659  0.00  0.00    +0.000 S 
ATOM     12  O   UNL     1       6.957   5.124  19.790  0.00  0.00    +0.000 OA
ATOM     13  O   UNL     1       6.736   4.448  17.368  0.00  0.00    +0.000 OA
BRANCH  11  14
ATOM     14  N   UNL     1       5.406   3.264  19.115  0.00  0.00    +0.000 NA
ATOM     15  H   UNL     1       4.494   3.481  19.529  0.00  0.00    +0.000 HD
ATOM     16  H   UNL     1       6.014   2.716  19.723  0.00  0.00    +0.000 HD
ENDBRANCH  11  14
ENDBRANCH   5  11
ENDBRANCH   1   9
BRANCH   3  17
ATOM     17  C   UNL     1       0.086   8.380  21.660  0.00  0.00    +0.000 C 
BRANCH  17  18
ATOM     18  C   UNL     1       0.020   9.807  22.247  0.00  0.00    +0.000 C 
BRANCH  18  19
ATOM     19  O   UNL     1       0.581   9.773  23.570  0.00  0.00    +0.000 OA
ATOM     20  H   UNL     1       1.033   8.917  23.675  0.00  0.00    +0.000 HD
ENDBRANCH  18  19
BRANCH  18  21
ATOM     21  C   UNL     1       0.742  10.878  21.344  0.00  0.00    +0.000 C 
BRANCH  21  22
ATOM     22  N   UNL     1      -0.142  11.611  20.410  0.00  0.00    +0.000 NA
ATOM     23  C   UNL     1      -1.535  11.696  20.878  0.00  0.00    +0.000 C 
ATOM     24  C   UNL     1      -2.321  12.604  19.920  0.00  0.00    +0.000 C 
ATOM     25  C   UNL     1      -2.507  11.788  18.672  0.00  0.00    +0.000 A 
ATOM     26  C   UNL     1      -3.756  11.701  18.051  0.00  0.00    +0.000 A 
ATOM     27  C   UNL     1      -3.992  10.675  17.146  0.00  0.00    +0.000 A 
ATOM     28  C   UNL     1      -2.968   9.776  16.836  0.00  0.00    +0.000 A 
ATOM     29  C   UNL     1      -1.682   9.936  17.376  0.00  0.00    +0.000 A 
ATOM     30  C   UNL     1      -1.434  10.951  18.304  0.00  0.00    +0.000 A 
ATOM     31  C   UNL     1      -0.075  11.171  18.985  0.00  0.00    +0.000 C 
ENDBRANCH  21  22
ENDBRANCH  18  21
ENDBRANCH  17  18
ENDBRANCH   3  17
TORSDOF 8
ENDMDL
MODEL 3
REMARK VINA RESULT:      -7.5      4.943      7.150
REMARK  Name = 
REMARK  8 active torsions:
REMARK  status: ('A' for Active; 'I' for Inactive)
REMARK    1  A    between atoms: N_1  and  S_2
REMARK    2  A    between atoms: S_2  and  C_5
REMARK    3  A    between atoms: C_9  and  C_10
REMARK    4  A    between atoms: N_12  and  C_13
REMARK    5  A    between atoms: C_13  and  C_14
REMARK    6  A    between atoms: C_14  and  O_15
REMARK    7  A    between atoms: C_14  and  C_16
REMARK    8  A    between atoms: C_16  and  N_17
REMARK                            x       y       z     vdW  Elec       q    Type
REMARK                         _______ _______ _______ _____ _____    ______ ____
ROOT
ATOM      1  C   UNL     1       8.177   8.225  18.120  0.00  0.00    +0.000 C 
ATOM      2  O   UNL     1       8.634   7.454  18.961  0.00  0.00    +0.000 OA
ATOM      3  N   UNL     1       7.402   7.774  17.066  0.00  0.00    +0.000 N 
ATOM      4  H   UNL     1       7.177   8.373  16.284  0.00  0.00    +0.000 HD
ENDROOT
BRANCH   1   9
ATOM      5  C   UNL     1       9.591  11.615  19.195  0.00  0.00    +0.000 A 
ATOM      6  C   UNL     1       8.955  12.482  18.309  0.00  0.00    +0.000 A 
ATOM      7  C   UNL     1       8.081  11.958  17.360  0.00  0.00    +0.000 A 
ATOM      8  C   UNL     1       7.843  10.577  17.330  0.00  0.00    +0.000 A 
ATOM      9  C   UNL     1       8.478   9.694  18.234  0.00  0.00    +0.000 A 
ATOM     10  C   UNL     1       9.367  10.237  19.174  0.00  0.00    +0.000 A 
BRANCH   5  11
ATOM     11  S   UNL     1      10.675  12.322  20.411  0.00  0.00    +0.000 S 
ATOM     12  O   UNL     1      10.601  13.767  20.330  0.00  0.00    +0.000 OA
ATOM     13  O   UNL     1      11.931  11.624  20.405  0.00  0.00    +0.000 OA
BRANCH  11  14
ATOM     14  N   UNL     1       9.913  11.884  21.848  0.00  0.00    +0.000 NA
ATOM     15  H   UNL     1       8.900  11.988  21.733  0.00  0.00    +0.000 HD
ATOM     16  H   UNL     1      10.294  12.410  22.634  0.00  0.00    +0.000 HD
ENDBRANCH  11  14
ENDBRANCH   5  11
ENDBRANCH   1   9
BRANCH   3  17
ATOM     17  C   UNL     1       7.146   6.338  16.886  0.00  0.00    +0.000 C 
BRANCH  17  18
ATOM     18  C   UNL     1       5.678   6.026  16.518  0.00  0.00    +0.000 C 
BRANCH  18  19
ATOM     19  O   UNL     1       5.289   6.905  15.449  0.00  0.00    +0.000 OA
ATOM     20  H   UNL     1       4.831   6.367  14.780  0.00  0.00    +0.000 HD
ENDBRANCH  18  19
BRANCH  18  21
ATOM     21  C   UNL     1       5.448   4.515  16.132  0.00  0.00    +0.000 C 
BRANCH  21  22
ATOM     22  N   UNL     1       4.775   3.698  17.168  0.00  0.00    +0.000 NA
ATOM     23  C   UNL     1       3.430   3.253  16.771  0.00  0.00    +0.000 C 
ATOM     24  C   UNL     1       2.893   2.292  17.843  0.00  0.00    +0.000 C 
ATOM     25  C   UNL     1       2.551   3.165  19.016  0.00  0.00    +0.000 A 
ATOM     26  C   UNL     1       1.329   3.028  19.680  0.00  0.00    +0.000 A 
ATOM     27  C   UNL     1       0.883   4.059  20.496  0.00  0.00    +0.000 A 
ATOM     28  C   UNL     1       1.679   5.193  20.677  0.00  0.00    +0.000 A 
ATOM     29  C   UNL     1       2.956   5.276  20.098  0.00  0.00    +0.000 A 
ATOM     30  C   UNL     1       3.411   4.255  19.258  0.00  0.00    +0.000 A 
ATOM     31  C   UNL     1       4.769   4.282  18.542  0.00  0.00    +0.000 C 
ENDBRANCH  21  22
ENDBRANCH  18  21
ENDBRANCH  17  18
ENDBRANCH   3  17
TORSDOF 8
ENDMDL
MODEL 4
REMARK VINA RESULT:      -7.5      5.415      7.822
REMARK  Name = 
REMARK  8 active torsions:
REMARK  status: ('A' for Active; 'I' for Inactive)
REMARK    1  A    between atoms: N_1  and  S_2
REMARK    2  A    between atoms: S_2  and  C_5
REMARK    3  A    between atoms: C_9  and  C_10
REMARK    4  A    between atoms: N_12  and  C_13
REMARK    5  A    between atoms: C_13  and  C_14
REMARK    6  A    between atoms: C_14  and  O_15
REMARK    7  A    between atoms: C_14  and  C_16
REMARK    8  A    between atoms: C_16  and  N_17
REMARK                            x       y       z     vdW  Elec       q    Type
REMARK                         _______ _______ _______ _____ _____    ______ ____
ROOT
ATOM      1  C   UNL     1       8.980  10.042  18.638  0.00  0.00    +0.000 C 
ATOM      2  O   UNL     1       9.170   9.658  19.791  0.00  0.00    +0.000 OA
ATOM      3  N   UNL     1       8.340   9.246  17.704  0.00  0.00    +0.000 N 
ATOM      4  H   UNL     1       8.342   9.482  16.722  0.00  0.00    +0.000 HD
ENDROOT
BRANCH   1   9
ATOM      5  C   UNL     1       9.249  13.797  17.953  0.00  0.00    +0.000 A 
ATOM      6  C   UNL     1      10.539  13.900  17.438  0.00  0.00    +0.000 A 
ATOM      7  C   UNL     1      11.318  12.751  17.327  0.00  0.00    +0.000 A 
ATOM      8  C   UNL     1      10.781  11.516  17.716  0.00  0.00    +0.000 A 
ATOM      9  C   UNL     1       9.469  11.405  18.231  0.00  0.00    +0.000 A 
ATOM     10  C   UNL     1       8.704  12.574  18.349  0.00  0.00    +0.000 A 
BRANCH   5  11
ATOM     11  S   UNL     1       8.275  15.279  18.051  0.00  0.00    +0.000 S 
ATOM     12  O   UNL     1       6.943  15.006  17.549  0.00  0.00    +0.000 OA
ATOM     13  O   UNL     1       9.048  16.399  17.586  0.00  0.00    +0.000 OA
BRANCH  11  14
ATOM     14  N   UNL     1       8.126  15.485  19.715  0.00  0.00    +0.000 NA
ATOM     15  H   UNL     1       8.600  16.351  19.989  0.00  0.00    +0.000 HD
ATOM     16  H   UNL     1       8.460  14.659  20.213  0.00  0.00    +0.000 HD
ENDBRANCH  11  14
ENDBRANCH   5  11
ENDBRANCH   1   9
BRANCH   3  17
ATOM     17  C   UNL     1       7.912   7.883  18.050  0.00  0.00    +0.000 C 
BRANCH  17  18
ATOM     18  C   UNL     1       6.935   7.275  17.019  0.00  0.00    +0.000 C 
BRANCH  18  19
ATOM     19  O   UNL     1       7.500   6.043  16.540  0.00  0.00    +0.000 OA
ATOM     20  H   UNL     1       7.214   5.929  15.617  0.00  0.00    +0.000 HD
ENDBRANCH  18  19
BRANCH  18  21
ATOM     21  C   UNL     1       5.486   7.056  17.599  0.00  0.00    +0.000 C 
BRANCH  21  22
ATOM     22  N   UNL     1       5.136   5.649  17.899  0.00  0.00    +0.000 NA
ATOM     23  C   UNL     1       4.321   5.018  16.849  0.00  0.00    +0.000 C 
ATOM     24  C   UNL     1       4.151   3.529  17.185  0.00  0.00    +0.000 C 
ATOM     25  C   UNL     1       3.181   3.495  18.332  0.00  0.00    +0.000 A 
ATOM     26  C   UNL     1       2.098   2.612  18.331  0.00  0.00    +0.000 A 
ATOM     27  C   UNL     1       1.033   2.846  19.189  0.00  0.00    +0.000 A 
ATOM     28  C   UNL     1       1.079   3.929  20.072  0.00  0.00    +0.000 A 
ATOM     29  C   UNL     1       2.219   4.746  20.149  0.00  0.00    +0.000 A 
ATOM     30  C   UNL     1       3.291   4.535  19.277  0.00  0.00    +0.000 A 
ATOM     31  C   UNL     1       4.555   5.407  19.253  0.00  0.00    +0.000 C 
ENDBRANCH  21  22
ENDBRANCH  18  21
ENDBRANCH  17  18
ENDBRANCH   3  17
TORSDOF 8
ENDMDL
MODEL 5
REMARK VINA RESULT:      -7.4      4.785      8.357
REMARK  Name = 
REMARK  8 active torsions:
REMARK  status: ('A' for Active; 'I' for Inactive)
REMARK    1  A    between atoms: N_1  and  S_2
REMARK    2  A    between atoms: S_2  and  C_5
REMARK    3  A    between atoms: C_9  and  C_10
REMARK    4  A    between atoms: N_12  and  C_13
REMARK    5  A    between atoms: C_13  and  C_14
REMARK    6  A    between atoms: C_14  and  O_15
REMARK    7  A    between atoms: C_14  and  C_16
REMARK    8  A    between atoms: C_16  and  N_17
REMARK                            x       y       z     vdW  Elec       q    Type
REMARK                         _______ _______ _______ _____ _____    ______ ____
ROOT
ATOM      1  C   UNL     1       2.561   6.728  19.072  0.00  0.00    +0.000 C 
ATOM      2  O   UNL     1       2.181   6.394  20.192  0.00  0.00    +0.000 OA
ATOM      3  N   UNL     1       2.265   7.973  18.546  0.00  0.00    +0.000 N 
ATOM      4  H   UNL     1       2.419   8.182  17.569  0.00  0.00    +0.000 HD
ENDROOT
BRANCH   1   9
ATOM      5  C   UNL     1       5.369   4.957  17.168  0.00  0.00    +0.000 A 
ATOM      6  C   UNL     1       4.721   3.814  16.704  0.00  0.00    +0.000 A 
ATOM      7  C   UNL     1       3.380   3.620  17.023  0.00  0.00    +0.000 A 
ATOM      8  C   UNL     1       2.706   4.586  17.784  0.00  0.00    +0.000 A 
ATOM      9  C   UNL     1       3.357   5.752  18.249  0.00  0.00    +0.000 A 
ATOM     10  C   UNL     1       4.712   5.924  17.931  0.00  0.00    +0.000 A 
BRANCH   5  11
ATOM     11  S   UNL     1       7.072   5.185  16.716  0.00  0.00    +0.000 S 
ATOM     12  O   UNL     1       7.417   6.585  16.857  0.00  0.00    +0.000 OA
ATOM     13  O   UNL     1       7.357   4.449  15.514  0.00  0.00    +0.000 OA
BRANCH  11  14
ATOM     14  N   UNL     1       7.869   4.368  17.954  0.00  0.00    +0.000 NA
ATOM     15  H   UNL     1       8.192   5.049  18.648  0.00  0.00    +0.000 HD
ATOM     16  H   UNL     1       8.612   3.779  17.579  0.00  0.00    +0.000 HD
ENDBRANCH  11  14
ENDBRANCH   5  11
ENDBRANCH   1   9
BRANCH   3  17
ATOM     17  C   UNL     1       1.431   8.923  19.296  0.00  0.00    +0.000 C 
BRANCH  17  18
ATOM     18  C   UNL     1       1.515  10.365  18.749  0.00  0.00    +0.000 C 
BRANCH  18  19
ATOM     19  O   UNL     1       1.815  10.294  17.344  0.00  0.00    +0.000 OA
ATOM     20  H   UNL     1       1.450  11.093  16.926  0.00  0.00    +0.000 HD
ENDBRANCH  18  19
BRANCH  18  21
ATOM     21  C   UNL     1       0.207  11.202  19.015  0.00  0.00    +0.000 C 
BRANCH  21  22
ATOM     22  N   UNL     1       0.431  12.620  19.378  0.00  0.00    +0.000 NA
ATOM     23  C   UNL     1      -0.266  13.563  18.488  0.00  0.00    +0.000 C 
ATOM     24  C   UNL     1      -0.095  14.984  19.045  0.00  0.00    +0.000 C 
ATOM     25  C   UNL     1       1.333  15.349  18.756  0.00  0.00    +0.000 A 
ATOM     26  C   UNL     1       1.658  16.585  18.192  0.00  0.00    +0.000 A 
ATOM     27  C   UNL     1       2.903  16.753  17.600  0.00  0.00    +0.000 A 
ATOM     28  C   UNL     1       3.826  15.703  17.617  0.00  0.00    +0.000 A 
ATOM     29  C   UNL     1       3.536  14.503  18.285  0.00  0.00    +0.000 A 
ATOM     30  C   UNL     1       2.281  14.311  18.868  0.00  0.00    +0.000 A 
ATOM     31  C   UNL     1       1.857  13.014  19.575  0.00  0.00    +0.000 C 
ENDBRANCH  21  22
ENDBRANCH  18  21
ENDBRANCH  17  18
ENDBRANCH   3  17
TORSDOF 8
ENDMDL
MODEL 6
REMARK VINA RESULT:      -7.4      4.650      9.185
REMARK  Name = 
REMARK  8 active torsions:
REMARK  status: ('A' for Active; 'I' for Inactive)
REMARK    1  A    between atoms: N_1  and  S_2
REMARK    2  A    between atoms: S_2  and  C_5
REMARK    3  A    between atoms: C_9  and  C_10
REMARK    4  A    between atoms: N_12  and  C_13
REMARK    5  A    between atoms: C_13  and  C_14
REMARK    6  A    between atoms: C_14  and  O_15
REMARK    7  A    between atoms: C_14  and  C_16
REMARK    8  A    between atoms: C_16  and  N_17
REMARK                            x       y       z     vdW  Elec       q    Type
REMARK                         _______ _______ _______ _____ _____    ______ ____
ROOT
ATOM      1  C   UNL     1       2.589   6.648  19.110  0.00  0.00    +0.000 C 
ATOM      2  O   UNL     1       2.149   6.217  20.173  0.00  0.00    +0.000 OA
ATOM      3  N   UNL     1       2.346   7.946  18.696  0.00  0.00    +0.000 N 
ATOM      4  H   UNL     1       2.550   8.245  17.753  0.00  0.00    +0.000 HD
ENDROOT
BRANCH   1   9
ATOM      5  C   UNL     1       5.390   5.100  17.011  0.00  0.00    +0.000 A 
ATOM      6  C   UNL     1       4.804   3.910  16.589  0.00  0.00    +0.000 A 
ATOM      7  C   UNL     1       3.507   3.611  16.999  0.00  0.00    +0.000 A 
ATOM      8  C   UNL     1       2.813   4.521  17.807  0.00  0.00    +0.000 A 
ATOM      9  C   UNL     1       3.401   5.737  18.230  0.00  0.00    +0.000 A 
ATOM     10  C   UNL     1       4.713   6.015  17.820  0.00  0.00    +0.000 A 
BRANCH   5  11
ATOM     11  S   UNL     1       7.034   5.462  16.443  0.00  0.00    +0.000 S 
ATOM     12  O   UNL     1       7.927   4.403  16.869  0.00  0.00    +0.000 OA
ATOM     13  O   UNL     1       7.333   6.848  16.676  0.00  0.00    +0.000 OA
BRANCH  11  14
ATOM     14  N   UNL     1       6.864   5.302  14.776  0.00  0.00    +0.000 NA
ATOM     15  H   UNL     1       6.260   4.499  14.577  0.00  0.00    +0.000 HD
ATOM     16  H   UNL     1       7.777   5.253  14.322  0.00  0.00    +0.000 HD
ENDBRANCH  11  14
ENDBRANCH   5  11
ENDBRANCH   1   9
BRANCH   3  17
ATOM     17  C   UNL     1       1.498   8.841  19.499  0.00  0.00    +0.000 C 
BRANCH  17  18
ATOM     18  C   UNL     1       1.231  10.199  18.812  0.00  0.00    +0.000 C 
BRANCH  18  19
ATOM     19  O   UNL     1       1.625  10.088  17.434  0.00  0.00    +0.000 OA
ATOM     20  H   UNL     1       0.813  10.060  16.899  0.00  0.00    +0.000 HD
ENDBRANCH  18  19
BRANCH  18  21
ATOM     21  C   UNL     1      -0.266  10.672  18.945  0.00  0.00    +0.000 C 
BRANCH  21  22
ATOM     22  N   UNL     1      -0.539  11.577  20.085  0.00  0.00    +0.000 NA
ATOM     23  C   UNL     1      -0.694  10.866  21.364  0.00  0.00    +0.000 C 
ATOM     24  C   UNL     1      -0.816  11.902  22.492  0.00  0.00    +0.000 C 
ATOM     25  C   UNL     1      -2.192  12.485  22.341  0.00  0.00    +0.000 A 
ATOM     26  C   UNL     1      -3.035  12.630  23.446  0.00  0.00    +0.000 A 
ATOM     27  C   UNL     1      -4.396  12.811  23.240  0.00  0.00    +0.000 A 
ATOM     28  C   UNL     1      -4.895  12.893  21.938  0.00  0.00    +0.000 A 
ATOM     29  C   UNL     1      -4.028  12.861  20.833  0.00  0.00    +0.000 A 
ATOM     30  C   UNL     1      -2.659  12.658  21.022  0.00  0.00    +0.000 A 
ATOM     31  C   UNL     1      -1.644  12.559  19.874  0.00  0.00    +0.000 C 
ENDBRANCH  21  22
ENDBRANCH  18  21
ENDBRANCH  17  18
ENDBRANCH   3  17
TORSDOF 8
ENDMDL
MODEL 7
REMARK VINA RESULT:      -7.4      1.628      2.053
REMARK  Name = 
REMARK  8 active torsions:
REMARK  status: ('A' for Active; 'I' for Inactive)
REMARK    1  A    between atoms: N_1  and  S_2
REMARK    2  A    between atoms: S_2  and  C_5
REMARK    3  A    between atoms: C_9  and  C_10
REMARK    4  A    between atoms: N_12  and  C_13
REMARK    5  A    between atoms: C_13  and  C_14
REMARK    6  A    between atoms: C_14  and  O_15
REMARK    7  A    between atoms: C_14  and  C_16
REMARK    8  A    between atoms: C_16  and  N_17
REMARK                            x       y       z     vdW  Elec       q    Type
REMARK                         _______ _______ _______ _____ _____    ______ ____
ROOT
ATOM      1  C   UNL     1       1.556   5.247  20.447  0.00  0.00    +0.000 C 
ATOM      2  O   UNL     1       0.571   4.562  20.184  0.00  0.00    +0.000 OA
ATOM      3  N   UNL     1       2.544   4.798  21.307  0.00  0.00    +0.000 N 
ATOM      4  H   UNL     1       3.255   5.422  21.662  0.00  0.00    +0.000 HD
ENDROOT
BRANCH   1   9
ATOM      5  C   UNL     1       1.348   9.007  19.765  0.00  0.00    +0.000 A 
ATOM      6  C   UNL     1       2.025   9.114  18.553  0.00  0.00    +0.000 A 
ATOM      7  C   UNL     1       2.556   7.965  17.971  0.00  0.00    +0.000 A 
ATOM      8  C   UNL     1       2.380   6.728  18.604  0.00  0.00    +0.000 A 
ATOM      9  C   UNL     1       1.684   6.613  19.830  0.00  0.00    +0.000 A 
ATOM     10  C   UNL     1       1.169   7.781  20.410  0.00  0.00    +0.000 A 
BRANCH   5  11
ATOM     11  S   UNL     1       0.658  10.488  20.462  0.00  0.00    +0.000 S 
ATOM     12  O   UNL     1       1.205  10.689  21.788  0.00  0.00    +0.000 OA
ATOM     13  O   UNL     1      -0.756  10.530  20.209  0.00  0.00    +0.000 OA
BRANCH  11  14
ATOM     14  N   UNL     1       1.335  11.677  19.480  0.00  0.00    +0.000 NA
ATOM     15  H   UNL     1       0.592  12.116  18.927  0.00  0.00    +0.000 HD
ATOM     16  H   UNL     1       2.094  11.293  18.918  0.00  0.00    +0.000 HD
ENDBRANCH  11  14
ENDBRANCH   5  11
ENDBRANCH   1   9
BRANCH   3  17
ATOM     17  C   UNL     1       2.416   3.498  21.980  0.00  0.00    +0.000 C 
BRANCH  17  18
ATOM     18  C   UNL     1       2.846   2.310  21.090  0.00  0.00    +0.000 C 
BRANCH  18  19
ATOM     19  O   UNL     1       1.766   2.014  20.188  0.00  0.00    +0.000 OA
ATOM     20  H   UNL     1       1.652   2.785  19.605  0.00  0.00    +0.000 HD
ENDBRANCH  18  19
BRANCH  18  21
ATOM     21  C   UNL     1       4.189   2.580  20.311  0.00  0.00    +0.000 C 
BRANCH  21  22
ATOM     22  N   UNL     1       4.064   3.472  19.136  0.00  0.00    +0.000 NA
ATOM     23  C   UNL     1       3.764   2.749  17.889  0.00  0.00    +0.000 C 
ATOM     24  C   UNL     1       3.503   3.775  16.776  0.00  0.00    +0.000 C 
ATOM     25  C   UNL     1       4.853   4.339  16.439  0.00  0.00    +0.000 A 
ATOM     26  C   UNL     1       5.268   4.463  15.110  0.00  0.00    +0.000 A 
ATOM     27  C   UNL     1       6.619   4.627  14.835  0.00  0.00    +0.000 A 
ATOM     28  C   UNL     1       7.535   4.712  15.887  0.00  0.00    +0.000 A 
ATOM     29  C   UNL     1       7.099   4.701  17.222  0.00  0.00    +0.000 A 
ATOM     30  C   UNL     1       5.745   4.516  17.515  0.00  0.00    +0.000 A 
ATOM     31  C   UNL     1       5.185   4.440  18.943  0.00  0.00    +0.000 C 
ENDBRANCH  21  22
ENDBRANCH  18  21
ENDBRANCH  17  18
ENDBRANCH   3  17
TORSDOF 8
ENDMDL
MODEL 8
REMARK VINA RESULT:      -7.4      5.492      7.884
REMARK  Name = 
REMARK  8 active torsions:
REMARK  status: ('A' for Active; 'I' for Inactive)
REMARK    1  A    between atoms: N_1  and  S_2
REMARK    2  A    between atoms: S_2  and  C_5
REMARK    3  A    between atoms: C_9  and  C_10
REMARK    4  A    between atoms: N_12  and  C_13
REMARK    5  A    between atoms: C_13  and  C_14
REMARK    6  A    between atoms: C_14  and  O_15
REMARK    7  A    between atoms: C_14  and  C_16
REMARK    8  A    between atoms: C_16  and  N_17
REMARK                            x       y       z     vdW  Elec       q    Type
REMARK                         _______ _______ _______ _____ _____    ______ ____
ROOT
ATOM      1  C   UNL     1       9.087  10.140  18.850  0.00  0.00    +0.000 C 
ATOM      2  O   UNL     1       9.163   9.900  20.053  0.00  0.00    +0.000 OA
ATOM      3  N   UNL     1       8.627   9.196  17.948  0.00  0.00    +0.000 N 
ATOM      4  H   UNL     1       8.731   9.324  16.952  0.00  0.00    +0.000 HD
ENDROOT
BRANCH   1   9
ATOM      5  C   UNL     1       9.254  13.870  18.012  0.00  0.00    +0.000 A 
ATOM      6  C   UNL     1      10.477  13.958  17.350  0.00  0.00    +0.000 A 
ATOM      7  C   UNL     1      11.245  12.808  17.192  0.00  0.00    +0.000 A 
ATOM      8  C   UNL     1      10.764  11.586  17.680  0.00  0.00    +0.000 A 
ATOM      9  C   UNL     1       9.518  11.489  18.343  0.00  0.00    +0.000 A 
ATOM     10  C   UNL     1       8.764  12.661  18.508  0.00  0.00    +0.000 A 
BRANCH   5  11
ATOM     11  S   UNL     1       8.288  15.353  18.168  0.00  0.00    +0.000 S 
ATOM     12  O   UNL     1       7.108  15.240  17.335  0.00  0.00    +0.000 OA
ATOM     13  O   UNL     1       9.151  16.501  18.113  0.00  0.00    +0.000 OA
BRANCH  11  14
ATOM     14  N   UNL     1       7.759  15.252  19.764  0.00  0.00    +0.000 NA
ATOM     15  H   UNL     1       8.537  15.486  20.388  0.00  0.00    +0.000 HD
ATOM     16  H   UNL     1       7.342  14.340  19.950  0.00  0.00    +0.000 HD
ENDBRANCH  11  14
ENDBRANCH   5  11
ENDBRANCH   1   9
BRANCH   3  17
ATOM     17  C   UNL     1       8.263   7.845  18.401  0.00  0.00    +0.000 C 
BRANCH  17  18
ATOM     18  C   UNL     1       7.147   7.201  17.548  0.00  0.00    +0.000 C 
BRANCH  18  19
ATOM     19  O   UNL     1       7.738   6.714  16.332  0.00  0.00    +0.000 OA
ATOM     20  H   UNL     1       7.330   7.199  15.593  0.00  0.00    +0.000 HD
ENDBRANCH  18  19
BRANCH  18  21
ATOM     21  C   UNL     1       6.373   6.059  18.309  0.00  0.00    +0.000 C 
BRANCH  21  22
ATOM     22  N   UNL     1       5.020   5.761  17.786  0.00  0.00    +0.000 NA
ATOM     23  C   UNL     1       3.946   6.094  18.736  0.00  0.00    +0.000 C 
ATOM     24  C   UNL     1       2.592   5.895  18.038  0.00  0.00    +0.000 C 
ATOM     25  C   UNL     1       2.414   4.407  17.945  0.00  0.00    +0.000 A 
ATOM     26  C   UNL     1       1.208   3.803  18.310  0.00  0.00    +0.000 A 
ATOM     27  C   UNL     1       1.185   2.440  18.570  0.00  0.00    +0.000 A 
ATOM     28  C   UNL     1       2.351   1.685  18.418  0.00  0.00    +0.000 A 
ATOM     29  C   UNL     1       3.532   2.276  17.941  0.00  0.00    +0.000 A 
ATOM     30  C   UNL     1       3.578   3.651  17.695  0.00  0.00    +0.000 A 
ATOM     31  C   UNL     1       4.837   4.391  17.221  0.00  0.00    +0.000 C 
ENDBRANCH  21  22
ENDBRANCH  18  21
ENDBRANCH  17  18
ENDBRANCH   3  17
TORSDOF 8
ENDMDL
MODEL 9
REMARK VINA RESULT:      -7.4      5.001      7.274
REMARK  Name = 
REMARK  8 active torsions:
REMARK  status: ('A' for Active; 'I' for Inactive)
REMARK    1  A    between atoms: N_1  and  S_2
REMARK    2  A    between atoms: S_2  and  C_5
REMARK    3  A    between atoms: C_9  and  C_10
REMARK    4  A    between atoms: N_12  and  C_13
REMARK    5  A    between atoms: C_13  and  C_14
REMARK    6  A    between atoms: C_14  and  O_15
REMARK    7  A    between atoms: C_14  and  C_16
REMARK    8  A    between atoms: C_16  and  N_17
REMARK                            x       y       z     vdW  Elec       q    Type
REMARK                         _______ _______ _______ _____ _____    ______ ____
ROOT
ATOM      1  C   UNL     1       8.142   8.304  18.110  0.00  0.00    +0.000 C 
ATOM      2  O   UNL     1       8.577   7.503  18.934  0.00  0.00    +0.000 OA
ATOM      3  N   UNL     1       7.344   7.899  17.054  0.00  0.00    +0.000 N 
ATOM      4  H   UNL     1       7.137   8.518  16.283  0.00  0.00    +0.000 HD
ENDROOT
BRANCH   1   9
ATOM      5  C   UNL     1       9.697  11.620  19.218  0.00  0.00    +0.000 A 
ATOM      6  C   UNL     1       9.073  12.526  18.364  0.00  0.00    +0.000 A 
ATOM      7  C   UNL     1       8.160  12.053  17.425  0.00  0.00    +0.000 A 
ATOM      8  C   UNL     1       7.874  10.682  17.374  0.00  0.00    +0.000 A 
ATOM      9  C   UNL     1       8.497   9.759  18.246  0.00  0.00    +0.000 A 
ATOM     10  C   UNL     1       9.425  10.252  19.175  0.00  0.00    +0.000 A 
BRANCH   5  11
ATOM     11  S   UNL     1      10.832  12.265  20.423  0.00  0.00    +0.000 S 
ATOM     12  O   UNL     1      12.090  11.554  20.318  0.00  0.00    +0.000 OA
ATOM     13  O   UNL     1      10.158  12.436  21.680  0.00  0.00    +0.000 OA
BRANCH  11  14
ATOM     14  N   UNL     1      11.111  13.819  19.836  0.00  0.00    +0.000 NA
ATOM     15  H   UNL     1      12.107  13.919  19.616  0.00  0.00    +0.000 HD
ATOM     16  H   UNL     1      10.760  14.520  20.489  0.00  0.00    +0.000 HD
ENDBRANCH  11  14
ENDBRANCH   5  11
ENDBRANCH   1   9
BRANCH   3  17
ATOM     17  C   UNL     1       7.036   6.475  16.853  0.00  0.00    +0.000 C 
BRANCH  17  18
ATOM     18  C   UNL     1       5.568   6.227  16.440  0.00  0.00    +0.000 C 
BRANCH  18  19
ATOM     19  O   UNL     1       5.339   6.885  15.183  0.00  0.00    +0.000 OA
ATOM     20  H   UNL     1       4.924   6.238  14.585  0.00  0.00    +0.000 HD
ENDBRANCH  18  19
BRANCH  18  21
ATOM     21  C   UNL     1       5.200   4.696  16.363  0.00  0.00    +0.000 C 
BRANCH  21  22
ATOM     22  N   UNL     1       4.940   4.047  17.668  0.00  0.00    +0.000 NA
ATOM     23  C   UNL     1       4.118   2.831  17.555  0.00  0.00    +0.000 C 
ATOM     24  C   UNL     1       4.043   2.158  18.934  0.00  0.00    +0.000 C 
ATOM     25  C   UNL     1       3.124   3.027  19.744  0.00  0.00    +0.000 A 
ATOM     26  C   UNL     1       2.091   2.469  20.503  0.00  0.00    +0.000 A 
ATOM     27  C   UNL     1       1.051   3.282  20.931  0.00  0.00    +0.000 A 
ATOM     28  C   UNL     1       1.074   4.649  20.639  0.00  0.00    +0.000 A 
ATOM     29  C   UNL     1       2.170   5.224  19.976  0.00  0.00    +0.000 A 
ATOM     30  C   UNL     1       3.216   4.416  19.520  0.00  0.00    +0.000 A 
ATOM     31  C   UNL     1       4.428   4.948  18.743  0.00  0.00    +0.000 C 
ENDBRANCH  21  22
ENDBRANCH  18  21
ENDBRANCH  17  18
ENDBRANCH   3  17
TORSDOF 8
ENDMDL
