MODEL 1
REMARK VINA RESULT:      -8.0      0.000      0.000
REMARK  Name = 
REMARK  9 active torsions:
REMARK  status: ('A' for Active; 'I' for Inactive)
REMARK    1  A    between atoms: C_1  and  O_2
REMARK    2  A    between atoms: O_2  and  C_3
REMARK    3  A    between atoms: C_8  and  C_9
REMARK    4  A    between atoms: C_12  and  N_13
REMARK    5  A    between atoms: C_14  and  C_15
REMARK    6  A    between atoms: C_16  and  C_17
REMARK    7  A    between atoms: C_17  and  N_18
REMARK    8  A    between atoms: N_18  and  S_19
REMARK    9  A    between atoms: S_19  and  C_22
REMARK                            x       y       z     vdW  Elec       q    Type
REMARK                         _______ _______ _______ _____ _____    ______ ____
ROOT
ATOM      1  C   UNL     1       4.661   4.507  18.282  0.00  0.00    +0.000 A 
ATOM      2  C   UNL     1       4.957   3.763  17.138  0.00  0.00    +0.000 A 
ATOM      3  N   UNL     1       5.880   4.093  16.195  0.00  0.00    +0.000 NA
ATOM      4  C   UNL     1       6.570   5.232  16.379  0.00  0.00    +0.000 A 
ATOM      5  C   UNL     1       6.403   6.029  17.512  0.00  0.00    +0.000 A 
ATOM      6  C   UNL     1       5.455   5.650  18.466  0.00  0.00    +0.000 A 
ENDROOT
BRANCH   1  12
ATOM      7  C   UNL     1       2.442   4.973  19.468  0.00  0.00    +0.000 A 
ATOM      8  C   UNL     1       1.456   4.580  20.385  0.00  0.00    +0.000 A 
ATOM      9  C   UNL     1       1.600   3.419  21.137  0.00  0.00    +0.000 A 
ATOM     10  C   UNL     1       2.714   2.617  20.949  0.00  0.00    +0.000 A 
ATOM     11  C   UNL     1       3.672   2.967  19.996  0.00  0.00    +0.000 A 
ATOM     12  C   UNL     1       3.571   4.151  19.228  0.00  0.00    +0.000 A 
BRANCH   7  14
ATOM     13  C   UNL     1       2.249   7.327  19.602  0.00  0.00    +0.000 C 
ATOM     14  O   UNL     1       2.336   6.163  18.781  0.00  0.00    +0.000 OA
ENDBRANCH   7  14
ENDBRANCH   1  12
BRANCH   4  15
ATOM     15  N   UNL     1       7.395   5.610  15.319  0.00  0.00    +0.000 N 
ATOM     16  H   UNL     1       7.878   4.779  14.991  0.00  0.00    +0.000 HD
ATOM     17  H   UNL     1       8.012   6.375  15.555  0.00  0.00    +0.000 HD
ENDBRANCH   4  15
BRANCH   5  18
ATOM     18  C   UNL     1       7.169   7.221  17.716  0.00  0.00    +0.000 C 
ATOM     19  C   UNL     1       7.864   8.316  17.844  0.00  0.00    +0.000 C 
BRANCH  19  20
ATOM     20  C   UNL     1       8.675   9.594  17.995  0.00  0.00    +0.000 C 
BRANCH  20  21
ATOM     21  N   UNL     1       9.194   9.756  19.345  0.00  0.00    +0.000 NA
ATOM     22  H   UNL     1       9.943   9.104  19.570  0.00  0.00    +0.000 HD
BRANCH  21  23
ATOM     23  S   UNL     1       9.717  11.334  19.666  0.00  0.00    +0.000 S 
ATOM     24  O   UNL     1       9.017  12.189  18.729  0.00  0.00    +0.000 OA
ATOM     25  O   UNL     1       9.608  11.534  21.090  0.00  0.00    +0.000 OA
BRANCH  23  26
ATOM     26  C   UNL     1      11.473  11.385  19.202  0.00  0.00    +0.000 C 
ATOM     27  C   UNL     1      11.778  12.340  18.078  0.00  0.00    +0.000 C 
ATOM     28  C   UNL     1      12.191  12.681  19.483  0.00  0.00    +0.000 C 
ENDBRANCH  23  26
ENDBRANCH  21  23
ENDBRANCH  20  21
ENDBRANCH  19  20
ENDBRANCH   5  18
TORSDOF 8
ENDMDL
MODEL 2
REMARK VINA RESULT:      -7.8      1.541      2.284
REMARK  Name = 
REMARK  9 active torsions:
REMARK  status: ('A' for Active; 'I' for Inactive)
REMARK    1  A    between atoms: C_1  and  O_2
REMARK    2  A    between atoms: O_2  and  C_3
REMARK    3  A    between atoms: C_8  and  C_9
REMARK    4  A    between atoms: C_12  and  N_13
REMARK    5  A    between atoms: C_14  and  C_15
REMARK    6  A    between atoms: C_16  and  C_17
REMARK    7  A    between atoms: C_17  and  N_18
REMARK    8  A    between atoms: N_18  and  S_19
REMARK    9  A    between atoms: S_19  and  C_22
REMARK                            x       y       z     vdW  Elec       q    Type
REMARK                         _______ _______ _______ _____ _____    ______ ____
ROOT
ATOM      1  C   UNL     1       4.661   4.459  18.132  0.00  0.00    +0.000 A 
ATOM      2  C   UNL     1       4.937   3.753  16.959  0.00  0.00    +0.000 A 
ATOM      3  N   UNL     1       5.838   4.120  16.007  0.00  0.00    +0.000 NA
ATOM      4  C   UNL     1       6.523   5.258  16.211  0.00  0.00    +0.000 A 
ATOM      5  C   UNL     1       6.374   6.018  17.371  0.00  0.00    +0.000 A 
ATOM      6  C   UNL     1       5.450   5.602  18.334  0.00  0.00    +0.000 A 
ENDROOT
BRANCH   1  12
ATOM      7  C   UNL     1       3.740   3.020  20.036  0.00  0.00    +0.000 A 
ATOM      8  C   UNL     1       2.686   2.692  20.902  0.00  0.00    +0.000 A 
ATOM      9  C   UNL     1       1.454   3.327  20.803  0.00  0.00    +0.000 A 
ATOM     10  C   UNL     1       1.274   4.327  19.860  0.00  0.00    +0.000 A 
ATOM     11  C   UNL     1       2.334   4.703  19.033  0.00  0.00    +0.000 A 
ATOM     12  C   UNL     1       3.595   4.065  19.090  0.00  0.00    +0.000 A 
BRANCH   7  14
ATOM     13  C   UNL     1       5.002   1.306  21.069  0.00  0.00    +0.000 C 
ATOM     14  O   UNL     1       4.934   2.335  20.083  0.00  0.00    +0.000 OA
ENDBRANCH   7  14
ENDBRANCH   1  12
BRANCH   4  15
ATOM     15  N   UNL     1       7.321   5.676  15.145  0.00  0.00    +0.000 N 
ATOM     16  H   UNL     1       6.708   5.883  14.363  0.00  0.00    +0.000 HD
ATOM     17  H   UNL     1       8.057   5.018  14.925  0.00  0.00    +0.000 HD
ENDBRANCH   4  15
BRANCH   5  18
ATOM     18  C   UNL     1       7.135   7.210  17.595  0.00  0.00    +0.000 C 
ATOM     19  C   UNL     1       7.812   8.313  17.747  0.00  0.00    +0.000 C 
BRANCH  19  20
ATOM     20  C   UNL     1       8.602   9.601  17.923  0.00  0.00    +0.000 C 
BRANCH  20  21
ATOM     21  N   UNL     1       9.174   9.713  19.258  0.00  0.00    +0.000 NA
ATOM     22  H   UNL     1       9.908   9.032  19.441  0.00  0.00    +0.000 HD
BRANCH  21  23
ATOM     23  S   UNL     1       9.760  11.265  19.596  0.00  0.00    +0.000 S 
ATOM     24  O   UNL     1       9.172  11.652  20.862  0.00  0.00    +0.000 OA
ATOM     25  O   UNL     1      11.190  11.224  19.414  0.00  0.00    +0.000 OA
BRANCH  23  26
ATOM     26  C   UNL     1       9.042  12.358  18.335  0.00  0.00    +0.000 C 
ATOM     27  C   UNL     1       8.791  13.762  18.819  0.00  0.00    +0.000 C 
ATOM     28  C   UNL     1       9.923  13.490  17.866  0.00  0.00    +0.000 C 
ENDBRANCH  23  26
ENDBRANCH  21  23
ENDBRANCH  20  21
ENDBRANCH  19  20
ENDBRANCH   5  18
TORSDOF 8
ENDMDL
MODEL 3
REMARK VINA RESULT:      -7.8      1.119      1.257
REMARK  Name = 
REMARK  9 active torsions:
REMARK  status: ('A' for Active; 'I' for Inactive)
REMARK    1  A    between atoms: C_1  and  O_2
REMARK    2  A    between atoms: O_2  and  C_3
REMARK    3  A    between atoms: C_8  and  C_9
REMARK    4  A    between atoms: C_12  and  N_13
REMARK    5  A    between atoms: C_14  and  C_15
REMARK    6  A    between atoms: C_16  and  C_17
REMARK    7  A    between atoms: C_17  and  N_18
REMARK    8  A    between atoms: N_18  and  S_19
REMARK    9  A    between atoms: S_19  and  C_22
REMARK                            x       y       z     vdW  Elec       q    Type
REMARK                         _______ _______ _______ _____ _____    ______ ____
ROOT
ATOM      1  C   UNL     1       4.657   4.491  18.308  0.00  0.00    +0.000 A 
ATOM      2  C   UNL     1       4.882   3.805  17.113  0.00  0.00    +0.000 A 
ATOM      3  N   UNL     1       5.814   4.131  16.176  0.00  0.00    +0.000 NA
ATOM      4  C   UNL     1       6.587   5.203  16.420  0.00  0.00    +0.000 A 
ATOM      5  C   UNL     1       6.494   5.932  17.606  0.00  0.00    +0.000 A 
ATOM      6  C   UNL     1       5.535   5.559  18.552  0.00  0.00    +0.000 A 
ENDROOT
BRANCH   1  12
ATOM      7  C   UNL     1       2.444   4.993  19.490  0.00  0.00    +0.000 A 
ATOM      8  C   UNL     1       1.449   4.614  20.403  0.00  0.00    +0.000 A 
ATOM      9  C   UNL     1       1.567   3.447  21.149  0.00  0.00    +0.000 A 
ATOM     10  C   UNL     1       2.666   2.624  20.960  0.00  0.00    +0.000 A 
ATOM     11  C   UNL     1       3.634   2.961  20.011  0.00  0.00    +0.000 A 
ATOM     12  C   UNL     1       3.558   4.151  19.250  0.00  0.00    +0.000 A 
BRANCH   7  14
ATOM     13  C   UNL     1       2.215   7.343  19.636  0.00  0.00    +0.000 C 
ATOM     14  O   UNL     1       2.364   6.189  18.811  0.00  0.00    +0.000 OA
ENDBRANCH   7  14
ENDBRANCH   1  12
BRANCH   4  15
ATOM     15  N   UNL     1       7.422   5.591  15.372  0.00  0.00    +0.000 N 
ATOM     16  H   UNL     1       6.835   5.788  14.567  0.00  0.00    +0.000 HD
ATOM     17  H   UNL     1       8.158   4.923  15.188  0.00  0.00    +0.000 HD
ENDBRANCH   4  15
BRANCH   5  18
ATOM     18  C   UNL     1       7.347   7.051  17.873  0.00  0.00    +0.000 C 
ATOM     19  C   UNL     1       8.089   8.082  18.162  0.00  0.00    +0.000 C 
BRANCH  19  20
ATOM     20  C   UNL     1       8.957   9.285  18.499  0.00  0.00    +0.000 C 
BRANCH  20  21
ATOM     21  N   UNL     1       8.412  10.521  17.957  0.00  0.00    +0.000 NA
ATOM     22  H   UNL     1       7.492  10.753  18.327  0.00  0.00    +0.000 HD
BRANCH  21  23
ATOM     23  S   UNL     1       9.445  11.846  18.168  0.00  0.00    +0.000 S 
ATOM     24  O   UNL     1      10.708  11.473  17.565  0.00  0.00    +0.000 OA
ATOM     25  O   UNL     1       8.723  13.017  17.734  0.00  0.00    +0.000 OA
BRANCH  23  26
ATOM     26  C   UNL     1       9.740  11.972  19.956  0.00  0.00    +0.000 C 
ATOM     27  C   UNL     1      11.199  12.010  20.330  0.00  0.00    +0.000 C 
ATOM     28  C   UNL     1      10.367  13.260  20.430  0.00  0.00    +0.000 C 
ENDBRANCH  23  26
ENDBRANCH  21  23
ENDBRANCH  20  21
ENDBRANCH  19  20
ENDBRANCH   5  18
TORSDOF 8
ENDMDL
MODEL 4
REMARK VINA RESULT:      -7.7      1.175      1.305
REMARK  Name = 
REMARK  9 active torsions:
REMARK  status: ('A' for Active; 'I' for Inactive)
REMARK    1  A    between atoms: C_1  and  O_2
REMARK    2  A    between atoms: O_2  and  C_3
REMARK    3  A    between atoms: C_8  and  C_9
REMARK    4  A    between atoms: C_12  and  N_13
REMARK    5  A    between atoms: C_14  and  C_15
REMARK    6  A    between atoms: C_16  and  C_17
REMARK    7  A    between atoms: C_17  and  N_18
REMARK    8  A    between atoms: N_18  and  S_19
REMARK    9  A    between atoms: S_19  and  C_22
REMARK                            x       y       z     vdW  Elec       q    Type
REMARK                         _______ _______ _______ _____ _____    ______ ____
ROOT
ATOM      1  C   UNL     1       4.692   4.685  18.250  0.00  0.00    +0.000 A 
ATOM      2  C   UNL     1       4.985   3.902  17.132  0.00  0.00    +0.000 A 
ATOM      3  N   UNL     1       5.915   4.193  16.182  0.00  0.00    +0.000 NA
ATOM      4  C   UNL     1       6.615   5.330  16.331  0.00  0.00    +0.000 A 
ATOM      5  C   UNL     1       6.451   6.165  17.438  0.00  0.00    +0.000 A 
ATOM      6  C   UNL     1       5.496   5.826  18.400  0.00  0.00    +0.000 A 
ENDROOT
BRANCH   1  12
ATOM      7  C   UNL     1       2.635   5.318  19.634  0.00  0.00    +0.000 A 
ATOM      8  C   UNL     1       1.634   4.954  20.547  0.00  0.00    +0.000 A 
ATOM      9  C   UNL     1       1.605   3.683  21.108  0.00  0.00    +0.000 A 
ATOM     10  C   UNL     1       2.556   2.747  20.732  0.00  0.00    +0.000 A 
ATOM     11  C   UNL     1       3.522   3.080  19.779  0.00  0.00    +0.000 A 
ATOM     12  C   UNL     1       3.595   4.369  19.203  0.00  0.00    +0.000 A 
BRANCH   7  14
ATOM     13  C   UNL     1       2.008   7.584  19.900  0.00  0.00    +0.000 C 
ATOM     14  O   UNL     1       2.710   6.602  19.139  0.00  0.00    +0.000 OA
ENDBRANCH   7  14
ENDBRANCH   1  12
BRANCH   4  15
ATOM     15  N   UNL     1       7.447   5.667  15.263  0.00  0.00    +0.000 N 
ATOM     16  H   UNL     1       7.689   4.808  14.777  0.00  0.00    +0.000 HD
ATOM     17  H   UNL     1       8.247   6.216  15.547  0.00  0.00    +0.000 HD
ENDBRANCH   4  15
BRANCH   5  18
ATOM     18  C   UNL     1       7.227   7.356  17.606  0.00  0.00    +0.000 C 
ATOM     19  C   UNL     1       7.897   8.457  17.801  0.00  0.00    +0.000 C 
BRANCH  19  20
ATOM     20  C   UNL     1       8.678   9.741  18.028  0.00  0.00    +0.000 C 
BRANCH  20  21
ATOM     21  N   UNL     1       9.230   9.815  19.374  0.00  0.00    +0.000 NA
ATOM     22  H   UNL     1       9.910   9.083  19.571  0.00  0.00    +0.000 HD
BRANCH  21  23
ATOM     23  S   UNL     1       9.920  11.322  19.722  0.00  0.00    +0.000 S 
ATOM     24  O   UNL     1       9.527  11.641  21.079  0.00  0.00    +0.000 OA
ATOM     25  O   UNL     1      11.310  11.248  19.341  0.00  0.00    +0.000 OA
BRANCH  23  26
ATOM     26  C   UNL     1       9.081  12.519  18.644  0.00  0.00    +0.000 C 
ATOM     27  C   UNL     1       8.656  13.780  19.350  0.00  0.00    +0.000 C 
ATOM     28  C   UNL     1       9.819  13.812  18.397  0.00  0.00    +0.000 C 
ENDBRANCH  23  26
ENDBRANCH  21  23
ENDBRANCH  20  21
ENDBRANCH  19  20
ENDBRANCH   5  18
TORSDOF 8
ENDMDL
MODEL 5
REMARK VINA RESULT:      -7.6      1.304      1.523
REMARK  Name = 
REMARK  9 active torsions:
REMARK  status: ('A' for Active; 'I' for Inactive)
REMARK    1  A    between atoms: C_1  and  O_2
REMARK    2  A    between atoms: O_2  and  C_3
REMARK    3  A    between atoms: C_8  and  C_9
REMARK    4  A    between atoms: C_12  and  N_13
REMARK    5  A    between atoms: C_14  and  C_15
REMARK    6  A    between atoms: C_16  and  C_17
REMARK    7  A    between atoms: C_17  and  N_18
REMARK    8  A    between atoms: N_18  and  S_19
REMARK    9  A    between atoms: S_19  and  C_22
REMARK                            x       y       z     vdW  Elec       q    Type
REMARK                         _______ _______ _______ _____ _____    ______ ____
ROOT
ATOM      1  C   UNL     1       4.703   4.515  18.239  0.00  0.00    +0.000 A 
ATOM      2  C   UNL     1       5.035   3.756  17.115  0.00  0.00    +0.000 A 
ATOM      3  N   UNL     1       5.972   4.085  16.185  0.00  0.00    +0.000 NA
ATOM      4  C   UNL     1       6.638   5.239  16.362  0.00  0.00    +0.000 A 
ATOM      5  C   UNL     1       6.434   6.052  17.477  0.00  0.00    +0.000 A 
ATOM      6  C   UNL     1       5.473   5.674  18.419  0.00  0.00    +0.000 A 
ENDROOT
BRANCH   1  12
ATOM      7  C   UNL     1       2.408   4.912  19.299  0.00  0.00    +0.000 A 
ATOM      8  C   UNL     1       1.413   4.522  20.208  0.00  0.00    +0.000 A 
ATOM      9  C   UNL     1       1.602   3.435  21.054  0.00  0.00    +0.000 A 
ATOM     10  C   UNL     1       2.775   2.702  20.973  0.00  0.00    +0.000 A 
ATOM     11  C   UNL     1       3.747   3.045  20.032  0.00  0.00    +0.000 A 
ATOM     12  C   UNL     1       3.599   4.156  19.169  0.00  0.00    +0.000 A 
BRANCH   7  14
ATOM     13  C   UNL     1       2.328   7.275  19.220  0.00  0.00    +0.000 C 
ATOM     14  O   UNL     1       2.252   6.035  18.517  0.00  0.00    +0.000 OA
ENDBRANCH   7  14
ENDBRANCH   1  12
BRANCH   4  15
ATOM     15  N   UNL     1       7.478   5.613  15.313  0.00  0.00    +0.000 N 
ATOM     16  H   UNL     1       8.402   5.779  15.701  0.00  0.00    +0.000 HD
ATOM     17  H   UNL     1       7.114   6.389  14.776  0.00  0.00    +0.000 HD
ENDBRANCH   4  15
BRANCH   5  18
ATOM     18  C   UNL     1       7.175   7.261  17.676  0.00  0.00    +0.000 C 
ATOM     19  C   UNL     1       7.855   8.366  17.799  0.00  0.00    +0.000 C 
BRANCH  19  20
ATOM     20  C   UNL     1       8.648   9.656  17.942  0.00  0.00    +0.000 C 
BRANCH  20  21
ATOM     21  N   UNL     1       9.176   9.826  19.289  0.00  0.00    +0.000 NA
ATOM     22  H   UNL     1       9.862   9.119  19.545  0.00  0.00    +0.000 HD
BRANCH  21  23
ATOM     23  S   UNL     1       9.840  11.362  19.548  0.00  0.00    +0.000 S 
ATOM     24  O   UNL     1      11.246  11.256  19.216  0.00  0.00    +0.000 OA
ATOM     25  O   UNL     1       8.981  12.310  18.880  0.00  0.00    +0.000 OA
BRANCH  23  26
ATOM     26  C   UNL     1       9.749  11.652  21.339  0.00  0.00    +0.000 C 
ATOM     27  C   UNL     1       9.671  13.108  21.716  0.00  0.00    +0.000 C 
ATOM     28  C   UNL     1       8.453  12.235  21.846  0.00  0.00    +0.000 C 
ENDBRANCH  23  26
ENDBRANCH  21  23
ENDBRANCH  20  21
ENDBRANCH  19  20
ENDBRANCH   5  18
TORSDOF 8
ENDMDL
MODEL 6
REMARK VINA RESULT:      -7.6      1.487      2.155
REMARK  Name = 
REMARK  9 active torsions:
REMARK  status: ('A' for Active; 'I' for Inactive)
REMARK    1  A    between atoms: C_1  and  O_2
REMARK    2  A    between atoms: O_2  and  C_3
REMARK    3  A    between atoms: C_8  and  C_9
REMARK    4  A    between atoms: C_12  and  N_13
REMARK    5  A    between atoms: C_14  and  C_15
REMARK    6  A    between atoms: C_16  and  C_17
REMARK    7  A    between atoms: C_17  and  N_18
REMARK    8  A    between atoms: N_18  and  S_19
REMARK    9  A    between atoms: S_19  and  C_22
REMARK                            x       y       z     vdW  Elec       q    Type
REMARK                         _______ _______ _______ _____ _____    ______ ____
ROOT
ATOM      1  C   UNL     1       4.533   4.774  17.997  0.00  0.00    +0.000 A 
ATOM      2  C   UNL     1       4.920   3.974  16.921  0.00  0.00    +0.000 A 
ATOM      3  N   UNL     1       5.933   4.247  16.055  0.00  0.00    +0.000 NA
ATOM      4  C   UNL     1       6.623   5.383  16.250  0.00  0.00    +0.000 A 
ATOM      5  C   UNL     1       6.366   6.234  17.325  0.00  0.00    +0.000 A 
ATOM      6  C   UNL     1       5.327   5.914  18.203  0.00  0.00    +0.000 A 
ENDROOT
BRANCH   1  12
ATOM      7  C   UNL     1       2.671   3.236  18.842  0.00  0.00    +0.000 A 
ATOM      8  C   UNL     1       1.556   3.029  19.667  0.00  0.00    +0.000 A 
ATOM      9  C   UNL     1       1.048   4.055  20.455  0.00  0.00    +0.000 A 
ATOM     10  C   UNL     1       1.675   5.291  20.456  0.00  0.00    +0.000 A 
ATOM     11  C   UNL     1       2.821   5.491  19.683  0.00  0.00    +0.000 A 
ATOM     12  C   UNL     1       3.354   4.477  18.853  0.00  0.00    +0.000 A 
BRANCH   7  14
ATOM     13  C   UNL     1       3.764   1.146  18.656  0.00  0.00    +0.000 C 
ATOM     14  O   UNL     1       3.125   2.242  18.002  0.00  0.00    +0.000 OA
ENDBRANCH   7  14
ENDBRANCH   1  12
BRANCH   4  15
ATOM     15  N   UNL     1       7.549   5.700  15.255  0.00  0.00    +0.000 N 
ATOM     16  H   UNL     1       7.053   5.732  14.370  0.00  0.00    +0.000 HD
ATOM     17  H   UNL     1       8.350   5.083  15.253  0.00  0.00    +0.000 HD
ENDBRANCH   4  15
BRANCH   5  18
ATOM     18  C   UNL     1       7.130   7.425  17.545  0.00  0.00    +0.000 C 
ATOM     19  C   UNL     1       7.810   8.527  17.694  0.00  0.00    +0.000 C 
BRANCH  19  20
ATOM     20  C   UNL     1       8.602   9.813  17.867  0.00  0.00    +0.000 C 
BRANCH  20  21
ATOM     21  N   UNL     1       9.192   9.917  19.194  0.00  0.00    +0.000 NA
ATOM     22  H   UNL     1       9.892   9.202  19.381  0.00  0.00    +0.000 HD
BRANCH  21  23
ATOM     23  S   UNL     1       9.862  11.442  19.501  0.00  0.00    +0.000 S 
ATOM     24  O   UNL     1       9.106  12.001  20.603  0.00  0.00    +0.000 OA
ATOM     25  O   UNL     1      11.292  11.265  19.585  0.00  0.00    +0.000 OA
BRANCH  23  26
ATOM     26  C   UNL     1       9.484  12.458  18.043  0.00  0.00    +0.000 C 
ATOM     27  C   UNL     1       8.775  13.747  18.368  0.00  0.00    +0.000 C 
ATOM     28  C   UNL     1      10.219  13.772  17.948  0.00  0.00    +0.000 C 
ENDBRANCH  23  26
ENDBRANCH  21  23
ENDBRANCH  20  21
ENDBRANCH  19  20
ENDBRANCH   5  18
TORSDOF 8
ENDMDL
MODEL 7
REMARK VINA RESULT:      -7.5      5.182      7.696
REMARK  Name = 
REMARK  9 active torsions:
REMARK  status: ('A' for Active; 'I' for Inactive)
REMARK    1  A    between atoms: C_1  and  O_2
REMARK    2  A    between atoms: O_2  and  C_3
REMARK    3  A    between atoms: C_8  and  C_9
REMARK    4  A    between atoms: C_12  and  N_13
REMARK    5  A    between atoms: C_14  and  C_15
REMARK    6  A    between atoms: C_16  and  C_17
REMARK    7  A    between atoms: C_17  and  N_18
REMARK    8  A    between atoms: N_18  and  S_19
REMARK    9  A    between atoms: S_19  and  C_22
REMARK                            x       y       z     vdW  Elec       q    Type
REMARK                         _______ _______ _______ _____ _____    ______ ____
ROOT
ATOM      1  C   UNL     1       3.746   4.361  17.706  0.00  0.00    +0.000 A 
ATOM      2  C   UNL     1       2.952   3.217  17.813  0.00  0.00    +0.000 A 
ATOM      3  N   UNL     1       1.891   3.065  18.651  0.00  0.00    +0.000 NA
ATOM      4  C   UNL     1       1.576   4.103  19.444  0.00  0.00    +0.000 A 
ATOM      5  C   UNL     1       2.260   5.318  19.385  0.00  0.00    +0.000 A 
ATOM      6  C   UNL     1       3.336   5.443  18.501  0.00  0.00    +0.000 A 
ENDROOT
BRANCH   1  12
ATOM      7  C   UNL     1       6.276   4.518  17.354  0.00  0.00    +0.000 A 
ATOM      8  C   UNL     1       7.371   4.600  16.482  0.00  0.00    +0.000 A 
ATOM      9  C   UNL     1       7.188   4.684  15.107  0.00  0.00    +0.000 A 
ATOM     10  C   UNL     1       5.904   4.646  14.585  0.00  0.00    +0.000 A 
ATOM     11  C   UNL     1       4.809   4.504  15.440  0.00  0.00    +0.000 A 
ATOM     12  C   UNL     1       4.956   4.437  16.845  0.00  0.00    +0.000 A 
BRANCH   7  14
ATOM     13  C   UNL     1       7.216   5.608  19.231  0.00  0.00    +0.000 C 
ATOM     14  O   UNL     1       6.456   4.514  18.720  0.00  0.00    +0.000 OA
ENDBRANCH   7  14
ENDBRANCH   1  12
BRANCH   4  15
ATOM     15  N   UNL     1       0.582   3.855  20.391  0.00  0.00    +0.000 N 
ATOM     16  H   UNL     1      -0.292   4.217  20.023  0.00  0.00    +0.000 HD
ATOM     17  H   UNL     1       0.818   4.208  21.309  0.00  0.00    +0.000 HD
ENDBRANCH   4  15
BRANCH   5  18
ATOM     18  C   UNL     1       1.894   6.431  20.208  0.00  0.00    +0.000 C 
ATOM     19  C   UNL     1       1.523   7.460  20.916  0.00  0.00    +0.000 C 
BRANCH  19  20
ATOM     20  C   UNL     1       1.090   8.661  21.743  0.00  0.00    +0.000 C 
BRANCH  20  21
ATOM     21  N   UNL     1      -0.166   9.227  21.270  0.00  0.00    +0.000 NA
ATOM     22  H   UNL     1      -0.987   8.778  21.671  0.00  0.00    +0.000 HD
BRANCH  21  23
ATOM     23  S   UNL     1      -0.271  10.899  21.516  0.00  0.00    +0.000 S 
ATOM     24  O   UNL     1      -1.055  11.080  22.721  0.00  0.00    +0.000 OA
ATOM     25  O   UNL     1       1.068  11.426  21.406  0.00  0.00    +0.000 OA
BRANCH  23  26
ATOM     26  C   UNL     1      -1.269  11.546  20.144  0.00  0.00    +0.000 C 
ATOM     27  C   UNL     1      -0.453  12.037  18.977  0.00  0.00    +0.000 C 
ATOM     28  C   UNL     1      -1.223  10.750  18.864  0.00  0.00    +0.000 C 
ENDBRANCH  23  26
ENDBRANCH  21  23
ENDBRANCH  20  21
ENDBRANCH  19  20
ENDBRANCH   5  18
TORSDOF 8
ENDMDL
MODEL 8
REMARK VINA RESULT:      -7.4      1.707      2.441
REMARK  Name = 
REMARK  9 active torsions:
REMARK  status: ('A' for Active; 'I' for Inactive)
REMARK    1  A    between atoms: C_1  and  O_2
REMARK    2  A    between atoms: O_2  and  C_3
REMARK    3  A    between atoms: C_8  and  C_9
REMARK    4  A    between atoms: C_12  and  N_13
REMARK    5  A    between atoms: C_14  and  C_15
REMARK    6  A    between atoms: C_16  and  C_17
REMARK    7  A    between atoms: C_17  and  N_18
REMARK    8  A    between atoms: N_18  and  S_19
REMARK    9  A    between atoms: S_19  and  C_22
REMARK                            x       y       z     vdW  Elec       q    Type
REMARK                         _______ _______ _______ _____ _____    ______ ____
ROOT
ATOM      1  C   UNL     1       4.711   4.480  18.053  0.00  0.00    +0.000 A 
ATOM      2  C   UNL     1       5.052   3.725  16.929  0.00  0.00    +0.000 A 
ATOM      3  N   UNL     1       5.969   4.077  15.988  0.00  0.00    +0.000 NA
ATOM      4  C   UNL     1       6.605   5.250  16.152  0.00  0.00    +0.000 A 
ATOM      5  C   UNL     1       6.390   6.063  17.266  0.00  0.00    +0.000 A 
ATOM      6  C   UNL     1       5.450   5.662  18.220  0.00  0.00    +0.000 A 
ENDROOT
BRANCH   1  12
ATOM      7  C   UNL     1       3.793   3.137  20.029  0.00  0.00    +0.000 A 
ATOM      8  C   UNL     1       2.724   2.812  20.876  0.00  0.00    +0.000 A 
ATOM      9  C   UNL     1       1.461   3.359  20.678  0.00  0.00    +0.000 A 
ATOM     10  C   UNL     1       1.264   4.270  19.652  0.00  0.00    +0.000 A 
ATOM     11  C   UNL     1       2.336   4.646  18.839  0.00  0.00    +0.000 A 
ATOM     12  C   UNL     1       3.628   4.095  18.997  0.00  0.00    +0.000 A 
BRANCH   7  14
ATOM     13  C   UNL     1       5.008   1.300  20.893  0.00  0.00    +0.000 C 
ATOM     14  O   UNL     1       5.023   2.535  20.178  0.00  0.00    +0.000 OA
ENDBRANCH   7  14
ENDBRANCH   1  12
BRANCH   4  15
ATOM     15  N   UNL     1       7.422   5.642  15.092  0.00  0.00    +0.000 N 
ATOM     16  H   UNL     1       7.825   4.803  14.685  0.00  0.00    +0.000 HD
ATOM     17  H   UNL     1       8.107   6.336  15.360  0.00  0.00    +0.000 HD
ENDBRANCH   4  15
BRANCH   5  18
ATOM     18  C   UNL     1       7.098   7.293  17.450  0.00  0.00    +0.000 C 
ATOM     19  C   UNL     1       7.792   8.383  17.617  0.00  0.00    +0.000 C 
BRANCH  19  20
ATOM     20  C   UNL     1       8.602   9.655  17.812  0.00  0.00    +0.000 C 
BRANCH  20  21
ATOM     21  N   UNL     1       8.991   9.849  19.202  0.00  0.00    +0.000 NA
ATOM     22  H   UNL     1       9.609   9.120  19.553  0.00  0.00    +0.000 HD
BRANCH  21  23
ATOM     23  S   UNL     1       9.698  11.361  19.485  0.00  0.00    +0.000 S 
ATOM     24  O   UNL     1      11.118  11.193  19.250  0.00  0.00    +0.000 OA
ATOM     25  O   UNL     1       8.926  12.332  18.748  0.00  0.00    +0.000 OA
BRANCH  23  26
ATOM     26  C   UNL     1       9.501  11.683  21.262  0.00  0.00    +0.000 C 
ATOM     27  C   UNL     1       9.783  13.109  21.656  0.00  0.00    +0.000 C 
ATOM     28  C   UNL     1       8.367  12.603  21.642  0.00  0.00    +0.000 C 
ENDBRANCH  23  26
ENDBRANCH  21  23
ENDBRANCH  20  21
ENDBRANCH  19  20
ENDBRANCH   5  18
TORSDOF 8
ENDMDL
MODEL 9
REMARK VINA RESULT:      -7.4      1.134      1.915
REMARK  Name = 
REMARK  9 active torsions:
REMARK  status: ('A' for Active; 'I' for Inactive)
REMARK    1  A    between atoms: C_1  and  O_2
REMARK    2  A    between atoms: O_2  and  C_3
REMARK    3  A    between atoms: C_8  and  C_9
REMARK    4  A    between atoms: C_12  and  N_13
REMARK    5  A    between atoms: C_14  and  C_15
REMARK    6  A    between atoms: C_16  and  C_17
REMARK    7  A    between atoms: C_17  and  N_18
REMARK    8  A    between atoms: N_18  and  S_19
REMARK    9  A    between atoms: S_19  and  C_22
REMARK                            x       y       z     vdW  Elec       q    Type
REMARK                         _______ _______ _______ _____ _____    ______ ____
ROOT
ATOM      1  C   UNL     1       4.853   4.890  18.373  0.00  0.00    +0.000 A 
ATOM      2  C   UNL     1       5.141   4.120  17.244  0.00  0.00    +0.000 A 
ATOM      3  N   UNL     1       6.072   4.419  16.298  0.00  0.00    +0.000 NA
ATOM      4  C   UNL     1       6.777   5.551  16.461  0.00  0.00    +0.000 A 
ATOM      5  C   UNL     1       6.619   6.371  17.578  0.00  0.00    +0.000 A 
ATOM      6  C   UNL     1       5.663   6.025  18.537  0.00  0.00    +0.000 A 
ENDROOT
BRANCH   1  12
ATOM      7  C   UNL     1       3.507   3.263  19.817  0.00  0.00    +0.000 A 
ATOM      8  C   UNL     1       2.444   3.027  20.702  0.00  0.00    +0.000 A 
ATOM      9  C   UNL     1       1.566   4.046  21.054  0.00  0.00    +0.000 A 
ATOM     10  C   UNL     1       1.765   5.323  20.553  0.00  0.00    +0.000 A 
ATOM     11  C   UNL     1       2.855   5.582  19.719  0.00  0.00    +0.000 A 
ATOM     12  C   UNL     1       3.756   4.567  19.323  0.00  0.00    +0.000 A 
BRANCH   7  14
ATOM     13  C   UNL     1       3.704   1.258  18.577  0.00  0.00    +0.000 C 
ATOM     14  O   UNL     1       4.328   2.235  19.408  0.00  0.00    +0.000 OA
ENDBRANCH   7  14
ENDBRANCH   1  12
BRANCH   4  15
ATOM     15  N   UNL     1       7.610   5.897  15.396  0.00  0.00    +0.000 N 
ATOM     16  H   UNL     1       7.926   5.037  14.959  0.00  0.00    +0.000 HD
ATOM     17  H   UNL     1       8.361   6.516  15.671  0.00  0.00    +0.000 HD
ENDBRANCH   4  15
BRANCH   5  18
ATOM     18  C   UNL     1       7.400   7.557  17.761  0.00  0.00    +0.000 C 
ATOM     19  C   UNL     1       8.066   8.667  17.913  0.00  0.00    +0.000 C 
BRANCH  19  20
ATOM     20  C   UNL     1       8.843   9.962  18.089  0.00  0.00    +0.000 C 
BRANCH  20  21
ATOM     21  N   UNL     1       9.490  10.039  19.391  0.00  0.00    +0.000 NA
ATOM     22  H   UNL     1      10.454   9.711  19.382  0.00  0.00    +0.000 HD
BRANCH  21  23
ATOM     23  S   UNL     1       9.439  11.592  20.064  0.00  0.00    +0.000 S 
ATOM     24  O   UNL     1       8.610  12.387  19.181  0.00  0.00    +0.000 OA
ATOM     25  O   UNL     1       9.112  11.436  21.460  0.00  0.00    +0.000 OA
BRANCH  23  26
ATOM     26  C   UNL     1      11.125  12.253  19.928  0.00  0.00    +0.000 C 
ATOM     27  C   UNL     1      12.050  11.396  19.104  0.00  0.00    +0.000 C 
ATOM     28  C   UNL     1      11.547  12.701  18.550  0.00  0.00    +0.000 C 
ENDBRANCH  23  26
ENDBRANCH  21  23
ENDBRANCH  20  21
ENDBRANCH  19  20
ENDBRANCH   5  18
TORSDOF 8
ENDMDL
