MODEL 1
REMARK VINA RESULT:      -7.0      0.000      0.000
REMARK  Name = 
REMARK  10 active torsions:
REMARK  status: ('A' for Active; 'I' for Inactive)
REMARK    1  A    between atoms: C_1  and  O_2
REMARK    2  A    between atoms: O_2  and  C_3
REMARK    3  A    between atoms: C_5  and  N_6
REMARK    4  A    between atoms: N_6  and  C_7
REMARK    5  A    between atoms: C_7  and  C_8
REMARK    6  A    between atoms: C_8  and  C_9
REMARK    7  A    between atoms: C_9  and  C_10
REMARK    8  A    between atoms: C_10  and  C_11
REMARK    9  A    between atoms: C_11  and  C_12
REMARK   10  A    between atoms: C_12  and  C_13
REMARK                            x       y       z     vdW  Elec       q    Type
REMARK                         _______ _______ _______ _____ _____    ______ ____
ROOT
ATOM      1  N   UNL     1       4.489   3.024  18.362  0.00  0.00    +0.000 N 
ATOM      2  H   UNL     1       5.185   2.668  19.027  0.00  0.00    +0.000 HD
ENDROOT
BRANCH   1   5
ATOM      3  C   UNL     1       5.523   4.577  15.117  0.00  0.00    +0.000 A 
ATOM      4  C   UNL     1       4.904   3.734  16.037  0.00  0.00    +0.000 A 
ATOM      5  C   UNL     1       5.199   3.812  17.408  0.00  0.00    +0.000 A 
ATOM      6  C   UNL     1       6.118   4.771  17.881  0.00  0.00    +0.000 A 
ATOM      7  N   UNL     1       6.411   4.832  19.203  0.00  0.00    +0.000 NA
ATOM      8  C   UNL     1       7.293   5.766  19.619  0.00  0.00    +0.000 A 
ATOM      9  C   UNL     1       7.918   6.665  18.778  0.00  0.00    +0.000 A 
ATOM     10  C   UNL     1       7.629   6.596  17.421  0.00  0.00    +0.000 A 
ATOM     11  C   UNL     1       6.725   5.637  16.946  0.00  0.00    +0.000 A 
ATOM     12  C   UNL     1       6.424   5.530  15.577  0.00  0.00    +0.000 A 
BRANCH   3  14
ATOM     13  C   UNL     1       5.987   3.559  13.020  0.00  0.00    +0.000 C 
ATOM     14  O   UNL     1       5.315   4.570  13.764  0.00  0.00    +0.000 OA
ENDBRANCH   3  14
ENDBRANCH   1   5
BRANCH   1  15
ATOM     15  C   UNL     1       3.599   2.003  17.834  0.00  0.00    +0.000 C 
BRANCH  15  16
ATOM     16  C   UNL     1       2.213   2.133  18.460  0.00  0.00    +0.000 C 
BRANCH  16  17
ATOM     17  C   UNL     1       2.285   2.237  19.985  0.00  0.00    +0.000 C 
BRANCH  17  18
ATOM     18  C   UNL     1       1.046   2.896  20.592  0.00  0.00    +0.000 C 
BRANCH  18  19
ATOM     19  C   UNL     1       0.997   4.383  20.259  0.00  0.00    +0.000 C 
BRANCH  19  20
ATOM     20  C   UNL     1       2.200   5.119  20.851  0.00  0.00    +0.000 C 
BRANCH  20  21
ATOM     21  C   UNL     1       2.642   6.319  19.996  0.00  0.00    +0.000 C 
ATOM     22  C   UNL     1       1.689   7.516  20.160  0.00  0.00    +0.000 C 
ATOM     23  C   UNL     1       2.061   8.661  19.227  0.00  0.00    +0.000 C 
ATOM     24  C   UNL     1       2.173   8.165  17.793  0.00  0.00    +0.000 C 
ATOM     25  C   UNL     1       3.116   6.969  17.702  0.00  0.00    +0.000 C 
ATOM     26  N   UNL     1       2.693   5.888  18.591  0.00  0.00    +0.000 NA
ATOM     27  H   UNL     1       3.340   5.105  18.498  0.00  0.00    +0.000 HD
ENDBRANCH  20  21
ENDBRANCH  19  20
ENDBRANCH  18  19
ENDBRANCH  17  18
ENDBRANCH  16  17
ENDBRANCH  15  16
ENDBRANCH   1  15
TORSDOF 9
ENDMDL
MODEL 2
REMARK VINA RESULT:      -7.0      3.631      6.977
REMARK  Name = 
REMARK  10 active torsions:
REMARK  status: ('A' for Active; 'I' for Inactive)
REMARK    1  A    between atoms: C_1  and  O_2
REMARK    2  A    between atoms: O_2  and  C_3
REMARK    3  A    between atoms: C_5  and  N_6
REMARK    4  A    between atoms: N_6  and  C_7
REMARK    5  A    between atoms: C_7  and  C_8
REMARK    6  A    between atoms: C_8  and  C_9
REMARK    7  A    between atoms: C_9  and  C_10
REMARK    8  A    between atoms: C_10  and  C_11
REMARK    9  A    between atoms: C_11  and  C_12
REMARK   10  A    between atoms: C_12  and  C_13
REMARK                            x       y       z     vdW  Elec       q    Type
REMARK                         _______ _______ _______ _____ _____    ______ ____
ROOT
ATOM      1  N   UNL     1       6.066   4.181  18.449  0.00  0.00    +0.000 N 
ATOM      2  H   UNL     1       6.171   3.620  19.302  0.00  0.00    +0.000 HD
ENDROOT
BRANCH   1   5
ATOM      3  C   UNL     1       3.400   6.754  17.919  0.00  0.00    +0.000 A 
ATOM      4  C   UNL     1       4.629   6.100  17.872  0.00  0.00    +0.000 A 
ATOM      5  C   UNL     1       4.845   4.906  18.580  0.00  0.00    +0.000 A 
ATOM      6  C   UNL     1       3.804   4.334  19.339  0.00  0.00    +0.000 A 
ATOM      7  N   UNL     1       4.022   3.191  20.034  0.00  0.00    +0.000 NA
ATOM      8  C   UNL     1       3.000   2.671  20.746  0.00  0.00    +0.000 A 
ATOM      9  C   UNL     1       1.740   3.235  20.811  0.00  0.00    +0.000 A 
ATOM     10  C   UNL     1       1.518   4.413  20.111  0.00  0.00    +0.000 A 
ATOM     11  C   UNL     1       2.554   4.991  19.365  0.00  0.00    +0.000 A 
ATOM     12  C   UNL     1       2.366   6.191  18.659  0.00  0.00    +0.000 A 
BRANCH   3  14
ATOM     13  C   UNL     1       2.168   8.786  17.930  0.00  0.00    +0.000 C 
ATOM     14  O   UNL     1       3.095   7.924  17.278  0.00  0.00    +0.000 OA
ENDBRANCH   3  14
ENDBRANCH   1   5
BRANCH   1  15
ATOM     15  C   UNL     1       7.249   4.949  18.097  0.00  0.00    +0.000 C 
BRANCH  15  16
ATOM     16  C   UNL     1       7.735   5.754  19.299  0.00  0.00    +0.000 C 
BRANCH  16  17
ATOM     17  C   UNL     1       8.362   7.084  18.879  0.00  0.00    +0.000 C 
BRANCH  17  18
ATOM     18  C   UNL     1       7.710   7.678  17.630  0.00  0.00    +0.000 C 
BRANCH  18  19
ATOM     19  C   UNL     1       7.837   9.197  17.615  0.00  0.00    +0.000 C 
BRANCH  19  20
ATOM     20  C   UNL     1       8.875   9.673  18.633  0.00  0.00    +0.000 C 
BRANCH  20  21
ATOM     21  C   UNL     1       9.665  10.900  18.146  0.00  0.00    +0.000 C 
ATOM     22  C   UNL     1      10.944  11.118  18.974  0.00  0.00    +0.000 C 
ATOM     23  C   UNL     1      11.664  12.397  18.568  0.00  0.00    +0.000 C 
ATOM     24  C   UNL     1      10.708  13.580  18.603  0.00  0.00    +0.000 C 
ATOM     25  C   UNL     1       9.456  13.294  17.780  0.00  0.00    +0.000 C 
ATOM     26  N   UNL     1       8.787  12.076  18.234  0.00  0.00    +0.000 NA
ATOM     27  H   UNL     1       7.952  11.921  17.669  0.00  0.00    +0.000 HD
ENDBRANCH  20  21
ENDBRANCH  19  20
ENDBRANCH  18  19
ENDBRANCH  17  18
ENDBRANCH  16  17
ENDBRANCH  15  16
ENDBRANCH   1  15
TORSDOF 9
ENDMDL
MODEL 3
REMARK VINA RESULT:      -6.9      4.042      7.555
REMARK  Name = 
REMARK  10 active torsions:
REMARK  status: ('A' for Active; 'I' for Inactive)
REMARK    1  A    between atoms: C_1  and  O_2
REMARK    2  A    between atoms: O_2  and  C_3
REMARK    3  A    between atoms: C_5  and  N_6
REMARK    4  A    between atoms: N_6  and  C_7
REMARK    5  A    between atoms: C_7  and  C_8
REMARK    6  A    between atoms: C_8  and  C_9
REMARK    7  A    between atoms: C_9  and  C_10
REMARK    8  A    between atoms: C_10  and  C_11
REMARK    9  A    between atoms: C_11  and  C_12
REMARK   10  A    between atoms: C_12  and  C_13
REMARK                            x       y       z     vdW  Elec       q    Type
REMARK                         _______ _______ _______ _____ _____    ______ ____
ROOT
ATOM      1  N   UNL     1       4.430   5.907  17.078  0.00  0.00    +0.000 N 
ATOM      2  H   UNL     1       4.527   4.894  16.944  0.00  0.00    +0.000 HD
ENDROOT
BRANCH   1   5
ATOM      3  C   UNL     1       2.148   7.470  19.600  0.00  0.00    +0.000 A 
ATOM      4  C   UNL     1       3.005   7.319  18.512  0.00  0.00    +0.000 A 
ATOM      5  C   UNL     1       3.637   6.092  18.249  0.00  0.00    +0.000 A 
ATOM      6  C   UNL     1       3.393   4.978  19.077  0.00  0.00    +0.000 A 
ATOM      7  N   UNL     1       4.018   3.801  18.829  0.00  0.00    +0.000 NA
ATOM      8  C   UNL     1       3.756   2.755  19.642  0.00  0.00    +0.000 A 
ATOM      9  C   UNL     1       2.888   2.811  20.715  0.00  0.00    +0.000 A 
ATOM     10  C   UNL     1       2.257   4.019  20.979  0.00  0.00    +0.000 A 
ATOM     11  C   UNL     1       2.506   5.132  20.165  0.00  0.00    +0.000 A 
ATOM     12  C   UNL     1       1.896   6.373  20.416  0.00  0.00    +0.000 A 
BRANCH   3  14
ATOM     13  C   UNL     1       0.752   8.594  21.160  0.00  0.00    +0.000 C 
ATOM     14  O   UNL     1       1.497   8.623  19.947  0.00  0.00    +0.000 OA
ENDBRANCH   3  14
ENDBRANCH   1   5
BRANCH   1  15
ATOM     15  C   UNL     1       5.686   6.636  17.016  0.00  0.00    +0.000 C 
BRANCH  15  16
ATOM     16  C   UNL     1       6.787   5.854  17.727  0.00  0.00    +0.000 C 
BRANCH  16  17
ATOM     17  C   UNL     1       7.844   6.781  18.331  0.00  0.00    +0.000 C 
BRANCH  17  18
ATOM     18  C   UNL     1       7.842   8.173  17.698  0.00  0.00    +0.000 C 
BRANCH  18  19
ATOM     19  C   UNL     1       8.639   9.160  18.543  0.00  0.00    +0.000 C 
BRANCH  19  20
ATOM     20  C   UNL     1       8.675  10.542  17.887  0.00  0.00    +0.000 C 
BRANCH  20  21
ATOM     21  C   UNL     1       9.978  11.305  18.181  0.00  0.00    +0.000 C 
ATOM     22  C   UNL     1      10.377  11.199  19.663  0.00  0.00    +0.000 C 
ATOM     23  C   UNL     1      11.602  12.049  19.976  0.00  0.00    +0.000 C 
ATOM     24  C   UNL     1      11.392  13.480  19.503  0.00  0.00    +0.000 C 
ATOM     25  C   UNL     1      10.981  13.515  18.035  0.00  0.00    +0.000 C 
ATOM     26  N   UNL     1       9.783  12.711  17.798  0.00  0.00    +0.000 NA
ATOM     27  H   UNL     1       9.534  12.765  16.810  0.00  0.00    +0.000 HD
ENDBRANCH  20  21
ENDBRANCH  19  20
ENDBRANCH  18  19
ENDBRANCH  17  18
ENDBRANCH  16  17
ENDBRANCH  15  16
ENDBRANCH   1  15
TORSDOF 9
ENDMDL
MODEL 4
REMARK VINA RESULT:      -6.7      3.760      6.305
REMARK  Name = 
REMARK  10 active torsions:
REMARK  status: ('A' for Active; 'I' for Inactive)
REMARK    1  A    between atoms: C_1  and  O_2
REMARK    2  A    between atoms: O_2  and  C_3
REMARK    3  A    between atoms: C_5  and  N_6
REMARK    4  A    between atoms: N_6  and  C_7
REMARK    5  A    between atoms: C_7  and  C_8
REMARK    6  A    between atoms: C_8  and  C_9
REMARK    7  A    between atoms: C_9  and  C_10
REMARK    8  A    between atoms: C_10  and  C_11
REMARK    9  A    between atoms: C_11  and  C_12
REMARK   10  A    between atoms: C_12  and  C_13
REMARK                            x       y       z     vdW  Elec       q    Type
REMARK                         _______ _______ _______ _____ _____    ______ ____
ROOT
ATOM      1  N   UNL     1       1.824   6.889  20.687  0.00  0.00    +0.000 N 
ATOM      2  H   UNL     1       1.054   6.303  21.030  0.00  0.00    +0.000 HD
ENDROOT
BRANCH   1   5
ATOM      3  C   UNL     1       3.912   6.185  17.662  0.00  0.00    +0.000 A 
ATOM      4  C   UNL     1       3.308   6.863  18.718  0.00  0.00    +0.000 A 
ATOM      5  C   UNL     1       2.364   6.230  19.543  0.00  0.00    +0.000 A 
ATOM      6  C   UNL     1       2.025   4.879  19.325  0.00  0.00    +0.000 A 
ATOM      7  N   UNL     1       1.101   4.278  20.113  0.00  0.00    +0.000 NA
ATOM      8  C   UNL     1       0.806   2.982  19.877  0.00  0.00    +0.000 A 
ATOM      9  C   UNL     1       1.389   2.228  18.877  0.00  0.00    +0.000 A 
ATOM     10  C   UNL     1       2.327   2.845  18.060  0.00  0.00    +0.000 A 
ATOM     11  C   UNL     1       2.657   4.192  18.266  0.00  0.00    +0.000 A 
ATOM     12  C   UNL     1       3.590   4.850  17.446  0.00  0.00    +0.000 A 
BRANCH   3  14
ATOM     13  C   UNL     1       5.157   5.931  15.653  0.00  0.00    +0.000 C 
ATOM     14  O   UNL     1       4.831   6.715  16.797  0.00  0.00    +0.000 OA
ENDBRANCH   3  14
ENDBRANCH   1   5
BRANCH   1  15
ATOM     15  C   UNL     1       1.476   8.292  20.531  0.00  0.00    +0.000 C 
BRANCH  15  16
ATOM     16  C   UNL     1       0.142   8.585  21.211  0.00  0.00    +0.000 C 
BRANCH  16  17
ATOM     17  C   UNL     1      -0.208  10.074  21.162  0.00  0.00    +0.000 C 
BRANCH  17  18
ATOM     18  C   UNL     1       0.621  10.842  20.132  0.00  0.00    +0.000 C 
BRANCH  18  19
ATOM     19  C   UNL     1      -0.217  11.196  18.908  0.00  0.00    +0.000 C 
BRANCH  19  20
ATOM     20  C   UNL     1      -1.688  11.380  19.283  0.00  0.00    +0.000 C 
BRANCH  20  21
ATOM     21  C   UNL     1      -2.648  10.818  18.219  0.00  0.00    +0.000 C 
ATOM     22  C   UNL     1      -1.900   9.988  17.162  0.00  0.00    +0.000 C 
ATOM     23  C   UNL     1      -2.832   9.529  16.047  0.00  0.00    +0.000 C 
ATOM     24  C   UNL     1      -3.590  10.713  15.466  0.00  0.00    +0.000 C 
ATOM     25  C   UNL     1      -4.292  11.504  16.565  0.00  0.00    +0.000 C 
ATOM     26  N   UNL     1      -3.347  11.948  17.589  0.00  0.00    +0.000 NA
ATOM     27  H   UNL     1      -3.849  12.479  18.301  0.00  0.00    +0.000 HD
ENDBRANCH  20  21
ENDBRANCH  19  20
ENDBRANCH  18  19
ENDBRANCH  17  18
ENDBRANCH  16  17
ENDBRANCH  15  16
ENDBRANCH   1  15
TORSDOF 9
ENDMDL
MODEL 5
REMARK VINA RESULT:      -6.5      4.723      8.027
REMARK  Name = 
REMARK  10 active torsions:
REMARK  status: ('A' for Active; 'I' for Inactive)
REMARK    1  A    between atoms: C_1  and  O_2
REMARK    2  A    between atoms: O_2  and  C_3
REMARK    3  A    between atoms: C_5  and  N_6
REMARK    4  A    between atoms: N_6  and  C_7
REMARK    5  A    between atoms: C_7  and  C_8
REMARK    6  A    between atoms: C_8  and  C_9
REMARK    7  A    between atoms: C_9  and  C_10
REMARK    8  A    between atoms: C_10  and  C_11
REMARK    9  A    between atoms: C_11  and  C_12
REMARK   10  A    between atoms: C_12  and  C_13
REMARK                            x       y       z     vdW  Elec       q    Type
REMARK                         _______ _______ _______ _____ _____    ______ ____
ROOT
ATOM      1  N   UNL     1       6.231   5.264  17.818  0.00  0.00    +0.000 N 
ATOM      2  H   UNL     1       6.546   4.991  18.756  0.00  0.00    +0.000 HD
ENDROOT
BRANCH   1   5
ATOM      3  C   UNL     1       3.177   7.425  17.926  0.00  0.00    +0.000 A 
ATOM      4  C   UNL     1       4.513   7.030  17.908  0.00  0.00    +0.000 A 
ATOM      5  C   UNL     1       4.870   5.672  17.943  0.00  0.00    +0.000 A 
ATOM      6  C   UNL     1       3.871   4.678  17.974  0.00  0.00    +0.000 A 
ATOM      7  N   UNL     1       4.222   3.369  18.025  0.00  0.00    +0.000 NA
ATOM      8  C   UNL     1       3.237   2.445  18.049  0.00  0.00    +0.000 A 
ATOM      9  C   UNL     1       1.891   2.752  18.028  0.00  0.00    +0.000 A 
ATOM     10  C   UNL     1       1.529   4.092  17.989  0.00  0.00    +0.000 A 
ATOM     11  C   UNL     1       2.520   5.084  17.970  0.00  0.00    +0.000 A 
ATOM     12  C   UNL     1       2.187   6.449  17.948  0.00  0.00    +0.000 A 
BRANCH   3  14
ATOM     13  C   UNL     1       1.318   8.903  17.825  0.00  0.00    +0.000 C 
ATOM     14  O   UNL     1       2.728   8.718  17.908  0.00  0.00    +0.000 OA
ENDBRANCH   3  14
ENDBRANCH   1   5
BRANCH   1  15
ATOM     15  C   UNL     1       7.129   6.181  17.136  0.00  0.00    +0.000 C 
BRANCH  15  16
ATOM     16  C   UNL     1       7.923   6.999  18.151  0.00  0.00    +0.000 C 
BRANCH  16  17
ATOM     17  C   UNL     1       7.991   8.477  17.763  0.00  0.00    +0.000 C 
BRANCH  17  18
ATOM     18  C   UNL     1       8.751   9.323  18.785  0.00  0.00    +0.000 C 
BRANCH  18  19
ATOM     19  C   UNL     1       9.232  10.630  18.166  0.00  0.00    +0.000 C 
BRANCH  19  20
ATOM     20  C   UNL     1      10.443  11.183  18.921  0.00  0.00    +0.000 C 
BRANCH  20  21
ATOM     21  C   UNL     1      10.632  12.695  18.713  0.00  0.00    +0.000 C 
ATOM     22  C   UNL     1      10.959  13.031  17.247  0.00  0.00    +0.000 C 
ATOM     23  C   UNL     1      11.260  14.513  17.064  0.00  0.00    +0.000 C 
ATOM     24  C   UNL     1      12.333  14.963  18.045  0.00  0.00    +0.000 C 
ATOM     25  C   UNL     1      11.960  14.585  19.474  0.00  0.00    +0.000 C 
ATOM     26  N   UNL     1      11.715  13.149  19.599  0.00  0.00    +0.000 NA
ATOM     27  H   UNL     1      11.477  12.932  20.568  0.00  0.00    +0.000 HD
ENDBRANCH  20  21
ENDBRANCH  19  20
ENDBRANCH  18  19
ENDBRANCH  17  18
ENDBRANCH  16  17
ENDBRANCH  15  16
ENDBRANCH   1  15
TORSDOF 9
ENDMDL
MODEL 6
REMARK VINA RESULT:      -6.5      1.042      1.410
REMARK  Name = 
REMARK  10 active torsions:
REMARK  status: ('A' for Active; 'I' for Inactive)
REMARK    1  A    between atoms: C_1  and  O_2
REMARK    2  A    between atoms: O_2  and  C_3
REMARK    3  A    between atoms: C_5  and  N_6
REMARK    4  A    between atoms: N_6  and  C_7
REMARK    5  A    between atoms: C_7  and  C_8
REMARK    6  A    between atoms: C_8  and  C_9
REMARK    7  A    between atoms: C_9  and  C_10
REMARK    8  A    between atoms: C_10  and  C_11
REMARK    9  A    between atoms: C_11  and  C_12
REMARK   10  A    between atoms: C_12  and  C_13
REMARK                            x       y       z     vdW  Elec       q    Type
REMARK                         _______ _______ _______ _____ _____    ______ ____
ROOT
ATOM      1  N   UNL     1       3.526   3.516  17.296  0.00  0.00    +0.000 N 
ATOM      2  H   UNL     1       3.238   4.280  17.919  0.00  0.00    +0.000 HD
ENDROOT
BRANCH   1   5
ATOM      3  C   UNL     1       6.162   4.244  14.740  0.00  0.00    +0.000 A 
ATOM      4  C   UNL     1       4.994   3.766  15.331  0.00  0.00    +0.000 A 
ATOM      5  C   UNL     1       4.766   3.908  16.709  0.00  0.00    +0.000 A 
ATOM      6  C   UNL     1       5.715   4.562  17.521  0.00  0.00    +0.000 A 
ATOM      7  N   UNL     1       5.498   4.682  18.853  0.00  0.00    +0.000 NA
ATOM      8  C   UNL     1       6.428   5.318  19.597  0.00  0.00    +0.000 A 
ATOM      9  C   UNL     1       7.592   5.855  19.083  0.00  0.00    +0.000 A 
ATOM     10  C   UNL     1       7.823   5.722  17.720  0.00  0.00    +0.000 A 
ATOM     11  C   UNL     1       6.886   5.062  16.912  0.00  0.00    +0.000 A 
ATOM     12  C   UNL     1       7.099   4.897  15.533  0.00  0.00    +0.000 A 
BRANCH   3  14
ATOM     13  C   UNL     1       5.599   3.379  12.599  0.00  0.00    +0.000 C 
ATOM     14  O   UNL     1       6.482   4.143  13.413  0.00  0.00    +0.000 OA
ENDBRANCH   3  14
ENDBRANCH   1   5
BRANCH   1  15
ATOM     15  C   UNL     1       3.482   2.201  17.914  0.00  0.00    +0.000 C 
BRANCH  15  16
ATOM     16  C   UNL     1       3.071   2.318  19.379  0.00  0.00    +0.000 C 
BRANCH  16  17
ATOM     17  C   UNL     1       1.553   2.435  19.537  0.00  0.00    +0.000 C 
BRANCH  17  18
ATOM     18  C   UNL     1       1.102   3.853  19.888  0.00  0.00    +0.000 C 
BRANCH  18  19
ATOM     19  C   UNL     1       1.982   4.455  20.977  0.00  0.00    +0.000 C 
BRANCH  19  20
ATOM     20  C   UNL     1       2.853   5.583  20.421  0.00  0.00    +0.000 C 
BRANCH  20  21
ATOM     21  C   UNL     1       2.031   6.676  19.716  0.00  0.00    +0.000 C 
ATOM     22  C   UNL     1       2.749   7.208  18.464  0.00  0.00    +0.000 C 
ATOM     23  C   UNL     1       1.990   8.368  17.832  0.00  0.00    +0.000 C 
ATOM     24  C   UNL     1       1.700   9.442  18.870  0.00  0.00    +0.000 C 
ATOM     25  C   UNL     1       1.006   8.849  20.091  0.00  0.00    +0.000 C 
ATOM     26  N   UNL     1       1.793   7.764  20.676  0.00  0.00    +0.000 NA
ATOM     27  H   UNL     1       1.304   7.397  21.493  0.00  0.00    +0.000 HD
ENDBRANCH  20  21
ENDBRANCH  19  20
ENDBRANCH  18  19
ENDBRANCH  17  18
ENDBRANCH  16  17
ENDBRANCH  15  16
ENDBRANCH   1  15
TORSDOF 9
ENDMDL
MODEL 7
REMARK VINA RESULT:      -6.4      4.379      7.314
REMARK  Name = 
REMARK  10 active torsions:
REMARK  status: ('A' for Active; 'I' for Inactive)
REMARK    1  A    between atoms: C_1  and  O_2
REMARK    2  A    between atoms: O_2  and  C_3
REMARK    3  A    between atoms: C_5  and  N_6
REMARK    4  A    between atoms: N_6  and  C_7
REMARK    5  A    between atoms: C_7  and  C_8
REMARK    6  A    between atoms: C_8  and  C_9
REMARK    7  A    between atoms: C_9  and  C_10
REMARK    8  A    between atoms: C_10  and  C_11
REMARK    9  A    between atoms: C_11  and  C_12
REMARK   10  A    between atoms: C_12  and  C_13
REMARK                            x       y       z     vdW  Elec       q    Type
REMARK                         _______ _______ _______ _____ _____    ______ ____
ROOT
ATOM      1  N   UNL     1       7.388   5.740  18.970  0.00  0.00    +0.000 N 
ATOM      2  H   UNL     1       6.767   5.866  19.777  0.00  0.00    +0.000 HD
ENDROOT
BRANCH   1   5
ATOM      3  C   UNL     1       6.366   4.338  15.654  0.00  0.00    +0.000 A 
ATOM      4  C   UNL     1       7.143   4.896  16.666  0.00  0.00    +0.000 A 
ATOM      5  C   UNL     1       6.576   5.268  17.896  0.00  0.00    +0.000 A 
ATOM      6  C   UNL     1       5.202   5.061  18.134  0.00  0.00    +0.000 A 
ATOM      7  N   UNL     1       4.657   5.438  19.316  0.00  0.00    +0.000 NA
ATOM      8  C   UNL     1       3.339   5.220  19.510  0.00  0.00    +0.000 A 
ATOM      9  C   UNL     1       2.508   4.635  18.574  0.00  0.00    +0.000 A 
ATOM     10  C   UNL     1       3.062   4.260  17.357  0.00  0.00    +0.000 A 
ATOM     11  C   UNL     1       4.425   4.476  17.112  0.00  0.00    +0.000 A 
ATOM     12  C   UNL     1       5.012   4.122  15.885  0.00  0.00    +0.000 A 
BRANCH   3  14
ATOM     13  C   UNL     1       5.832   3.722  13.421  0.00  0.00    +0.000 C 
ATOM     14  O   UNL     1       6.819   3.954  14.420  0.00  0.00    +0.000 OA
ENDBRANCH   3  14
ENDBRANCH   1   5
BRANCH   1  15
ATOM     15  C   UNL     1       8.237   6.887  18.693  0.00  0.00    +0.000 C 
BRANCH  15  16
ATOM     16  C   UNL     1       7.619   7.752  17.598  0.00  0.00    +0.000 C 
BRANCH  16  17
ATOM     17  C   UNL     1       7.708   9.243  17.931  0.00  0.00    +0.000 C 
BRANCH  17  18
ATOM     18  C   UNL     1       9.138   9.701  18.218  0.00  0.00    +0.000 C 
BRANCH  18  19
ATOM     19  C   UNL     1       9.242  10.337  19.600  0.00  0.00    +0.000 C 
BRANCH  19  20
ATOM     20  C   UNL     1      10.375  11.364  19.648  0.00  0.00    +0.000 C 
BRANCH  20  21
ATOM     21  C   UNL     1      10.341  12.343  18.461  0.00  0.00    +0.000 C 
ATOM     22  C   UNL     1      11.693  12.397  17.730  0.00  0.00    +0.000 C 
ATOM     23  C   UNL     1      11.694  13.450  16.629  0.00  0.00    +0.000 C 
ATOM     24  C   UNL     1      11.245  14.796  17.179  0.00  0.00    +0.000 C 
ATOM     25  C   UNL     1       9.910  14.671  17.907  0.00  0.00    +0.000 C 
ATOM     26  N   UNL     1       9.977  13.672  18.973  0.00  0.00    +0.000 NA
ATOM     27  H   UNL     1       9.072  13.622  19.442  0.00  0.00    +0.000 HD
ENDBRANCH  20  21
ENDBRANCH  19  20
ENDBRANCH  18  19
ENDBRANCH  17  18
ENDBRANCH  16  17
ENDBRANCH  15  16
ENDBRANCH   1  15
TORSDOF 9
ENDMDL
MODEL 8
REMARK VINA RESULT:      -6.4      4.031      7.269
REMARK  Name = 
REMARK  10 active torsions:
REMARK  status: ('A' for Active; 'I' for Inactive)
REMARK    1  A    between atoms: C_1  and  O_2
REMARK    2  A    between atoms: O_2  and  C_3
REMARK    3  A    between atoms: C_5  and  N_6
REMARK    4  A    between atoms: N_6  and  C_7
REMARK    5  A    between atoms: C_7  and  C_8
REMARK    6  A    between atoms: C_8  and  C_9
REMARK    7  A    between atoms: C_9  and  C_10
REMARK    8  A    between atoms: C_10  and  C_11
REMARK    9  A    between atoms: C_11  and  C_12
REMARK   10  A    between atoms: C_12  and  C_13
REMARK                            x       y       z     vdW  Elec       q    Type
REMARK                         _______ _______ _______ _____ _____    ______ ____
ROOT
ATOM      1  N   UNL     1       6.017   5.152  18.838  0.00  0.00    +0.000 N 
ATOM      2  H   UNL     1       6.348   5.905  19.452  0.00  0.00    +0.000 HD
ENDROOT
BRANCH   1   5
ATOM      3  C   UNL     1       2.762   6.831  18.068  0.00  0.00    +0.000 A 
ATOM      4  C   UNL     1       4.110   6.641  18.360  0.00  0.00    +0.000 A 
ATOM      5  C   UNL     1       4.620   5.363  18.643  0.00  0.00    +0.000 A 
ATOM      6  C   UNL     1       3.770   4.239  18.614  0.00  0.00    +0.000 A 
ATOM      7  N   UNL     1       4.263   3.010  18.904  0.00  0.00    +0.000 NA
ATOM      8  C   UNL     1       3.419   1.957  18.861  0.00  0.00    +0.000 A 
ATOM      9  C   UNL     1       2.079   2.055  18.540  0.00  0.00    +0.000 A 
ATOM     10  C   UNL     1       1.569   3.314  18.255  0.00  0.00    +0.000 A 
ATOM     11  C   UNL     1       2.409   4.436  18.295  0.00  0.00    +0.000 A 
ATOM     12  C   UNL     1       1.919   5.726  18.028  0.00  0.00    +0.000 A 
BRANCH   3  14
ATOM     13  C   UNL     1       1.719   8.794  18.909  0.00  0.00    +0.000 C 
ATOM     14  O   UNL     1       2.168   8.033  17.792  0.00  0.00    +0.000 OA
ENDBRANCH   3  14
ENDBRANCH   1   5
BRANCH   1  15
ATOM     15  C   UNL     1       6.824   4.967  17.643  0.00  0.00    +0.000 C 
BRANCH  15  16
ATOM     16  C   UNL     1       7.274   6.318  17.093  0.00  0.00    +0.000 C 
BRANCH  16  17
ATOM     17  C   UNL     1       7.848   7.217  18.190  0.00  0.00    +0.000 C 
BRANCH  17  18
ATOM     18  C   UNL     1       8.089   8.650  17.714  0.00  0.00    +0.000 C 
BRANCH  18  19
ATOM     19  C   UNL     1       8.795   9.471  18.786  0.00  0.00    +0.000 C 
BRANCH  19  20
ATOM     20  C   UNL     1       9.353  10.772  18.204  0.00  0.00    +0.000 C 
BRANCH  20  21
ATOM     21  C   UNL     1       9.255  11.953  19.185  0.00  0.00    +0.000 C 
ATOM     22  C   UNL     1       9.783  13.256  18.560  0.00  0.00    +0.000 C 
ATOM     23  C   UNL     1       9.793  14.398  19.569  0.00  0.00    +0.000 C 
ATOM     24  C   UNL     1      10.534  13.985  20.832  0.00  0.00    +0.000 C 
ATOM     25  C   UNL     1       9.977  12.679  21.390  0.00  0.00    +0.000 C 
ATOM     26  N   UNL     1      10.022  11.611  20.392  0.00  0.00    +0.000 NA
ATOM     27  H   UNL     1       9.651  10.754  20.802  0.00  0.00    +0.000 HD
ENDBRANCH  20  21
ENDBRANCH  19  20
ENDBRANCH  18  19
ENDBRANCH  17  18
ENDBRANCH  16  17
ENDBRANCH  15  16
ENDBRANCH   1  15
TORSDOF 9
ENDMDL
MODEL 9
REMARK VINA RESULT:      -6.4      5.394      7.974
REMARK  Name = 
REMARK  10 active torsions:
REMARK  status: ('A' for Active; 'I' for Inactive)
REMARK    1  A    between atoms: C_1  and  O_2
REMARK    2  A    between atoms: O_2  and  C_3
REMARK    3  A    between atoms: C_5  and  N_6
REMARK    4  A    between atoms: N_6  and  C_7
REMARK    5  A    between atoms: C_7  and  C_8
REMARK    6  A    between atoms: C_8  and  C_9
REMARK    7  A    between atoms: C_9  and  C_10
REMARK    8  A    between atoms: C_10  and  C_11
REMARK    9  A    between atoms: C_11  and  C_12
REMARK   10  A    between atoms: C_12  and  C_13
REMARK                            x       y       z     vdW  Elec       q    Type
REMARK                         _______ _______ _______ _____ _____    ______ ____
ROOT
ATOM      1  N   UNL     1       9.210   9.731  19.274  0.00  0.00    +0.000 N 
ATOM      2  H   UNL     1       9.960   9.034  19.208  0.00  0.00    +0.000 HD
ENDROOT
BRANCH   1   5
ATOM      3  C   UNL     1      11.236  12.852  18.865  0.00  0.00    +0.000 A 
ATOM      4  C   UNL     1      10.707  11.584  18.635  0.00  0.00    +0.000 A 
ATOM      5  C   UNL     1       9.835  10.982  19.557  0.00  0.00    +0.000 A 
ATOM      6  C   UNL     1       9.460  11.668  20.730  0.00  0.00    +0.000 A 
ATOM      7  N   UNL     1       8.631  11.077  21.624  0.00  0.00    +0.000 NA
ATOM      8  C   UNL     1       8.291  11.766  22.734  0.00  0.00    +0.000 A 
ATOM      9  C   UNL     1       8.739  13.042  23.016  0.00  0.00    +0.000 A 
ATOM     10  C   UNL     1       9.599  13.646  22.108  0.00  0.00    +0.000 A 
ATOM     11  C   UNL     1       9.982  12.962  20.946  0.00  0.00    +0.000 A 
ATOM     12  C   UNL     1      10.864  13.538  20.016  0.00  0.00    +0.000 A 
BRANCH   3  14
ATOM     13  C   UNL     1      11.906  13.343  16.638  0.00  0.00    +0.000 C 
ATOM     14  O   UNL     1      12.100  13.517  18.038  0.00  0.00    +0.000 OA
ENDBRANCH   3  14
ENDBRANCH   1   5
BRANCH   1  15
ATOM     15  C   UNL     1       8.277   9.704  18.159  0.00  0.00    +0.000 C 
BRANCH  15  16
ATOM     16  C   UNL     1       8.044   8.268  17.698  0.00  0.00    +0.000 C 
BRANCH  16  17
ATOM     17  C   UNL     1       8.305   7.260  18.820  0.00  0.00    +0.000 C 
BRANCH  17  18
ATOM     18  C   UNL     1       7.537   5.952  18.630  0.00  0.00    +0.000 C 
BRANCH  18  19
ATOM     19  C   UNL     1       6.774   5.950  17.311  0.00  0.00    +0.000 C 
BRANCH  19  20
ATOM     20  C   UNL     1       6.472   4.522  16.852  0.00  0.00    +0.000 C 
BRANCH  20  21
ATOM     21  C   UNL     1       5.083   4.035  17.301  0.00  0.00    +0.000 C 
ATOM     22  C   UNL     1       4.050   5.175  17.288  0.00  0.00    +0.000 C 
ATOM     23  C   UNL     1       2.705   4.720  17.841  0.00  0.00    +0.000 C 
ATOM     24  C   UNL     1       2.883   4.076  19.208  0.00  0.00    +0.000 C 
ATOM     25  C   UNL     1       3.931   2.969  19.158  0.00  0.00    +0.000 C 
ATOM     26  N   UNL     1       5.209   3.468  18.652  0.00  0.00    +0.000 NA
ATOM     27  H   UNL     1       5.886   2.705  18.640  0.00  0.00    +0.000 HD
ENDBRANCH  20  21
ENDBRANCH  19  20
ENDBRANCH  18  19
ENDBRANCH  17  18
ENDBRANCH  16  17
ENDBRANCH  15  16
ENDBRANCH   1  15
TORSDOF 9
ENDMDL
