MODEL 1
REMARK VINA RESULT:      -7.9      0.000      0.000
REMARK  Name = 
REMARK  6 active torsions:
REMARK  status: ('A' for Active; 'I' for Inactive)
REMARK    1  A    between atoms: C_1  and  O_2
REMARK    2  A    between atoms: O_2  and  C_3
REMARK    3  A    between atoms: C_8  and  C_9
REMARK    4  A    between atoms: C_9  and  O_10
REMARK    5  A    between atoms: N_15  and  C_16
REMARK    6  A    between atoms: C_16  and  C_17
REMARK                            x       y       z     vdW  Elec       q    Type
REMARK                         _______ _______ _______ _____ _____    ______ ____
ROOT
ATOM      1  C   UNL     1       4.469   3.910  18.956  0.00  0.00    +0.000 C 
ATOM      2  C   UNL     1       5.001   4.837  18.130  0.00  0.00    +0.000 C 
ATOM      3  C   UNL     1       4.305   5.876  17.333  0.00  0.00    +0.000 C 
ATOM      4  O   UNL     1       3.242   6.412  17.603  0.00  0.00    +0.000 OA
ATOM      5  C   UNL     1       5.084   6.114  16.067  0.00  0.00    +0.000 C 
ATOM      6  N   UNL     1       6.378   5.562  16.429  0.00  0.00    +0.000 N 
ATOM      7  C   UNL     1       6.407   4.827  17.616  0.00  0.00    +0.000 C 
ATOM      8  O   UNL     1       7.382   4.279  18.097  0.00  0.00    +0.000 OA
ENDROOT
BRANCH   1  14
ATOM      9  C   UNL     1       2.194   4.357  20.090  0.00  0.00    +0.000 A 
ATOM     10  C   UNL     1       0.891   3.922  20.402  0.00  0.00    +0.000 A 
ATOM     11  C   UNL     1       0.328   2.830  19.753  0.00  0.00    +0.000 A 
ATOM     12  C   UNL     1       1.079   2.133  18.825  0.00  0.00    +0.000 A 
ATOM     13  C   UNL     1       2.405   2.503  18.583  0.00  0.00    +0.000 A 
ATOM     14  C   UNL     1       3.002   3.633  19.179  0.00  0.00    +0.000 A 
BRANCH   9  16
ATOM     15  C   UNL     1       1.888   6.611  20.708  0.00  0.00    +0.000 C 
ATOM     16  O   UNL     1       2.740   5.459  20.718  0.00  0.00    +0.000 OA
ENDBRANCH   9  16
ENDBRANCH   1  14
BRANCH   1  17
ATOM     17  O   UNL     1       5.316   2.995  19.570  0.00  0.00    +0.000 OA
ATOM     18  H   UNL     1       6.171   3.436  19.744  0.00  0.00    +0.000 HD
ENDBRANCH   1  17
BRANCH   6  19
ATOM     19  C   UNL     1       7.479   5.593  15.481  0.00  0.00    +0.000 C 
BRANCH  19  20
ATOM     20  C   UNL     1       7.161   4.966  14.144  0.00  0.00    +0.000 A 
ATOM     21  C   UNL     1       7.837   5.375  12.987  0.00  0.00    +0.000 A 
ATOM     22  C   UNL     1       7.614   4.737  11.765  0.00  0.00    +0.000 A 
ATOM     23  C   UNL     1       6.710   3.681  11.681  0.00  0.00    +0.000 A 
ATOM     24  C   UNL     1       6.019   3.270  12.822  0.00  0.00    +0.000 A 
ATOM     25  C   UNL     1       6.245   3.904  14.041  0.00  0.00    +0.000 A 
ENDBRANCH  19  20
ENDBRANCH   6  19
TORSDOF 5
ENDMDL
MODEL 2
REMARK VINA RESULT:      -7.8      0.903      1.900
REMARK  Name = 
REMARK  6 active torsions:
REMARK  status: ('A' for Active; 'I' for Inactive)
REMARK    1  A    between atoms: C_1  and  O_2
REMARK    2  A    between atoms: O_2  and  C_3
REMARK    3  A    between atoms: C_8  and  C_9
REMARK    4  A    between atoms: C_9  and  O_10
REMARK    5  A    between atoms: N_15  and  C_16
REMARK    6  A    between atoms: C_16  and  C_17
REMARK                            x       y       z     vdW  Elec       q    Type
REMARK                         _______ _______ _______ _____ _____    ______ ____
ROOT
ATOM      1  C   UNL     1       4.779   4.178  19.122  0.00  0.00    +0.000 C 
ATOM      2  C   UNL     1       5.259   5.068  18.227  0.00  0.00    +0.000 C 
ATOM      3  C   UNL     1       4.524   6.115  17.477  0.00  0.00    +0.000 C 
ATOM      4  O   UNL     1       3.511   6.695  17.836  0.00  0.00    +0.000 OA
ATOM      5  C   UNL     1       5.182   6.299  16.136  0.00  0.00    +0.000 C 
ATOM      6  N   UNL     1       6.486   5.707  16.383  0.00  0.00    +0.000 N 
ATOM      7  C   UNL     1       6.606   4.996  17.579  0.00  0.00    +0.000 C 
ATOM      8  O   UNL     1       7.604   4.422  17.975  0.00  0.00    +0.000 OA
ENDROOT
BRANCH   1  14
ATOM      9  C   UNL     1       2.476   3.052  18.824  0.00  0.00    +0.000 A 
ATOM     10  C   UNL     1       1.091   3.040  19.084  0.00  0.00    +0.000 A 
ATOM     11  C   UNL     1       0.544   3.847  20.074  0.00  0.00    +0.000 A 
ATOM     12  C   UNL     1       1.366   4.709  20.777  0.00  0.00    +0.000 A 
ATOM     13  C   UNL     1       2.724   4.793  20.455  0.00  0.00    +0.000 A 
ATOM     14  C   UNL     1       3.333   3.959  19.495  0.00  0.00    +0.000 A 
BRANCH   9  16
ATOM     15  C   UNL     1       3.646   1.053  18.386  0.00  0.00    +0.000 C 
ATOM     16  O   UNL     1       3.020   2.228  17.858  0.00  0.00    +0.000 OA
ENDBRANCH   9  16
ENDBRANCH   1  14
BRANCH   1  17
ATOM     17  O   UNL     1       5.650   3.245  19.673  0.00  0.00    +0.000 OA
ATOM     18  H   UNL     1       6.415   3.147  19.073  0.00  0.00    +0.000 HD
ENDBRANCH   1  17
BRANCH   6  19
ATOM     19  C   UNL     1       7.489   5.679  15.332  0.00  0.00    +0.000 C 
BRANCH  19  20
ATOM     20  C   UNL     1       7.054   4.949  14.083  0.00  0.00    +0.000 A 
ATOM     21  C   UNL     1       7.734   5.141  12.873  0.00  0.00    +0.000 A 
ATOM     22  C   UNL     1       7.396   4.401  11.737  0.00  0.00    +0.000 A 
ATOM     23  C   UNL     1       6.371   3.459  11.794  0.00  0.00    +0.000 A 
ATOM     24  C   UNL     1       5.676   3.266  12.988  0.00  0.00    +0.000 A 
ATOM     25  C   UNL     1       6.015   4.001  14.122  0.00  0.00    +0.000 A 
ENDBRANCH  19  20
ENDBRANCH   6  19
TORSDOF 5
ENDMDL
MODEL 3
REMARK VINA RESULT:      -7.8      0.875      2.141
REMARK  Name = 
REMARK  6 active torsions:
REMARK  status: ('A' for Active; 'I' for Inactive)
REMARK    1  A    between atoms: C_1  and  O_2
REMARK    2  A    between atoms: O_2  and  C_3
REMARK    3  A    between atoms: C_8  and  C_9
REMARK    4  A    between atoms: C_9  and  O_10
REMARK    5  A    between atoms: N_15  and  C_16
REMARK    6  A    between atoms: C_16  and  C_17
REMARK                            x       y       z     vdW  Elec       q    Type
REMARK                         _______ _______ _______ _____ _____    ______ ____
ROOT
ATOM      1  C   UNL     1       4.704   4.053  19.165  0.00  0.00    +0.000 C 
ATOM      2  C   UNL     1       5.163   4.970  18.286  0.00  0.00    +0.000 C 
ATOM      3  C   UNL     1       4.400   5.994  17.533  0.00  0.00    +0.000 C 
ATOM      4  O   UNL     1       3.360   6.530  17.879  0.00  0.00    +0.000 OA
ATOM      5  C   UNL     1       5.073   6.216  16.205  0.00  0.00    +0.000 C 
ATOM      6  N   UNL     1       6.396   5.674  16.470  0.00  0.00    +0.000 N 
ATOM      7  C   UNL     1       6.523   4.957  17.661  0.00  0.00    +0.000 C 
ATOM      8  O   UNL     1       7.537   4.420  18.069  0.00  0.00    +0.000 OA
ENDROOT
BRANCH   1  14
ATOM      9  C   UNL     1       2.431   2.897  18.771  0.00  0.00    +0.000 A 
ATOM     10  C   UNL     1       1.046   2.833  19.019  0.00  0.00    +0.000 A 
ATOM     11  C   UNL     1       0.473   3.554  20.060  0.00  0.00    +0.000 A 
ATOM     12  C   UNL     1       1.271   4.382  20.829  0.00  0.00    +0.000 A 
ATOM     13  C   UNL     1       2.628   4.522  20.524  0.00  0.00    +0.000 A 
ATOM     14  C   UNL     1       3.262   3.774  19.511  0.00  0.00    +0.000 A 
BRANCH   9  16
ATOM     15  C   UNL     1       3.730   1.012  18.207  0.00  0.00    +0.000 C 
ATOM     16  O   UNL     1       3.000   2.158  17.752  0.00  0.00    +0.000 OA
ENDBRANCH   9  16
ENDBRANCH   1  14
BRANCH   1  17
ATOM     17  O   UNL     1       5.603   3.151  19.723  0.00  0.00    +0.000 OA
ATOM     18  H   UNL     1       5.110   2.350  19.988  0.00  0.00    +0.000 HD
ENDBRANCH   1  17
BRANCH   6  19
ATOM     19  C   UNL     1       7.417   5.695  15.436  0.00  0.00    +0.000 C 
BRANCH  19  20
ATOM     20  C   UNL     1       7.070   4.885  14.208  0.00  0.00    +0.000 A 
ATOM     21  C   UNL     1       6.020   3.957  14.241  0.00  0.00    +0.000 A 
ATOM     22  C   UNL     1       5.634   3.273  13.087  0.00  0.00    +0.000 A 
ATOM     23  C   UNL     1       6.294   3.504  11.882  0.00  0.00    +0.000 A 
ATOM     24  C   UNL     1       7.349   4.415  11.836  0.00  0.00    +0.000 A 
ATOM     25  C   UNL     1       7.731   5.101  12.986  0.00  0.00    +0.000 A 
ENDBRANCH  19  20
ENDBRANCH   6  19
TORSDOF 5
ENDMDL
MODEL 4
REMARK VINA RESULT:      -7.6      4.881      8.321
REMARK  Name = 
REMARK  6 active torsions:
REMARK  status: ('A' for Active; 'I' for Inactive)
REMARK    1  A    between atoms: C_1  and  O_2
REMARK    2  A    between atoms: O_2  and  C_3
REMARK    3  A    between atoms: C_8  and  C_9
REMARK    4  A    between atoms: C_9  and  O_10
REMARK    5  A    between atoms: N_15  and  C_16
REMARK    6  A    between atoms: C_16  and  C_17
REMARK                            x       y       z     vdW  Elec       q    Type
REMARK                         _______ _______ _______ _____ _____    ______ ____
ROOT
ATOM      1  C   UNL     1       1.447  10.939  18.606  0.00  0.00    +0.000 C 
ATOM      2  C   UNL     1       1.282   9.701  19.119  0.00  0.00    +0.000 C 
ATOM      3  C   UNL     1       0.565   9.297  20.352  0.00  0.00    +0.000 C 
ATOM      4  O   UNL     1      -0.381   9.872  20.867  0.00  0.00    +0.000 OA
ATOM      5  C   UNL     1       1.250   8.091  20.935  0.00  0.00    +0.000 C 
ATOM      6  N   UNL     1       1.998   7.613  19.785  0.00  0.00    +0.000 N 
ATOM      7  C   UNL     1       2.044   8.484  18.694  0.00  0.00    +0.000 C 
ATOM      8  O   UNL     1       2.617   8.283  17.639  0.00  0.00    +0.000 OA
ENDROOT
BRANCH   1  14
ATOM      9  C   UNL     1      -0.158  12.938  18.901  0.00  0.00    +0.000 A 
ATOM     10  C   UNL     1      -0.391  14.244  19.376  0.00  0.00    +0.000 A 
ATOM     11  C   UNL     1       0.489  14.847  20.266  0.00  0.00    +0.000 A 
ATOM     12  C   UNL     1       1.633  14.172  20.650  0.00  0.00    +0.000 A 
ATOM     13  C   UNL     1       1.916  12.916  20.105  0.00  0.00    +0.000 A 
ATOM     14  C   UNL     1       1.030  12.244  19.239  0.00  0.00    +0.000 A 
BRANCH   9  16
ATOM     15  C   UNL     1      -2.242  11.860  18.675  0.00  0.00    +0.000 C 
ATOM     16  O   UNL     1      -1.049  12.331  18.037  0.00  0.00    +0.000 OA
ENDBRANCH   9  16
ENDBRANCH   1  14
BRANCH   1  17
ATOM     17  O   UNL     1       2.205  11.090  17.450  0.00  0.00    +0.000 OA
ATOM     18  H   UNL     1       1.599  11.100  16.684  0.00  0.00    +0.000 HD
ENDBRANCH   1  17
BRANCH   6  19
ATOM     19  C   UNL     1       2.819   6.418  19.889  0.00  0.00    +0.000 C 
BRANCH  19  20
ATOM     20  C   UNL     1       2.084   5.134  19.581  0.00  0.00    +0.000 A 
ATOM     21  C   UNL     1       2.033   4.640  18.271  0.00  0.00    +0.000 A 
ATOM     22  C   UNL     1       1.436   3.409  17.994  0.00  0.00    +0.000 A 
ATOM     23  C   UNL     1       0.877   2.654  19.023  0.00  0.00    +0.000 A 
ATOM     24  C   UNL     1       0.908   3.139  20.331  0.00  0.00    +0.000 A 
ATOM     25  C   UNL     1       1.508   4.365  20.608  0.00  0.00    +0.000 A 
ENDBRANCH  19  20
ENDBRANCH   6  19
TORSDOF 5
ENDMDL
MODEL 5
REMARK VINA RESULT:      -7.6      4.373      7.825
REMARK  Name = 
REMARK  6 active torsions:
REMARK  status: ('A' for Active; 'I' for Inactive)
REMARK    1  A    between atoms: C_1  and  O_2
REMARK    2  A    between atoms: O_2  and  C_3
REMARK    3  A    between atoms: C_8  and  C_9
REMARK    4  A    between atoms: C_9  and  O_10
REMARK    5  A    between atoms: N_15  and  C_16
REMARK    6  A    between atoms: C_16  and  C_17
REMARK                            x       y       z     vdW  Elec       q    Type
REMARK                         _______ _______ _______ _____ _____    ______ ____
ROOT
ATOM      1  C   UNL     1       2.460   7.072  18.940  0.00  0.00    +0.000 C 
ATOM      2  C   UNL     1       1.951   8.241  19.385  0.00  0.00    +0.000 C 
ATOM      3  C   UNL     1       1.281   8.528  20.677  0.00  0.00    +0.000 C 
ATOM      4  O   UNL     1       1.469   7.957  21.739  0.00  0.00    +0.000 OA
ATOM      5  C   UNL     1       0.247   9.599  20.455  0.00  0.00    +0.000 C 
ATOM      6  N   UNL     1       0.703  10.171  19.199  0.00  0.00    +0.000 N 
ATOM      7  C   UNL     1       1.697   9.448  18.537  0.00  0.00    +0.000 C 
ATOM      8  O   UNL     1       2.213   9.746  17.475  0.00  0.00    +0.000 OA
ENDROOT
BRANCH   1  14
ATOM      9  C   UNL     1       3.475   4.875  19.836  0.00  0.00    +0.000 A 
ATOM     10  C   UNL     1       3.292   3.553  20.288  0.00  0.00    +0.000 A 
ATOM     11  C   UNL     1       2.029   3.081  20.626  0.00  0.00    +0.000 A 
ATOM     12  C   UNL     1       0.933   3.909  20.467  0.00  0.00    +0.000 A 
ATOM     13  C   UNL     1       1.099   5.188  19.928  0.00  0.00    +0.000 A 
ATOM     14  C   UNL     1       2.364   5.727  19.618  0.00  0.00    +0.000 A 
BRANCH   9  16
ATOM     15  C   UNL     1       5.464   4.504  18.629  0.00  0.00    +0.000 C 
ATOM     16  O   UNL     1       4.735   5.348  19.528  0.00  0.00    +0.000 OA
ENDBRANCH   9  16
ENDBRANCH   1  14
BRANCH   1  17
ATOM     17  O   UNL     1       3.006   7.022  17.663  0.00  0.00    +0.000 OA
ATOM     18  H   UNL     1       3.288   6.103  17.484  0.00  0.00    +0.000 HD
ENDBRANCH   1  17
BRANCH   6  19
ATOM     19  C   UNL     1      -0.013  11.283  18.598  0.00  0.00    +0.000 C 
BRANCH  19  20
ATOM     20  C   UNL     1      -1.453  10.979  18.257  0.00  0.00    +0.000 A 
ATOM     21  C   UNL     1      -2.491  11.747  18.802  0.00  0.00    +0.000 A 
ATOM     22  C   UNL     1      -3.816  11.531  18.420  0.00  0.00    +0.000 A 
ATOM     23  C   UNL     1      -4.125  10.541  17.490  0.00  0.00    +0.000 A 
ATOM     24  C   UNL     1      -3.105   9.759  16.949  0.00  0.00    +0.000 A 
ATOM     25  C   UNL     1      -1.782   9.977  17.326  0.00  0.00    +0.000 A 
ENDBRANCH  19  20
ENDBRANCH   6  19
TORSDOF 5
ENDMDL
MODEL 6
REMARK VINA RESULT:      -7.4      4.283      7.675
REMARK  Name = 
REMARK  6 active torsions:
REMARK  status: ('A' for Active; 'I' for Inactive)
REMARK    1  A    between atoms: C_1  and  O_2
REMARK    2  A    between atoms: O_2  and  C_3
REMARK    3  A    between atoms: C_8  and  C_9
REMARK    4  A    between atoms: C_9  and  O_10
REMARK    5  A    between atoms: N_15  and  C_16
REMARK    6  A    between atoms: C_16  and  C_17
REMARK                            x       y       z     vdW  Elec       q    Type
REMARK                         _______ _______ _______ _____ _____    ______ ____
ROOT
ATOM      1  C   UNL     1       2.741   7.113  18.222  0.00  0.00    +0.000 C 
ATOM      2  C   UNL     1       2.187   8.125  18.923  0.00  0.00    +0.000 C 
ATOM      3  C   UNL     1       1.446   8.066  20.207  0.00  0.00    +0.000 C 
ATOM      4  O   UNL     1       1.592   7.243  21.096  0.00  0.00    +0.000 OA
ATOM      5  C   UNL     1       0.403   9.151  20.211  0.00  0.00    +0.000 C 
ATOM      6  N   UNL     1       0.911  10.030  19.170  0.00  0.00    +0.000 N 
ATOM      7  C   UNL     1       1.952   9.507  18.399  0.00  0.00    +0.000 C 
ATOM      8  O   UNL     1       2.515  10.072  17.479  0.00  0.00    +0.000 OA
ENDROOT
BRANCH   1  14
ATOM      9  C   UNL     1       3.636   4.906  19.218  0.00  0.00    +0.000 A 
ATOM     10  C   UNL     1       3.576   3.500  19.293  0.00  0.00    +0.000 A 
ATOM     11  C   UNL     1       2.490   2.803  18.779  0.00  0.00    +0.000 A 
ATOM     12  C   UNL     1       1.479   3.498  18.141  0.00  0.00    +0.000 A 
ATOM     13  C   UNL     1       1.582   4.883  17.979  0.00  0.00    +0.000 A 
ATOM     14  C   UNL     1       2.639   5.638  18.527  0.00  0.00    +0.000 A 
BRANCH   9  16
ATOM     15  C   UNL     1       5.961   5.284  19.141  0.00  0.00    +0.000 C 
ATOM     16  O   UNL     1       4.704   5.597  19.754  0.00  0.00    +0.000 OA
ENDBRANCH   9  16
ENDBRANCH   1  14
BRANCH   1  17
ATOM     17  O   UNL     1       3.353   7.396  17.006  0.00  0.00    +0.000 OA
ATOM     18  H   UNL     1       3.419   8.366  16.914  0.00  0.00    +0.000 HD
ENDBRANCH   1  17
BRANCH   6  19
ATOM     19  C   UNL     1       0.204  11.254  18.836  0.00  0.00    +0.000 C 
BRANCH  19  20
ATOM     20  C   UNL     1      -1.205  11.037  18.336  0.00  0.00    +0.000 A 
ATOM     21  C   UNL     1      -1.478  10.045  17.384  0.00  0.00    +0.000 A 
ATOM     22  C   UNL     1      -2.789   9.777  16.987  0.00  0.00    +0.000 A 
ATOM     23  C   UNL     1      -3.848  10.499  17.533  0.00  0.00    +0.000 A 
ATOM     24  C   UNL     1      -3.591  11.499  18.471  0.00  0.00    +0.000 A 
ATOM     25  C   UNL     1      -2.284  11.763  18.871  0.00  0.00    +0.000 A 
ENDBRANCH  19  20
ENDBRANCH   6  19
TORSDOF 5
ENDMDL
MODEL 7
REMARK VINA RESULT:      -7.3      4.610      7.447
REMARK  Name = 
REMARK  6 active torsions:
REMARK  status: ('A' for Active; 'I' for Inactive)
REMARK    1  A    between atoms: C_1  and  O_2
REMARK    2  A    between atoms: O_2  and  C_3
REMARK    3  A    between atoms: C_8  and  C_9
REMARK    4  A    between atoms: C_9  and  O_10
REMARK    5  A    between atoms: N_15  and  C_16
REMARK    6  A    between atoms: C_16  and  C_17
REMARK                            x       y       z     vdW  Elec       q    Type
REMARK                         _______ _______ _______ _____ _____    ______ ____
ROOT
ATOM      1  C   UNL     1      -0.021   9.557  19.883  0.00  0.00    +0.000 C 
ATOM      2  C   UNL     1       1.149   8.984  19.525  0.00  0.00    +0.000 C 
ATOM      3  C   UNL     1       1.863   9.071  18.228  0.00  0.00    +0.000 C 
ATOM      4  O   UNL     1       1.824   9.997  17.434  0.00  0.00    +0.000 OA
ATOM      5  C   UNL     1       2.594   7.776  17.994  0.00  0.00    +0.000 C 
ATOM      6  N   UNL     1       2.637   7.233  19.341  0.00  0.00    +0.000 N 
ATOM      7  C   UNL     1       1.840   7.892  20.279  0.00  0.00    +0.000 C 
ATOM      8  O   UNL     1       1.727   7.599  21.456  0.00  0.00    +0.000 OA
ENDROOT
BRANCH   1  14
ATOM      9  C   UNL     1      -1.504  11.600  19.348  0.00  0.00    +0.000 A 
ATOM     10  C   UNL     1      -2.521  12.186  18.569  0.00  0.00    +0.000 A 
ATOM     11  C   UNL     1      -2.942  11.597  17.383  0.00  0.00    +0.000 A 
ATOM     12  C   UNL     1      -2.386  10.394  16.990  0.00  0.00    +0.000 A 
ATOM     13  C   UNL     1      -1.446   9.761  17.809  0.00  0.00    +0.000 A 
ATOM     14  C   UNL     1      -0.953  10.343  18.995  0.00  0.00    +0.000 A 
BRANCH   9  16
ATOM     15  C   UNL     1      -2.118  12.458  21.455  0.00  0.00    +0.000 C 
ATOM     16  O   UNL     1      -1.070  12.202  20.513  0.00  0.00    +0.000 OA
ENDBRANCH   9  16
ENDBRANCH   1  14
BRANCH   1  17
ATOM     17  O   UNL     1      -0.533   9.298  21.150  0.00  0.00    +0.000 OA
ATOM     18  H   UNL     1       0.201   9.005  21.724  0.00  0.00    +0.000 HD
ENDBRANCH   1  17
BRANCH   6  19
ATOM     19  C   UNL     1       3.287   5.959  19.597  0.00  0.00    +0.000 C 
BRANCH  19  20
ATOM     20  C   UNL     1       2.422   4.755  19.304  0.00  0.00    +0.000 A 
ATOM     21  C   UNL     1       2.573   4.046  18.105  0.00  0.00    +0.000 A 
ATOM     22  C   UNL     1       1.843   2.879  17.867  0.00  0.00    +0.000 A 
ATOM     23  C   UNL     1       0.948   2.406  18.824  0.00  0.00    +0.000 A 
ATOM     24  C   UNL     1       0.777   3.109  20.017  0.00  0.00    +0.000 A 
ATOM     25  C   UNL     1       1.508   4.270  20.256  0.00  0.00    +0.000 A 
ENDBRANCH  19  20
ENDBRANCH   6  19
TORSDOF 5
ENDMDL
MODEL 8
REMARK VINA RESULT:      -7.3      4.761      7.590
REMARK  Name = 
REMARK  6 active torsions:
REMARK  status: ('A' for Active; 'I' for Inactive)
REMARK    1  A    between atoms: C_1  and  O_2
REMARK    2  A    between atoms: O_2  and  C_3
REMARK    3  A    between atoms: C_8  and  C_9
REMARK    4  A    between atoms: C_9  and  O_10
REMARK    5  A    between atoms: N_15  and  C_16
REMARK    6  A    between atoms: C_16  and  C_17
REMARK                            x       y       z     vdW  Elec       q    Type
REMARK                         _______ _______ _______ _____ _____    ______ ____
ROOT
ATOM      1  C   UNL     1      -0.049   9.570  19.794  0.00  0.00    +0.000 C 
ATOM      2  C   UNL     1       1.147   9.041  19.454  0.00  0.00    +0.000 C 
ATOM      3  C   UNL     1       1.879   9.156  18.169  0.00  0.00    +0.000 C 
ATOM      4  O   UNL     1       1.818  10.082  17.376  0.00  0.00    +0.000 OA
ATOM      5  C   UNL     1       2.660   7.890  17.945  0.00  0.00    +0.000 C 
ATOM      6  N   UNL     1       2.701   7.347  19.293  0.00  0.00    +0.000 N 
ATOM      7  C   UNL     1       1.865   7.973  20.218  0.00  0.00    +0.000 C 
ATOM      8  O   UNL     1       1.744   7.675  21.392  0.00  0.00    +0.000 OA
ENDROOT
BRANCH   1  14
ATOM      9  C   UNL     1      -1.663  11.514  19.269  0.00  0.00    +0.000 A 
ATOM     10  C   UNL     1      -2.683  12.056  18.462  0.00  0.00    +0.000 A 
ATOM     11  C   UNL     1      -2.993  11.494  17.230  0.00  0.00    +0.000 A 
ATOM     12  C   UNL     1      -2.323  10.358  16.815  0.00  0.00    +0.000 A 
ATOM     13  C   UNL     1      -1.378   9.762  17.656  0.00  0.00    +0.000 A 
ATOM     14  C   UNL     1      -0.995  10.323  18.891  0.00  0.00    +0.000 A 
BRANCH   9  16
ATOM     15  C   UNL     1      -2.432  12.778  21.104  0.00  0.00    +0.000 C 
ATOM     16  O   UNL     1      -1.340  12.091  20.481  0.00  0.00    +0.000 OA
ENDBRANCH   9  16
ENDBRANCH   1  14
BRANCH   1  17
ATOM     17  O   UNL     1      -0.572   9.290  21.051  0.00  0.00    +0.000 OA
ATOM     18  H   UNL     1      -0.147   9.884  21.700  0.00  0.00    +0.000 HD
ENDBRANCH   1  17
BRANCH   6  19
ATOM     19  C   UNL     1       3.393   6.096  19.558  0.00  0.00    +0.000 C 
BRANCH  19  20
ATOM     20  C   UNL     1       2.505   4.875  19.501  0.00  0.00    +0.000 A 
ATOM     21  C   UNL     1       1.981   4.321  20.676  0.00  0.00    +0.000 A 
ATOM     22  C   UNL     1       1.086   3.249  20.625  0.00  0.00    +0.000 A 
ATOM     23  C   UNL     1       0.704   2.715  19.396  0.00  0.00    +0.000 A 
ATOM     24  C   UNL     1       1.227   3.247  18.218  0.00  0.00    +0.000 A 
ATOM     25  C   UNL     1       2.116   4.318  18.269  0.00  0.00    +0.000 A 
ENDBRANCH  19  20
ENDBRANCH   6  19
TORSDOF 5
ENDMDL
MODEL 9
REMARK VINA RESULT:      -7.3      1.256      2.256
REMARK  Name = 
REMARK  6 active torsions:
REMARK  status: ('A' for Active; 'I' for Inactive)
REMARK    1  A    between atoms: C_1  and  O_2
REMARK    2  A    between atoms: O_2  and  C_3
REMARK    3  A    between atoms: C_8  and  C_9
REMARK    4  A    between atoms: C_9  and  O_10
REMARK    5  A    between atoms: N_15  and  C_16
REMARK    6  A    between atoms: C_16  and  C_17
REMARK                            x       y       z     vdW  Elec       q    Type
REMARK                         _______ _______ _______ _____ _____    ______ ____
ROOT
ATOM      1  C   UNL     1       5.112   4.536  18.832  0.00  0.00    +0.000 C 
ATOM      2  C   UNL     1       5.504   5.262  17.763  0.00  0.00    +0.000 C 
ATOM      3  C   UNL     1       4.741   6.286  17.008  0.00  0.00    +0.000 C 
ATOM      4  O   UNL     1       3.855   7.004  17.443  0.00  0.00    +0.000 OA
ATOM      5  C   UNL     1       5.175   6.245  15.568  0.00  0.00    +0.000 C 
ATOM      6  N   UNL     1       6.450   5.556  15.681  0.00  0.00    +0.000 N 
ATOM      7  C   UNL     1       6.712   4.979  16.926  0.00  0.00    +0.000 C 
ATOM      8  O   UNL     1       7.712   4.356  17.231  0.00  0.00    +0.000 OA
ENDROOT
BRANCH   1  14
ATOM      9  C   UNL     1       2.856   3.404  19.369  0.00  0.00    +0.000 A 
ATOM     10  C   UNL     1       1.516   3.514  19.792  0.00  0.00    +0.000 A 
ATOM     11  C   UNL     1       1.050   4.678  20.392  0.00  0.00    +0.000 A 
ATOM     12  C   UNL     1       1.903   5.758  20.529  0.00  0.00    +0.000 A 
ATOM     13  C   UNL     1       3.205   5.685  20.023  0.00  0.00    +0.000 A 
ATOM     14  C   UNL     1       3.736   4.510  19.453  0.00  0.00    +0.000 A 
BRANCH   9  16
ATOM     15  C   UNL     1       2.875   2.033  17.453  0.00  0.00    +0.000 C 
ATOM     16  O   UNL     1       3.322   2.236  18.798  0.00  0.00    +0.000 OA
ENDBRANCH   9  16
ENDBRANCH   1  14
BRANCH   1  17
ATOM     17  O   UNL     1       5.985   3.589  19.355  0.00  0.00    +0.000 OA
ATOM     18  H   UNL     1       5.572   2.708  19.267  0.00  0.00    +0.000 HD
ENDBRANCH   1  17
BRANCH   6  19
ATOM     19  C   UNL     1       7.254   5.303  14.497  0.00  0.00    +0.000 C 
BRANCH  19  20
ATOM     20  C   UNL     1       6.626   4.340  13.517  0.00  0.00    +0.000 A 
ATOM     21  C   UNL     1       5.252   4.073  13.564  0.00  0.00    +0.000 A 
ATOM     22  C   UNL     1       4.649   3.256  12.605  0.00  0.00    +0.000 A 
ATOM     23  C   UNL     1       5.412   2.693  11.585  0.00  0.00    +0.000 A 
ATOM     24  C   UNL     1       6.784   2.939  11.532  0.00  0.00    +0.000 A 
ATOM     25  C   UNL     1       7.385   3.757  12.487  0.00  0.00    +0.000 A 
ENDBRANCH  19  20
ENDBRANCH   6  19
TORSDOF 5
ENDMDL
