MODEL 1
REMARK VINA RESULT:      -6.7      0.000      0.000
REMARK  Name = 
REMARK  2 active torsions:
REMARK  status: ('A' for Active; 'I' for Inactive)
REMARK    1  A    between atoms: C_1  and  N_2
REMARK    2  A    between atoms: C_7  and  C_8
REMARK                            x       y       z     vdW  Elec       q    Type
REMARK                         _______ _______ _______ _____ _____    ______ ____
ROOT
ATOM      1  C   UNL     1       3.738   6.446  17.738  0.00  0.00    +0.000 C 
ATOM      2  O   UNL     1       4.156   6.721  16.612  0.00  0.00    +0.000 OA
ATOM      3  N   UNL     1       3.049   7.429  18.473  0.00  0.00    +0.000 N 
ATOM      4  C   UNL     1       2.745   8.703  17.806  0.00  0.00    +0.000 C 
ATOM      5  C   UNL     1       1.250   8.980  17.775  0.00  0.00    +0.000 C 
ATOM      6  C   UNL     1       0.730   9.624  19.050  0.00  0.00    +0.000 A 
ATOM      7  N   UNL     1       0.159  10.786  18.924  0.00  0.00    +0.000 NA
ATOM      8  C   UNL     1      -0.370  11.303  20.059  0.00  0.00    +0.000 A 
ATOM      9  S   UNL     1      -1.206  12.791  20.073  0.00  0.00    +0.000 S 
ATOM     10  C   UNL     1      -1.566  12.645  21.742  0.00  0.00    +0.000 A 
ATOM     11  C   UNL     1      -1.047  11.487  22.279  0.00  0.00    +0.000 A 
ATOM     12  C   UNL     1      -0.349  10.722  21.300  0.00  0.00    +0.000 A 
ATOM     13  C   UNL     1       0.314   9.446  21.442  0.00  0.00    +0.000 A 
ATOM     14  O   UNL     1       0.358   8.863  22.522  0.00  0.00    +0.000 OA
ATOM     15  N   UNL     1       0.854   8.936  20.252  0.00  0.00    +0.000 N 
ATOM     16  C   UNL     1       1.388   7.578  20.321  0.00  0.00    +0.000 C 
ATOM     17  C   UNL     1       2.865   7.435  19.925  0.00  0.00    +0.000 C 
ENDROOT
BRANCH   1  24
ATOM     18  C   UNL     1       6.279   5.245  19.300  0.00  0.00    +0.000 C 
ATOM     19  N   UNL     1       5.041   4.595  18.937  0.00  0.00    +0.000 N 
ATOM     20  N   UNL     1       4.880   3.334  19.371  0.00  0.00    +0.000 NA
ATOM     21  C   UNL     1       3.610   3.059  19.084  0.00  0.00    +0.000 A 
ATOM     22  C   UNL     1       2.992   4.114  18.398  0.00  0.00    +0.000 A 
ATOM     23 CL   UNL     1       1.375   4.094  17.881  0.00  0.00    +0.000 Cl
ATOM     24  C   UNL     1       3.949   5.112  18.270  0.00  0.00    +0.000 A 
ENDBRANCH   1  24
TORSDOF 1
ENDMDL
MODEL 2
REMARK VINA RESULT:      -6.6      1.373      1.733
REMARK  Name = 
REMARK  2 active torsions:
REMARK  status: ('A' for Active; 'I' for Inactive)
REMARK    1  A    between atoms: C_1  and  N_2
REMARK    2  A    between atoms: C_7  and  C_8
REMARK                            x       y       z     vdW  Elec       q    Type
REMARK                         _______ _______ _______ _____ _____    ______ ____
ROOT
ATOM      1  C   UNL     1       3.396   6.540  18.055  0.00  0.00    +0.000 C 
ATOM      2  O   UNL     1       3.872   6.798  16.949  0.00  0.00    +0.000 OA
ATOM      3  N   UNL     1       2.715   7.550  18.760  0.00  0.00    +0.000 N 
ATOM      4  C   UNL     1       2.488   8.834  18.081  0.00  0.00    +0.000 C 
ATOM      5  C   UNL     1       1.008   9.169  17.986  0.00  0.00    +0.000 C 
ATOM      6  C   UNL     1       0.459   9.833  19.238  0.00  0.00    +0.000 A 
ATOM      7  N   UNL     1      -0.061  11.016  19.089  0.00  0.00    +0.000 NA
ATOM      8  C   UNL     1      -0.618  11.554  20.200  0.00  0.00    +0.000 A 
ATOM      9  S   UNL     1      -1.396  13.073  20.178  0.00  0.00    +0.000 S 
ATOM     10  C   UNL     1      -1.833  12.943  21.831  0.00  0.00    +0.000 A 
ATOM     11  C   UNL     1      -1.383  11.766  22.388  0.00  0.00    +0.000 A 
ATOM     12  C   UNL     1      -0.674  10.974  21.440  0.00  0.00    +0.000 A 
ATOM     13  C   UNL     1      -0.067   9.673  21.609  0.00  0.00    +0.000 A 
ATOM     14  O   UNL     1      -0.092   9.090  22.690  0.00  0.00    +0.000 OA
ATOM     15  N   UNL     1       0.504   9.142  20.444  0.00  0.00    +0.000 N 
ATOM     16  C   UNL     1       0.982   7.764  20.535  0.00  0.00    +0.000 C 
ATOM     17  C   UNL     1       2.468   7.564  20.203  0.00  0.00    +0.000 C 
ENDROOT
BRANCH   1  24
ATOM     18  C   UNL     1       1.349   4.064  17.922  0.00  0.00    +0.000 C 
ATOM     19  N   UNL     1       2.652   4.137  18.542  0.00  0.00    +0.000 N 
ATOM     20  N   UNL     1       3.124   2.998  19.077  0.00  0.00    +0.000 NA
ATOM     21  C   UNL     1       4.386   3.291  19.381  0.00  0.00    +0.000 A 
ATOM     22  C   UNL     1       4.689   4.634  19.115  0.00  0.00    +0.000 A 
ATOM     23 CL   UNL     1       6.209   5.338  19.388  0.00  0.00    +0.000 Cl
ATOM     24  C   UNL     1       3.532   5.200  18.595  0.00  0.00    +0.000 A 
ENDBRANCH   1  24
TORSDOF 1
ENDMDL
MODEL 3
REMARK VINA RESULT:      -6.5      3.668      8.403
REMARK  Name = 
REMARK  2 active torsions:
REMARK  status: ('A' for Active; 'I' for Inactive)
REMARK    1  A    between atoms: C_1  and  N_2
REMARK    2  A    between atoms: C_7  and  C_8
REMARK                            x       y       z     vdW  Elec       q    Type
REMARK                         _______ _______ _______ _____ _____    ______ ____
ROOT
ATOM      1  C   UNL     1      -0.881  12.133  22.310  0.00  0.00    +0.000 C 
ATOM      2  O   UNL     1      -1.122  11.950  23.504  0.00  0.00    +0.000 OA
ATOM      3  N   UNL     1      -0.022  11.242  21.640  0.00  0.00    +0.000 N 
ATOM      4  C   UNL     1       0.443  10.052  22.367  0.00  0.00    +0.000 C 
ATOM      5  C   UNL     1       0.045   8.766  21.659  0.00  0.00    +0.000 C 
ATOM      6  C   UNL     1       1.010   8.362  20.557  0.00  0.00    +0.000 A 
ATOM      7  N   UNL     1       1.582   7.200  20.680  0.00  0.00    +0.000 NA
ATOM      8  C   UNL     1       2.373   6.825  19.647  0.00  0.00    +0.000 A 
ATOM      9  S   UNL     1       3.157   5.310  19.610  0.00  0.00    +0.000 S 
ATOM     10  C   UNL     1       3.812   5.616  18.056  0.00  0.00    +0.000 A 
ATOM     11  C   UNL     1       3.446   6.856  17.582  0.00  0.00    +0.000 A 
ATOM     12  C   UNL     1       2.622   7.551  18.512  0.00  0.00    +0.000 A 
ATOM     13  C   UNL     1       2.010   8.856  18.393  0.00  0.00    +0.000 A 
ATOM     14  O   UNL     1       2.181   9.554  17.397  0.00  0.00    +0.000 OA
ATOM     15  N   UNL     1       1.200   9.219  19.478  0.00  0.00    +0.000 N 
ATOM     16  C   UNL     1       0.438  10.456  19.322  0.00  0.00    +0.000 C 
ATOM     17  C   UNL     1       0.697  11.524  20.396  0.00  0.00    +0.000 C 
ENDROOT
BRANCH   1  24
ATOM     18  C   UNL     1      -3.961  12.586  21.505  0.00  0.00    +0.000 C 
ATOM     19  N   UNL     1      -2.822  13.443  21.271  0.00  0.00    +0.000 N 
ATOM     20  N   UNL     1      -3.078  14.636  20.707  0.00  0.00    +0.000 NA
ATOM     21  C   UNL     1      -1.920  15.284  20.796  0.00  0.00    +0.000 A 
ATOM     22  C   UNL     1      -0.911  14.476  21.341  0.00  0.00    +0.000 A 
ATOM     23 CL   UNL     1       0.687  14.991  21.594  0.00  0.00    +0.000 Cl
ATOM     24  C   UNL     1      -1.500  13.250  21.621  0.00  0.00    +0.000 A 
ENDBRANCH   1  24
TORSDOF 1
ENDMDL
MODEL 4
REMARK VINA RESULT:      -6.3      3.336      8.035
REMARK  Name = 
REMARK  2 active torsions:
REMARK  status: ('A' for Active; 'I' for Inactive)
REMARK    1  A    between atoms: C_1  and  N_2
REMARK    2  A    between atoms: C_7  and  C_8
REMARK                            x       y       z     vdW  Elec       q    Type
REMARK                         _______ _______ _______ _____ _____    ______ ____
ROOT
ATOM      1  C   UNL     1      -0.453  12.004  22.123  0.00  0.00    +0.000 C 
ATOM      2  O   UNL     1      -0.738  11.865  23.313  0.00  0.00    +0.000 OA
ATOM      3  N   UNL     1       0.346  11.031  21.492  0.00  0.00    +0.000 N 
ATOM      4  C   UNL     1       0.692   9.822  22.253  0.00  0.00    +0.000 C 
ATOM      5  C   UNL     1       0.207   8.560  21.557  0.00  0.00    +0.000 C 
ATOM      6  C   UNL     1       1.163   8.055  20.489  0.00  0.00    +0.000 A 
ATOM      7  N   UNL     1       1.633   6.852  20.648  0.00  0.00    +0.000 NA
ATOM      8  C   UNL     1       2.416   6.394  19.644  0.00  0.00    +0.000 A 
ATOM      9  S   UNL     1       3.073   4.818  19.655  0.00  0.00    +0.000 S 
ATOM     10  C   UNL     1       3.790   5.038  18.114  0.00  0.00    +0.000 A 
ATOM     11  C   UNL     1       3.541   6.295  17.608  0.00  0.00    +0.000 A 
ATOM     12  C   UNL     1       2.753   7.074  18.503  0.00  0.00    +0.000 A 
ATOM     13  C   UNL     1       2.255   8.421  18.344  0.00  0.00    +0.000 A 
ATOM     14  O   UNL     1       2.508   9.084  17.341  0.00  0.00    +0.000 OA
ATOM     15  N   UNL     1       1.450   8.872  19.400  0.00  0.00    +0.000 N 
ATOM     16  C   UNL     1       0.797  10.164  19.202  0.00  0.00    +0.000 C 
ATOM     17  C   UNL     1       1.117  11.228  20.263  0.00  0.00    +0.000 C 
ENDROOT
BRANCH   1  24
ATOM     18  C   UNL     1       0.380  15.100  22.359  0.00  0.00    +0.000 C 
ATOM     19  N   UNL     1      -0.606  14.484  21.501  0.00  0.00    +0.000 N 
ATOM     20  N   UNL     1      -1.217  15.292  20.618  0.00  0.00    +0.000 NA
ATOM     21  C   UNL     1      -1.898  14.454  19.841  0.00  0.00    +0.000 A 
ATOM     22  C   UNL     1      -1.784  13.127  20.280  0.00  0.00    +0.000 A 
ATOM     23 CL   UNL     1      -2.528  11.805  19.517  0.00  0.00    +0.000 Cl
ATOM     24  C   UNL     1      -0.960  13.154  21.398  0.00  0.00    +0.000 A 
ENDBRANCH   1  24
TORSDOF 1
ENDMDL
MODEL 5
REMARK VINA RESULT:      -6.3      3.670      8.133
REMARK  Name = 
REMARK  2 active torsions:
REMARK  status: ('A' for Active; 'I' for Inactive)
REMARK    1  A    between atoms: C_1  and  N_2
REMARK    2  A    between atoms: C_7  and  C_8
REMARK                            x       y       z     vdW  Elec       q    Type
REMARK                         _______ _______ _______ _____ _____    ______ ____
ROOT
ATOM      1  C   UNL     1      -0.479  11.523  22.168  0.00  0.00    +0.000 C 
ATOM      2  O   UNL     1      -0.722  11.312  23.358  0.00  0.00    +0.000 OA
ATOM      3  N   UNL     1       0.384  10.649  21.480  0.00  0.00    +0.000 N 
ATOM      4  C   UNL     1       0.852   9.445  22.182  0.00  0.00    +0.000 C 
ATOM      5  C   UNL     1       0.460   8.175  21.444  0.00  0.00    +0.000 C 
ATOM      6  C   UNL     1       1.428   7.798  20.335  0.00  0.00    +0.000 A 
ATOM      7  N   UNL     1       2.003   6.635  20.433  0.00  0.00    +0.000 NA
ATOM      8  C   UNL     1       2.797   6.287  19.394  0.00  0.00    +0.000 A 
ATOM      9  S   UNL     1       3.587   4.775  19.325  0.00  0.00    +0.000 S 
ATOM     10  C   UNL     1       4.244   5.118  17.779  0.00  0.00    +0.000 A 
ATOM     11  C   UNL     1       3.875   6.367  17.332  0.00  0.00    +0.000 A 
ATOM     12  C   UNL     1       3.047   7.039  18.276  0.00  0.00    +0.000 A 
ATOM     13  C   UNL     1       2.431   8.343  18.185  0.00  0.00    +0.000 A 
ATOM     14  O   UNL     1       2.601   9.065  17.205  0.00  0.00    +0.000 OA
ATOM     15  N   UNL     1       1.617   8.680  19.276  0.00  0.00    +0.000 N 
ATOM     16  C   UNL     1       0.851   9.917  19.147  0.00  0.00    +0.000 C 
ATOM     17  C   UNL     1       1.105  10.961  20.245  0.00  0.00    +0.000 C 
ENDROOT
BRANCH   1  24
ATOM     18  C   UNL     1      -2.253  11.595  19.488  0.00  0.00    +0.000 C 
ATOM     19  N   UNL     1      -1.859  12.685  20.350  0.00  0.00    +0.000 N 
ATOM     20  N   UNL     1      -2.358  13.896  20.048  0.00  0.00    +0.000 NA
ATOM     21  C   UNL     1      -2.015  14.649  21.090  0.00  0.00    +0.000 A 
ATOM     22  C   UNL     1      -1.233  13.939  22.012  0.00  0.00    +0.000 A 
ATOM     23 CL   UNL     1      -0.626  14.599  23.453  0.00  0.00    +0.000 Cl
ATOM     24  C   UNL     1      -1.101  12.653  21.503  0.00  0.00    +0.000 A 
ENDBRANCH   1  24
TORSDOF 1
ENDMDL
MODEL 6
REMARK VINA RESULT:      -6.2      2.840      3.781
REMARK  Name = 
REMARK  2 active torsions:
REMARK  status: ('A' for Active; 'I' for Inactive)
REMARK    1  A    between atoms: C_1  and  N_2
REMARK    2  A    between atoms: C_7  and  C_8
REMARK                            x       y       z     vdW  Elec       q    Type
REMARK                         _______ _______ _______ _____ _____    ______ ____
ROOT
ATOM      1  C   UNL     1       4.673   4.391  16.931  0.00  0.00    +0.000 C 
ATOM      2  O   UNL     1       4.601   3.217  17.296  0.00  0.00    +0.000 OA
ATOM      3  N   UNL     1       3.772   5.331  17.465  0.00  0.00    +0.000 N 
ATOM      4  C   UNL     1       2.868   4.891  18.537  0.00  0.00    +0.000 C 
ATOM      5  C   UNL     1       3.055   5.711  19.805  0.00  0.00    +0.000 C 
ATOM      6  C   UNL     1       2.272   7.014  19.800  0.00  0.00    +0.000 A 
ATOM      7  N   UNL     1       1.403   7.175  20.755  0.00  0.00    +0.000 NA
ATOM      8  C   UNL     1       0.778   8.375  20.779  0.00  0.00    +0.000 A 
ATOM      9  S   UNL     1      -0.351   8.784  21.992  0.00  0.00    +0.000 S 
ATOM     10  C   UNL     1      -0.560  10.361  21.354  0.00  0.00    +0.000 A 
ATOM     11  C   UNL     1       0.209  10.565  20.230  0.00  0.00    +0.000 A 
ATOM     12  C   UNL     1       0.972   9.409  19.900  0.00  0.00    +0.000 A 
ATOM     13  C   UNL     1       1.915   9.214  18.822  0.00  0.00    +0.000 A 
ATOM     14  O   UNL     1       2.148  10.103  18.007  0.00  0.00    +0.000 OA
ATOM     15  N   UNL     1       2.546   7.961  18.819  0.00  0.00    +0.000 N 
ATOM     16  C   UNL     1       3.620   7.787  17.846  0.00  0.00    +0.000 C 
ATOM     17  C   UNL     1       3.430   6.621  16.863  0.00  0.00    +0.000 C 
ENDROOT
BRANCH   1  24
ATOM     18  C   UNL     1       7.433   5.968  17.415  0.00  0.00    +0.000 C 
ATOM     19  N   UNL     1       6.878   5.459  16.183  0.00  0.00    +0.000 N 
ATOM     20  N   UNL     1       7.643   5.587  15.086  0.00  0.00    +0.000 NA
ATOM     21  C   UNL     1       7.001   4.871  14.166  0.00  0.00    +0.000 A 
ATOM     22  C   UNL     1       5.791   4.359  14.656  0.00  0.00    +0.000 A 
ATOM     23 CL   UNL     1       4.724   3.402  13.745  0.00  0.00    +0.000 Cl
ATOM     24  C   UNL     1       5.694   4.779  15.976  0.00  0.00    +0.000 A 
ENDBRANCH   1  24
TORSDOF 1
ENDMDL
MODEL 7
REMARK VINA RESULT:      -6.1      1.809      2.292
REMARK  Name = 
REMARK  2 active torsions:
REMARK  status: ('A' for Active; 'I' for Inactive)
REMARK    1  A    between atoms: C_1  and  N_2
REMARK    2  A    between atoms: C_7  and  C_8
REMARK                            x       y       z     vdW  Elec       q    Type
REMARK                         _______ _______ _______ _____ _____    ______ ____
ROOT
ATOM      1  C   UNL     1       2.518   7.326  18.546  0.00  0.00    +0.000 C 
ATOM      2  O   UNL     1       2.682   7.479  17.335  0.00  0.00    +0.000 OA
ATOM      3  N   UNL     1       1.874   8.337  19.284  0.00  0.00    +0.000 N 
ATOM      4  C   UNL     1       1.307   9.475  18.547  0.00  0.00    +0.000 C 
ATOM      5  C   UNL     1      -0.189   9.613  18.786  0.00  0.00    +0.000 C 
ATOM      6  C   UNL     1      -0.528  10.378  20.055  0.00  0.00    +0.000 A 
ATOM      7  N   UNL     1      -1.240  11.458  19.911  0.00  0.00    +0.000 NA
ATOM      8  C   UNL     1      -1.600  12.077  21.060  0.00  0.00    +0.000 A 
ATOM      9  S   UNL     1      -2.582  13.474  21.067  0.00  0.00    +0.000 S 
ATOM     10  C   UNL     1      -2.601  13.528  22.780  0.00  0.00    +0.000 A 
ATOM     11  C   UNL     1      -1.862  12.505  23.333  0.00  0.00    +0.000 A 
ATOM     12  C   UNL     1      -1.280  11.677  22.331  0.00  0.00    +0.000 A 
ATOM     13  C   UNL     1      -0.462  10.495  22.485  0.00  0.00    +0.000 A 
ATOM     14  O   UNL     1      -0.149  10.073  23.595  0.00  0.00    +0.000 OA
ATOM     15  N   UNL     1      -0.102   9.876  21.279  0.00  0.00    +0.000 N 
ATOM     16  C   UNL     1       0.586   8.593  21.399  0.00  0.00    +0.000 C 
ATOM     17  C   UNL     1       1.968   8.527  20.732  0.00  0.00    +0.000 C 
ENDROOT
BRANCH   1  24
ATOM     18  C   UNL     1       0.851   5.134  20.206  0.00  0.00    +0.000 C 
ATOM     19  N   UNL     1       2.261   5.163  19.894  0.00  0.00    +0.000 N 
ATOM     20  N   UNL     1       2.979   4.094  20.278  0.00  0.00    +0.000 NA
ATOM     21  C   UNL     1       4.162   4.282  19.699  0.00  0.00    +0.000 A 
ATOM     22  C   UNL     1       4.220   5.506  19.018  0.00  0.00    +0.000 A 
ATOM     23 CL   UNL     1       5.582   6.060  18.169  0.00  0.00    +0.000 Cl
ATOM     24  C   UNL     1       2.975   6.102  19.178  0.00  0.00    +0.000 A 
ENDBRANCH   1  24
TORSDOF 1
ENDMDL
MODEL 8
REMARK VINA RESULT:      -6.1      2.033      2.677
REMARK  Name = 
REMARK  2 active torsions:
REMARK  status: ('A' for Active; 'I' for Inactive)
REMARK    1  A    between atoms: C_1  and  N_2
REMARK    2  A    between atoms: C_7  and  C_8
REMARK                            x       y       z     vdW  Elec       q    Type
REMARK                         _______ _______ _______ _____ _____    ______ ____
ROOT
ATOM      1  C   UNL     1       3.390   4.688  19.352  0.00  0.00    +0.000 C 
ATOM      2  O   UNL     1       3.291   3.868  20.266  0.00  0.00    +0.000 OA
ATOM      3  N   UNL     1       2.565   5.829  19.363  0.00  0.00    +0.000 N 
ATOM      4  C   UNL     1       1.715   6.056  20.541  0.00  0.00    +0.000 C 
ATOM      5  C   UNL     1       2.017   7.389  21.207  0.00  0.00    +0.000 C 
ATOM      6  C   UNL     1       1.292   8.561  20.567  0.00  0.00    +0.000 A 
ATOM      7  N   UNL     1       0.494   9.242  21.336  0.00  0.00    +0.000 NA
ATOM      8  C   UNL     1      -0.078  10.330  20.767  0.00  0.00    +0.000 A 
ATOM      9  S   UNL     1      -1.108  11.373  21.641  0.00  0.00    +0.000 S 
ATOM     10  C   UNL     1      -1.291  12.421  20.297  0.00  0.00    +0.000 A 
ATOM     11  C   UNL     1      -0.587  11.975  19.200  0.00  0.00    +0.000 A 
ATOM     12  C   UNL     1       0.103  10.761  19.479  0.00  0.00    +0.000 A 
ATOM     13  C   UNL     1       0.966   9.983  18.618  0.00  0.00    +0.000 A 
ATOM     14  O   UNL     1       1.183  10.318  17.457  0.00  0.00    +0.000 OA
ATOM     15  N   UNL     1       1.541   8.861  19.232  0.00  0.00    +0.000 N 
ATOM     16  C   UNL     1       2.543   8.144  18.446  0.00  0.00    +0.000 C 
ATOM     17  C   UNL     1       2.241   6.658  18.201  0.00  0.00    +0.000 C 
ENDROOT
BRANCH   1  24
ATOM     18  C   UNL     1       6.513   5.445  19.262  0.00  0.00    +0.000 C 
ATOM     19  N   UNL     1       5.703   4.796  18.258  0.00  0.00    +0.000 N 
ATOM     20  N   UNL     1       6.344   4.374  17.155  0.00  0.00    +0.000 NA
ATOM     21  C   UNL     1       5.430   3.651  16.513  0.00  0.00    +0.000 A 
ATOM     22  C   UNL     1       4.189   3.682  17.167  0.00  0.00    +0.000 A 
ATOM     23 CL   UNL     1       2.804   2.868  16.618  0.00  0.00    +0.000 Cl
ATOM     24  C   UNL     1       4.363   4.468  18.299  0.00  0.00    +0.000 A 
ENDBRANCH   1  24
TORSDOF 1
ENDMDL
MODEL 9
REMARK VINA RESULT:      -6.1      2.344      3.182
REMARK  Name = 
REMARK  2 active torsions:
REMARK  status: ('A' for Active; 'I' for Inactive)
REMARK    1  A    between atoms: C_1  and  N_2
REMARK    2  A    between atoms: C_7  and  C_8
REMARK                            x       y       z     vdW  Elec       q    Type
REMARK                         _______ _______ _______ _____ _____    ______ ____
ROOT
ATOM      1  C   UNL     1       3.370   4.421  19.405  0.00  0.00    +0.000 C 
ATOM      2  O   UNL     1       3.217   3.614  20.323  0.00  0.00    +0.000 OA
ATOM      3  N   UNL     1       2.590   5.593  19.385  0.00  0.00    +0.000 N 
ATOM      4  C   UNL     1       1.720   5.863  20.538  0.00  0.00    +0.000 C 
ATOM      5  C   UNL     1       2.057   7.190  21.200  0.00  0.00    +0.000 C 
ATOM      6  C   UNL     1       1.394   8.383  20.531  0.00  0.00    +0.000 A 
ATOM      7  N   UNL     1       0.604   9.103  21.274  0.00  0.00    +0.000 NA
ATOM      8  C   UNL     1       0.090  10.206  20.681  0.00  0.00    +0.000 A 
ATOM      9  S   UNL     1      -0.921  11.297  21.519  0.00  0.00    +0.000 S 
ATOM     10  C   UNL     1      -1.029  12.338  20.162  0.00  0.00    +0.000 A 
ATOM     11  C   UNL     1      -0.316  11.854  19.087  0.00  0.00    +0.000 A 
ATOM     12  C   UNL     1       0.320  10.616  19.394  0.00  0.00    +0.000 A 
ATOM     13  C   UNL     1       1.173   9.798  18.563  0.00  0.00    +0.000 A 
ATOM     14  O   UNL     1       1.432  10.113  17.404  0.00  0.00    +0.000 OA
ATOM     15  N   UNL     1       1.689   8.660  19.201  0.00  0.00    +0.000 N 
ATOM     16  C   UNL     1       2.681   7.898  18.447  0.00  0.00    +0.000 C 
ATOM     17  C   UNL     1       2.328   6.422  18.207  0.00  0.00    +0.000 C 
ENDROOT
BRANCH   1  24
ATOM     18  C   UNL     1       3.010   3.027  16.530  0.00  0.00    +0.000 C 
ATOM     19  N   UNL     1       4.207   3.551  17.146  0.00  0.00    +0.000 N 
ATOM     20  N   UNL     1       5.322   3.529  16.396  0.00  0.00    +0.000 NA
ATOM     21  C   UNL     1       6.195   4.239  17.107  0.00  0.00    +0.000 A 
ATOM     22  C   UNL     1       5.661   4.639  18.340  0.00  0.00    +0.000 A 
ATOM     23 CL   UNL     1       6.506   5.558  19.490  0.00  0.00    +0.000 Cl
ATOM     24  C   UNL     1       4.360   4.153  18.379  0.00  0.00    +0.000 A 
ENDBRANCH   1  24
TORSDOF 1
ENDMDL
