MODEL 1
REMARK VINA RESULT:      -8.8      0.000      0.000
REMARK  Name = 
REMARK  5 active torsions:
REMARK  status: ('A' for Active; 'I' for Inactive)
REMARK    1  A    between atoms: C_2  and  O_3
REMARK    2  A    between atoms: C_2  and  C_4
REMARK    3  A    between atoms: C_7  and  C_8
REMARK    4  A    between atoms: C_10  and  C_11
REMARK    5  A    between atoms: C_18  and  C_19
REMARK                            x       y       z     vdW  Elec       q    Type
REMARK                         _______ _______ _______ _____ _____    ______ ____
ROOT
ATOM      1  C   UNL     1       2.199   7.791  19.024  0.00  0.00    +0.000 A 
ATOM      2  N   UNL     1       3.162   7.718  18.123  0.00  0.00    +0.000 NA
ATOM      3  C   UNL     1       3.702   6.451  18.225  0.00  0.00    +0.000 A 
ATOM      4  C   UNL     1       3.111   5.768  19.272  0.00  0.00    +0.000 A 
ATOM      5  N   UNL     1       2.179   6.641  19.775  0.00  0.00    +0.000 N 
ATOM      6  H   UNL     1       1.567   6.464  20.558  0.00  0.00    +0.000 HD
ENDROOT
BRANCH   4   7
ATOM      7  C   UNL     1       3.242   4.503  19.895  0.00  0.00    +0.000 A 
ATOM      8  C   UNL     1       4.297   3.556  19.570  0.00  0.00    +0.000 A 
ATOM      9  C   UNL     1       4.359   2.371  20.190  0.00  0.00    +0.000 A 
ATOM     10  N   UNL     1       3.421   2.038  21.130  0.00  0.00    +0.000 N 
ATOM     11  C   UNL     1       2.381   2.855  21.496  0.00  0.00    +0.000 A 
ATOM     12  O   UNL     1       1.536   2.530  22.319  0.00  0.00    +0.000 OA
ATOM     13  C   UNL     1       2.330   4.179  20.831  0.00  0.00    +0.000 A 
ATOM     14  H   UNL     1       3.451   1.134  21.586  0.00  0.00    +0.000 HD
ENDBRANCH   4   7
BRANCH   3  15
ATOM     15  C   UNL     1       4.737   5.962  17.321  0.00  0.00    +0.000 A 
ATOM     16  C   UNL     1       6.043   6.466  17.416  0.00  0.00    +0.000 A 
ATOM     17  C   UNL     1       7.038   6.039  16.531  0.00  0.00    +0.000 A 
ATOM     18  C   UNL     1       6.730   5.110  15.545  0.00  0.00    +0.000 A 
ATOM     19  F   UNL     1       7.677   4.710  14.686  0.00  0.00    +0.000 F 
ATOM     20  C   UNL     1       5.445   4.600  15.427  0.00  0.00    +0.000 A 
ATOM     21  C   UNL     1       4.453   5.030  16.310  0.00  0.00    +0.000 A 
ENDBRANCH   3  15
BRANCH   1  25
ATOM     22  C   UNL     1      -0.547  11.033  19.554  0.00  0.00    +0.000 A 
ATOM     23  C   UNL     1      -0.102  10.313  20.667  0.00  0.00    +0.000 A 
ATOM     24  C   UNL     1       0.801   9.256  20.504  0.00  0.00    +0.000 A 
ATOM     25  C   UNL     1       1.276   8.910  19.229  0.00  0.00    +0.000 A 
ATOM     26  C   UNL     1       0.830   9.649  18.123  0.00  0.00    +0.000 A 
ATOM     27  C   UNL     1      -0.062  10.712  18.282  0.00  0.00    +0.000 A 
BRANCH  22  29
ATOM     28  O   UNL     1      -1.943  12.424  20.881  0.00  0.00    +0.000 OA
ATOM     29  C   UNL     1      -1.509  12.140  19.779  0.00  0.00    +0.000 C 
BRANCH  29  30
ATOM     30  O   UNL     1      -1.892  12.765  18.646  0.00  0.00    +0.000 OA
ATOM     31  H   UNL     1      -1.473  12.434  17.830  0.00  0.00    +0.000 HD
ENDBRANCH  29  30
ENDBRANCH  22  29
ENDBRANCH   1  25
TORSDOF 5
ENDMDL
MODEL 2
REMARK VINA RESULT:      -8.7      0.129      1.294
REMARK  Name = 
REMARK  5 active torsions:
REMARK  status: ('A' for Active; 'I' for Inactive)
REMARK    1  A    between atoms: C_2  and  O_3
REMARK    2  A    between atoms: C_2  and  C_4
REMARK    3  A    between atoms: C_7  and  C_8
REMARK    4  A    between atoms: C_10  and  C_11
REMARK    5  A    between atoms: C_18  and  C_19
REMARK                            x       y       z     vdW  Elec       q    Type
REMARK                         _______ _______ _______ _____ _____    ______ ____
ROOT
ATOM      1  C   UNL     1       2.179   7.820  19.036  0.00  0.00    +0.000 A 
ATOM      2  N   UNL     1       3.147   7.758  18.140  0.00  0.00    +0.000 NA
ATOM      3  C   UNL     1       3.693   6.492  18.236  0.00  0.00    +0.000 A 
ATOM      4  C   UNL     1       3.099   5.799  19.276  0.00  0.00    +0.000 A 
ATOM      5  N   UNL     1       2.161   6.664  19.779  0.00  0.00    +0.000 N 
ATOM      6  H   UNL     1       1.546   6.479  20.558  0.00  0.00    +0.000 HD
ENDROOT
BRANCH   4   7
ATOM      7  C   UNL     1       3.233   4.530  19.891  0.00  0.00    +0.000 A 
ATOM      8  C   UNL     1       4.296   3.592  19.566  0.00  0.00    +0.000 A 
ATOM      9  C   UNL     1       4.360   2.403  20.177  0.00  0.00    +0.000 A 
ATOM     10  N   UNL     1       3.418   2.058  21.109  0.00  0.00    +0.000 N 
ATOM     11  C   UNL     1       2.372   2.867  21.475  0.00  0.00    +0.000 A 
ATOM     12  O   UNL     1       1.523   2.531  22.290  0.00  0.00    +0.000 OA
ATOM     13  C   UNL     1       2.318   4.195  20.818  0.00  0.00    +0.000 A 
ATOM     14  H   UNL     1       3.450   1.151  21.559  0.00  0.00    +0.000 HD
ENDBRANCH   4   7
BRANCH   3  15
ATOM     15  C   UNL     1       4.734   6.015  17.334  0.00  0.00    +0.000 A 
ATOM     16  C   UNL     1       4.430   5.042  16.370  0.00  0.00    +0.000 A 
ATOM     17  C   UNL     1       5.426   4.543  15.522  0.00  0.00    +0.000 A 
ATOM     18  C   UNL     1       6.728   5.011  15.640  0.00  0.00    +0.000 A 
ATOM     19  F   UNL     1       7.687   4.525  14.840  0.00  0.00    +0.000 F 
ATOM     20  C   UNL     1       7.055   5.969  16.588  0.00  0.00    +0.000 A 
ATOM     21  C   UNL     1       6.060   6.464  17.434  0.00  0.00    +0.000 A 
ENDBRANCH   3  15
BRANCH   1  25
ATOM     22  C   UNL     1      -0.484  11.104  19.704  0.00  0.00    +0.000 A 
ATOM     23  C   UNL     1      -0.188  10.708  18.397  0.00  0.00    +0.000 A 
ATOM     24  C   UNL     1       0.676   9.631  18.169  0.00  0.00    +0.000 A 
ATOM     25  C   UNL     1       1.249   8.933  19.244  0.00  0.00    +0.000 A 
ATOM     26  C   UNL     1       0.933   9.334  20.550  0.00  0.00    +0.000 A 
ATOM     27  C   UNL     1       0.062  10.401  20.783  0.00  0.00    +0.000 A 
BRANCH  22  29
ATOM     28  O   UNL     1      -1.704  12.686  20.992  0.00  0.00    +0.000 OA
ATOM     29  C   UNL     1      -1.401  12.256  19.893  0.00  0.00    +0.000 C 
BRANCH  29  30
ATOM     30  O   UNL     1      -1.903  12.745  18.740  0.00  0.00    +0.000 OA
ATOM     31  H   UNL     1      -2.645  12.236  18.364  0.00  0.00    +0.000 HD
ENDBRANCH  29  30
ENDBRANCH  22  29
ENDBRANCH   1  25
TORSDOF 5
ENDMDL
MODEL 3
REMARK VINA RESULT:      -8.6      1.360      1.699
REMARK  Name = 
REMARK  5 active torsions:
REMARK  status: ('A' for Active; 'I' for Inactive)
REMARK    1  A    between atoms: C_2  and  O_3
REMARK    2  A    between atoms: C_2  and  C_4
REMARK    3  A    between atoms: C_7  and  C_8
REMARK    4  A    between atoms: C_10  and  C_11
REMARK    5  A    between atoms: C_18  and  C_19
REMARK                            x       y       z     vdW  Elec       q    Type
REMARK                         _______ _______ _______ _____ _____    ______ ____
ROOT
ATOM      1  C   UNL     1       2.123   8.493  18.433  0.00  0.00    +0.000 A 
ATOM      2  N   UNL     1       3.259   8.225  17.814  0.00  0.00    +0.000 NA
ATOM      3  C   UNL     1       3.450   6.860  17.916  0.00  0.00    +0.000 A 
ATOM      4  C   UNL     1       2.451   6.299  18.691  0.00  0.00    +0.000 A 
ATOM      5  N   UNL     1       1.636   7.352  19.023  0.00  0.00    +0.000 N 
ATOM      6  H   UNL     1       0.805   7.298  19.595  0.00  0.00    +0.000 HD
ENDROOT
BRANCH   4   7
ATOM      7  C   UNL     1       2.115   5.015  19.185  0.00  0.00    +0.000 A 
ATOM      8  C   UNL     1       1.499   3.980  18.370  0.00  0.00    +0.000 A 
ATOM      9  C   UNL     1       1.197   2.790  18.902  0.00  0.00    +0.000 A 
ATOM     10  N   UNL     1       1.458   2.541  20.222  0.00  0.00    +0.000 N 
ATOM     11  C   UNL     1       2.024   3.454  21.076  0.00  0.00    +0.000 A 
ATOM     12  O   UNL     1       2.226   3.224  22.260  0.00  0.00    +0.000 OA
ATOM     13  C   UNL     1       2.385   4.763  20.479  0.00  0.00    +0.000 A 
ATOM     14  H   UNL     1       1.212   1.649  20.634  0.00  0.00    +0.000 HD
ENDBRANCH   4   7
BRANCH   3  15
ATOM     15  C   UNL     1       4.559   6.172  17.267  0.00  0.00    +0.000 A 
ATOM     16  C   UNL     1       5.858   6.693  17.366  0.00  0.00    +0.000 A 
ATOM     17  C   UNL     1       6.929   6.068  16.716  0.00  0.00    +0.000 A 
ATOM     18  C   UNL     1       6.702   4.924  15.961  0.00  0.00    +0.000 A 
ATOM     19  F   UNL     1       7.722   4.332  15.326  0.00  0.00    +0.000 F 
ATOM     20  C   UNL     1       5.426   4.392  15.844  0.00  0.00    +0.000 A 
ATOM     21  C   UNL     1       4.360   5.018  16.491  0.00  0.00    +0.000 A 
ENDBRANCH   3  15
BRANCH   1  25
ATOM     22  C   UNL     1       0.126  12.269  18.725  0.00  0.00    +0.000 A 
ATOM     23  C   UNL     1       1.502  12.230  18.480  0.00  0.00    +0.000 A 
ATOM     24  C   UNL     1       2.162  11.001  18.377  0.00  0.00    +0.000 A 
ATOM     25  C   UNL     1       1.455   9.795  18.509  0.00  0.00    +0.000 A 
ATOM     26  C   UNL     1       0.073   9.849  18.743  0.00  0.00    +0.000 A 
ATOM     27  C   UNL     1      -0.593  11.074  18.836  0.00  0.00    +0.000 A 
BRANCH  22  29
ATOM     28  O   UNL     1       0.055  14.640  18.590  0.00  0.00    +0.000 OA
ATOM     29  C   UNL     1      -0.526  13.597  18.834  0.00  0.00    +0.000 C 
BRANCH  29  30
ATOM     30  O   UNL     1      -1.801  13.542  19.273  0.00  0.00    +0.000 OA
ATOM     31  H   UNL     1      -1.954  13.945  20.148  0.00  0.00    +0.000 HD
ENDBRANCH  29  30
ENDBRANCH  22  29
ENDBRANCH   1  25
TORSDOF 5
ENDMDL
MODEL 4
REMARK VINA RESULT:      -8.4      2.962      4.516
REMARK  Name = 
REMARK  5 active torsions:
REMARK  status: ('A' for Active; 'I' for Inactive)
REMARK    1  A    between atoms: C_2  and  O_3
REMARK    2  A    between atoms: C_2  and  C_4
REMARK    3  A    between atoms: C_7  and  C_8
REMARK    4  A    between atoms: C_10  and  C_11
REMARK    5  A    between atoms: C_18  and  C_19
REMARK                            x       y       z     vdW  Elec       q    Type
REMARK                         _______ _______ _______ _____ _____    ______ ____
ROOT
ATOM      1  C   UNL     1       2.299   8.467  18.079  0.00  0.00    +0.000 A 
ATOM      2  N   UNL     1       1.641   7.368  18.399  0.00  0.00    +0.000 NA
ATOM      3  C   UNL     1       2.512   6.315  18.202  0.00  0.00    +0.000 A 
ATOM      4  C   UNL     1       3.700   6.777  17.666  0.00  0.00    +0.000 A 
ATOM      5  N   UNL     1       3.536   8.137  17.579  0.00  0.00    +0.000 N 
ATOM      6  H   UNL     1       4.216   8.792  17.220  0.00  0.00    +0.000 HD
ENDROOT
BRANCH   4   7
ATOM      7  C   UNL     1       4.924   6.225  17.217  0.00  0.00    +0.000 A 
ATOM      8  C   UNL     1       5.264   6.069  15.812  0.00  0.00    +0.000 A 
ATOM      9  C   UNL     1       6.435   5.529  15.454  0.00  0.00    +0.000 A 
ATOM     10  N   UNL     1       7.320   5.110  16.411  0.00  0.00    +0.000 N 
ATOM     11  C   UNL     1       7.087   5.201  17.760  0.00  0.00    +0.000 A 
ATOM     12  O   UNL     1       7.878   4.797  18.602  0.00  0.00    +0.000 OA
ATOM     13  C   UNL     1       5.802   5.826  18.156  0.00  0.00    +0.000 A 
ATOM     14  H   UNL     1       8.198   4.681  16.144  0.00  0.00    +0.000 HD
ENDBRANCH   4   7
BRANCH   3  15
ATOM     15  C   UNL     1       2.170   4.938  18.541  0.00  0.00    +0.000 A 
ATOM     16  C   UNL     1       1.709   4.630  19.830  0.00  0.00    +0.000 A 
ATOM     17  C   UNL     1       1.415   3.309  20.185  0.00  0.00    +0.000 A 
ATOM     18  C   UNL     1       1.585   2.292  19.254  0.00  0.00    +0.000 A 
ATOM     19  F   UNL     1       1.318   1.025  19.595  0.00  0.00    +0.000 F 
ATOM     20  C   UNL     1       2.043   2.570  17.975  0.00  0.00    +0.000 A 
ATOM     21  C   UNL     1       2.339   3.889  17.623  0.00  0.00    +0.000 A 
ENDBRANCH   3  15
BRANCH   1  25
ATOM     22  C   UNL     1       0.867  12.474  18.554  0.00  0.00    +0.000 A 
ATOM     23  C   UNL     1       2.165  12.253  18.083  0.00  0.00    +0.000 A 
ATOM     24  C   UNL     1       2.639  10.947  17.918  0.00  0.00    +0.000 A 
ATOM     25  C   UNL     1       1.821   9.845  18.215  0.00  0.00    +0.000 A 
ATOM     26  C   UNL     1       0.517  10.081  18.675  0.00  0.00    +0.000 A 
ATOM     27  C   UNL     1       0.035  11.384  18.830  0.00  0.00    +0.000 A 
BRANCH  22  29
ATOM     28  O   UNL     1       1.182  14.801  18.916  0.00  0.00    +0.000 OA
ATOM     29  C   UNL     1       0.413  13.877  18.718  0.00  0.00    +0.000 C 
BRANCH  29  30
ATOM     30  O   UNL     1      -0.928  14.022  18.679  0.00  0.00    +0.000 OA
ATOM     31  H   UNL     1      -1.355  14.156  19.546  0.00  0.00    +0.000 HD
ENDBRANCH  29  30
ENDBRANCH  22  29
ENDBRANCH   1  25
TORSDOF 5
ENDMDL
MODEL 5
REMARK VINA RESULT:      -8.4      1.515      1.856
REMARK  Name = 
REMARK  5 active torsions:
REMARK  status: ('A' for Active; 'I' for Inactive)
REMARK    1  A    between atoms: C_2  and  O_3
REMARK    2  A    between atoms: C_2  and  C_4
REMARK    3  A    between atoms: C_7  and  C_8
REMARK    4  A    between atoms: C_10  and  C_11
REMARK    5  A    between atoms: C_18  and  C_19
REMARK                            x       y       z     vdW  Elec       q    Type
REMARK                         _______ _______ _______ _____ _____    ______ ____
ROOT
ATOM      1  C   UNL     1       2.109   8.474  18.505  0.00  0.00    +0.000 A 
ATOM      2  N   UNL     1       3.225   8.187  17.858  0.00  0.00    +0.000 NA
ATOM      3  C   UNL     1       3.427   6.829  18.005  0.00  0.00    +0.000 A 
ATOM      4  C   UNL     1       2.458   6.293  18.834  0.00  0.00    +0.000 A 
ATOM      5  N   UNL     1       1.648   7.354  19.154  0.00  0.00    +0.000 N 
ATOM      6  H   UNL     1       0.838   7.318  19.755  0.00  0.00    +0.000 HD
ENDROOT
BRANCH   4   7
ATOM      7  C   UNL     1       2.146   5.027  19.388  0.00  0.00    +0.000 A 
ATOM      8  C   UNL     1       2.616   4.587  20.692  0.00  0.00    +0.000 A 
ATOM      9  C   UNL     1       2.293   3.373  21.153  0.00  0.00    +0.000 A 
ATOM     10  N   UNL     1       1.524   2.531  20.395  0.00  0.00    +0.000 N 
ATOM     11  C   UNL     1       1.044   2.848  19.149  0.00  0.00    +0.000 A 
ATOM     12  O   UNL     1       0.381   2.073  18.473  0.00  0.00    +0.000 OA
ATOM     13  C   UNL     1       1.378   4.204  18.651  0.00  0.00    +0.000 A 
ATOM     14  H   UNL     1       1.295   1.604  20.731  0.00  0.00    +0.000 HD
ENDBRANCH   4   7
BRANCH   3  15
ATOM     15  C   UNL     1       4.518   6.121  17.346  0.00  0.00    +0.000 A 
ATOM     16  C   UNL     1       5.807   6.676  17.339  0.00  0.00    +0.000 A 
ATOM     17  C   UNL     1       6.857   6.030  16.677  0.00  0.00    +0.000 A 
ATOM     18  C   UNL     1       6.621   4.832  16.015  0.00  0.00    +0.000 A 
ATOM     19  F   UNL     1       7.621   4.220  15.367  0.00  0.00    +0.000 F 
ATOM     20  C   UNL     1       5.355   4.266  16.003  0.00  0.00    +0.000 A 
ATOM     21  C   UNL     1       4.308   4.912  16.662  0.00  0.00    +0.000 A 
ENDBRANCH   3  15
BRANCH   1  25
ATOM     22  C   UNL     1       0.098  12.247  18.718  0.00  0.00    +0.000 A 
ATOM     23  C   UNL     1       1.475  12.209  18.478  0.00  0.00    +0.000 A 
ATOM     24  C   UNL     1       2.139  10.980  18.400  0.00  0.00    +0.000 A 
ATOM     25  C   UNL     1       1.436   9.774  18.554  0.00  0.00    +0.000 A 
ATOM     26  C   UNL     1       0.053   9.828  18.782  0.00  0.00    +0.000 A 
ATOM     27  C   UNL     1      -0.617  11.052  18.849  0.00  0.00    +0.000 A 
BRANCH  22  29
ATOM     28  O   UNL     1       0.032  14.619  18.585  0.00  0.00    +0.000 OA
ATOM     29  C   UNL     1      -0.559  13.575  18.799  0.00  0.00    +0.000 C 
BRANCH  29  30
ATOM     30  O   UNL     1      -1.853  13.519  19.180  0.00  0.00    +0.000 OA
ATOM     31  H   UNL     1      -2.020  13.755  20.112  0.00  0.00    +0.000 HD
ENDBRANCH  29  30
ENDBRANCH  22  29
ENDBRANCH   1  25
TORSDOF 5
ENDMDL
MODEL 6
REMARK VINA RESULT:      -8.4      0.867      1.258
REMARK  Name = 
REMARK  5 active torsions:
REMARK  status: ('A' for Active; 'I' for Inactive)
REMARK    1  A    between atoms: C_2  and  O_3
REMARK    2  A    between atoms: C_2  and  C_4
REMARK    3  A    between atoms: C_7  and  C_8
REMARK    4  A    between atoms: C_10  and  C_11
REMARK    5  A    between atoms: C_18  and  C_19
REMARK                            x       y       z     vdW  Elec       q    Type
REMARK                         _______ _______ _______ _____ _____    ______ ____
ROOT
ATOM      1  C   UNL     1       2.079   7.900  19.154  0.00  0.00    +0.000 A 
ATOM      2  N   UNL     1       3.052   7.757  18.272  0.00  0.00    +0.000 NA
ATOM      3  C   UNL     1       3.523   6.466  18.410  0.00  0.00    +0.000 A 
ATOM      4  C   UNL     1       2.879   5.837  19.460  0.00  0.00    +0.000 A 
ATOM      5  N   UNL     1       1.986   6.768  19.928  0.00  0.00    +0.000 N 
ATOM      6  H   UNL     1       1.352   6.641  20.703  0.00  0.00    +0.000 HD
ENDROOT
BRANCH   4   7
ATOM      7  C   UNL     1       2.933   4.581  20.111  0.00  0.00    +0.000 A 
ATOM      8  C   UNL     1       1.917   4.119  21.044  0.00  0.00    +0.000 A 
ATOM      9  C   UNL     1       2.033   2.923  21.634  0.00  0.00    +0.000 A 
ATOM     10  N   UNL     1       3.116   2.128  21.368  0.00  0.00    +0.000 N 
ATOM     11  C   UNL     1       4.131   2.478  20.514  0.00  0.00    +0.000 A 
ATOM     12  O   UNL     1       5.105   1.766  20.309  0.00  0.00    +0.000 OA
ATOM     13  C   UNL     1       3.988   3.790  19.840  0.00  0.00    +0.000 A 
ATOM     14  H   UNL     1       3.218   1.231  21.828  0.00  0.00    +0.000 HD
ENDBRANCH   4   7
BRANCH   3  15
ATOM     15  C   UNL     1       4.546   5.905  17.535  0.00  0.00    +0.000 A 
ATOM     16  C   UNL     1       5.838   6.452  17.530  0.00  0.00    +0.000 A 
ATOM     17  C   UNL     1       6.820   5.952  16.668  0.00  0.00    +0.000 A 
ATOM     18  C   UNL     1       6.512   4.909  15.804  0.00  0.00    +0.000 A 
ATOM     19  F   UNL     1       7.446   4.439  14.967  0.00  0.00    +0.000 F 
ATOM     20  C   UNL     1       5.241   4.355  15.786  0.00  0.00    +0.000 A 
ATOM     21  C   UNL     1       4.261   4.856  16.646  0.00  0.00    +0.000 A 
ENDBRANCH   3  15
BRANCH   1  25
ATOM     22  C   UNL     1      -0.505  11.288  19.573  0.00  0.00    +0.000 A 
ATOM     23  C   UNL     1      -0.046  10.621  20.713  0.00  0.00    +0.000 A 
ATOM     24  C   UNL     1       0.804   9.517  20.586  0.00  0.00    +0.000 A 
ATOM     25  C   UNL     1       1.213   9.069  19.319  0.00  0.00    +0.000 A 
ATOM     26  C   UNL     1       0.755   9.755  18.185  0.00  0.00    +0.000 A 
ATOM     27  C   UNL     1      -0.085  10.865  18.307  0.00  0.00    +0.000 A 
BRANCH  22  29
ATOM     28  O   UNL     1      -1.426  13.116  20.780  0.00  0.00    +0.000 OA
ATOM     29  C   UNL     1      -1.410  12.448  19.761  0.00  0.00    +0.000 C 
BRANCH  29  30
ATOM     30  O   UNL     1      -2.243  12.661  18.721  0.00  0.00    +0.000 OA
ATOM     31  H   UNL     1      -3.159  12.354  18.856  0.00  0.00    +0.000 HD
ENDBRANCH  29  30
ENDBRANCH  22  29
ENDBRANCH   1  25
TORSDOF 5
ENDMDL
MODEL 7
REMARK VINA RESULT:      -8.3      1.590      2.201
REMARK  Name = 
REMARK  5 active torsions:
REMARK  status: ('A' for Active; 'I' for Inactive)
REMARK    1  A    between atoms: C_2  and  O_3
REMARK    2  A    between atoms: C_2  and  C_4
REMARK    3  A    between atoms: C_7  and  C_8
REMARK    4  A    between atoms: C_10  and  C_11
REMARK    5  A    between atoms: C_18  and  C_19
REMARK                            x       y       z     vdW  Elec       q    Type
REMARK                         _______ _______ _______ _____ _____    ______ ____
ROOT
ATOM      1  C   UNL     1       2.998   6.851  18.527  0.00  0.00    +0.000 A 
ATOM      2  N   UNL     1       3.828   6.933  17.503  0.00  0.00    +0.000 NA
ATOM      3  C   UNL     1       4.324   5.660  17.295  0.00  0.00    +0.000 A 
ATOM      4  C   UNL     1       3.850   4.803  18.271  0.00  0.00    +0.000 A 
ATOM      5  N   UNL     1       3.030   5.581  19.050  0.00  0.00    +0.000 N 
ATOM      6  H   UNL     1       2.521   5.270  19.865  0.00  0.00    +0.000 HD
ENDROOT
BRANCH   4   7
ATOM      7  C   UNL     1       4.010   3.441  18.627  0.00  0.00    +0.000 A 
ATOM      8  C   UNL     1       3.535   2.338  17.807  0.00  0.00    +0.000 A 
ATOM      9  C   UNL     1       3.709   1.073  18.206  0.00  0.00    +0.000 A 
ATOM     10  N   UNL     1       4.331   0.808  19.397  0.00  0.00    +0.000 N 
ATOM     11  C   UNL     1       4.803   1.777  20.246  0.00  0.00    +0.000 A 
ATOM     12  O   UNL     1       5.332   1.523  21.320  0.00  0.00    +0.000 OA
ATOM     13  C   UNL     1       4.634   3.178  19.790  0.00  0.00    +0.000 A 
ATOM     14  H   UNL     1       4.446  -0.148  19.714  0.00  0.00    +0.000 HD
ENDBRANCH   4   7
BRANCH   3  15
ATOM     15  C   UNL     1       5.207   5.334  16.182  0.00  0.00    +0.000 A 
ATOM     16  C   UNL     1       6.519   5.833  16.161  0.00  0.00    +0.000 A 
ATOM     17  C   UNL     1       7.367   5.563  15.081  0.00  0.00    +0.000 A 
ATOM     18  C   UNL     1       6.905   4.798  14.018  0.00  0.00    +0.000 A 
ATOM     19  F   UNL     1       7.711   4.550  12.977  0.00  0.00    +0.000 F 
ATOM     20  C   UNL     1       5.613   4.296  14.013  0.00  0.00    +0.000 A 
ATOM     21  C   UNL     1       4.767   4.569  15.090  0.00  0.00    +0.000 A 
ENDBRANCH   3  15
BRANCH   1  25
ATOM     22  C   UNL     1       0.591   9.995  20.155  0.00  0.00    +0.000 A 
ATOM     23  C   UNL     1       0.978  10.044  18.812  0.00  0.00    +0.000 A 
ATOM     24  C   UNL     1       1.759   9.017  18.270  0.00  0.00    +0.000 A 
ATOM     25  C   UNL     1       2.157   7.926  19.060  0.00  0.00    +0.000 A 
ATOM     26  C   UNL     1       1.751   7.885  20.401  0.00  0.00    +0.000 A 
ATOM     27  C   UNL     1       0.961   8.902  20.945  0.00  0.00    +0.000 A 
BRANCH  22  29
ATOM     28  O   UNL     1      -1.139  11.620  20.052  0.00  0.00    +0.000 OA
ATOM     29  C   UNL     1      -0.231  11.111  20.684  0.00  0.00    +0.000 C 
BRANCH  29  30
ATOM     30  O   UNL     1       0.155  11.539  21.905  0.00  0.00    +0.000 OA
ATOM     31  H   UNL     1       0.169  10.852  22.597  0.00  0.00    +0.000 HD
ENDBRANCH  29  30
ENDBRANCH  22  29
ENDBRANCH   1  25
TORSDOF 5
ENDMDL
MODEL 8
REMARK VINA RESULT:      -8.3      1.233      1.630
REMARK  Name = 
REMARK  5 active torsions:
REMARK  status: ('A' for Active; 'I' for Inactive)
REMARK    1  A    between atoms: C_2  and  O_3
REMARK    2  A    between atoms: C_2  and  C_4
REMARK    3  A    between atoms: C_7  and  C_8
REMARK    4  A    between atoms: C_10  and  C_11
REMARK    5  A    between atoms: C_18  and  C_19
REMARK                            x       y       z     vdW  Elec       q    Type
REMARK                         _______ _______ _______ _____ _____    ______ ____
ROOT
ATOM      1  C   UNL     1       2.023   8.385  18.718  0.00  0.00    +0.000 A 
ATOM      2  N   UNL     1       3.138   8.199  18.035  0.00  0.00    +0.000 NA
ATOM      3  C   UNL     1       3.380   6.839  18.038  0.00  0.00    +0.000 A 
ATOM      4  C   UNL     1       2.437   6.192  18.815  0.00  0.00    +0.000 A 
ATOM      5  N   UNL     1       1.601   7.190  19.250  0.00  0.00    +0.000 N 
ATOM      6  H   UNL     1       0.799   7.069  19.851  0.00  0.00    +0.000 HD
ENDROOT
BRANCH   4   7
ATOM      7  C   UNL     1       2.167   4.868  19.237  0.00  0.00    +0.000 A 
ATOM      8  C   UNL     1       1.550   3.866  18.382  0.00  0.00    +0.000 A 
ATOM      9  C   UNL     1       1.312   2.633  18.846  0.00  0.00    +0.000 A 
ATOM     10  N   UNL     1       1.642   2.309  20.135  0.00  0.00    +0.000 N 
ATOM     11  C   UNL     1       2.216   3.185  21.022  0.00  0.00    +0.000 A 
ATOM     12  O   UNL     1       2.479   2.885  22.179  0.00  0.00    +0.000 OA
ATOM     13  C   UNL     1       2.504   4.541  20.498  0.00  0.00    +0.000 A 
ATOM     14  H   UNL     1       1.445   1.383  20.497  0.00  0.00    +0.000 HD
ENDBRANCH   4   7
BRANCH   3  15
ATOM     15  C   UNL     1       4.483   6.236  17.299  0.00  0.00    +0.000 A 
ATOM     16  C   UNL     1       4.265   5.073  16.545  0.00  0.00    +0.000 A 
ATOM     17  C   UNL     1       5.321   4.458  15.862  0.00  0.00    +0.000 A 
ATOM     18  C   UNL     1       6.597   5.000  15.937  0.00  0.00    +0.000 A 
ATOM     19  F   UNL     1       7.612   4.405  15.296  0.00  0.00    +0.000 F 
ATOM     20  C   UNL     1       6.840   6.146  16.679  0.00  0.00    +0.000 A 
ATOM     21  C   UNL     1       5.786   6.757  17.361  0.00  0.00    +0.000 A 
ENDBRANCH   3  15
BRANCH   1  25
ATOM     22  C   UNL     1      -0.033  12.110  19.188  0.00  0.00    +0.000 A 
ATOM     23  C   UNL     1      -0.585  10.942  19.724  0.00  0.00    +0.000 A 
ATOM     24  C   UNL     1       0.084   9.722  19.580  0.00  0.00    +0.000 A 
ATOM     25  C   UNL     1       1.314   9.653  18.907  0.00  0.00    +0.000 A 
ATOM     26  C   UNL     1       1.861  10.834  18.386  0.00  0.00    +0.000 A 
ATOM     27  C   UNL     1       1.203  12.058  18.536  0.00  0.00    +0.000 A 
BRANCH  22  29
ATOM     28  O   UNL     1      -1.550  13.572  20.288  0.00  0.00    +0.000 OA
ATOM     29  C   UNL     1      -0.784  13.379  19.360  0.00  0.00    +0.000 C 
BRANCH  29  30
ATOM     30  O   UNL     1      -0.577  14.271  18.369  0.00  0.00    +0.000 OA
ATOM     31  H   UNL     1      -0.953  15.158  18.527  0.00  0.00    +0.000 HD
ENDBRANCH  29  30
ENDBRANCH  22  29
ENDBRANCH   1  25
TORSDOF 5
ENDMDL
MODEL 9
REMARK VINA RESULT:      -8.3      3.174      4.665
REMARK  Name = 
REMARK  5 active torsions:
REMARK  status: ('A' for Active; 'I' for Inactive)
REMARK    1  A    between atoms: C_2  and  O_3
REMARK    2  A    between atoms: C_2  and  C_4
REMARK    3  A    between atoms: C_7  and  C_8
REMARK    4  A    between atoms: C_10  and  C_11
REMARK    5  A    between atoms: C_18  and  C_19
REMARK                            x       y       z     vdW  Elec       q    Type
REMARK                         _______ _______ _______ _____ _____    ______ ____
ROOT
ATOM      1  C   UNL     1       2.306   8.412  18.091  0.00  0.00    +0.000 A 
ATOM      2  N   UNL     1       1.643   7.301  18.353  0.00  0.00    +0.000 NA
ATOM      3  C   UNL     1       2.537   6.260  18.192  0.00  0.00    +0.000 A 
ATOM      4  C   UNL     1       3.750   6.745  17.737  0.00  0.00    +0.000 A 
ATOM      5  N   UNL     1       3.575   8.104  17.661  0.00  0.00    +0.000 N 
ATOM      6  H   UNL     1       4.267   8.772  17.354  0.00  0.00    +0.000 HD
ENDROOT
BRANCH   4   7
ATOM      7  C   UNL     1       5.005   6.213  17.354  0.00  0.00    +0.000 A 
ATOM      8  C   UNL     1       6.052   5.871  18.303  0.00  0.00    +0.000 A 
ATOM      9  C   UNL     1       7.222   5.381  17.875  0.00  0.00    +0.000 A 
ATOM     10  N   UNL     1       7.444   5.207  16.535  0.00  0.00    +0.000 N 
ATOM     11  C   UNL     1       6.526   5.511  15.561  0.00  0.00    +0.000 A 
ATOM     12  O   UNL     1       6.752   5.375  14.366  0.00  0.00    +0.000 OA
ATOM     13  C   UNL     1       5.221   6.027  16.039  0.00  0.00    +0.000 A 
ATOM     14  H   UNL     1       8.335   4.856  16.204  0.00  0.00    +0.000 HD
ENDBRANCH   4   7
BRANCH   3  15
ATOM     15  C   UNL     1       2.192   4.875  18.488  0.00  0.00    +0.000 A 
ATOM     16  C   UNL     1       1.659   4.540  19.742  0.00  0.00    +0.000 A 
ATOM     17  C   UNL     1       1.360   3.210  20.058  0.00  0.00    +0.000 A 
ATOM     18  C   UNL     1       1.598   2.211  19.122  0.00  0.00    +0.000 A 
ATOM     19  F   UNL     1       1.326   0.935  19.427  0.00  0.00    +0.000 F 
ATOM     20  C   UNL     1       2.128   2.515  17.878  0.00  0.00    +0.000 A 
ATOM     21  C   UNL     1       2.428   3.843  17.566  0.00  0.00    +0.000 A 
ENDBRANCH   3  15
BRANCH   1  25
ATOM     22  C   UNL     1       0.804  12.395  18.544  0.00  0.00    +0.000 A 
ATOM     23  C   UNL     1       2.107  12.195  18.080  0.00  0.00    +0.000 A 
ATOM     24  C   UNL     1       2.604  10.897  17.922  0.00  0.00    +0.000 A 
ATOM     25  C   UNL     1       1.804   9.782  18.219  0.00  0.00    +0.000 A 
ATOM     26  C   UNL     1       0.494   9.998  18.672  0.00  0.00    +0.000 A 
ATOM     27  C   UNL     1      -0.011  11.292  18.821  0.00  0.00    +0.000 A 
BRANCH  22  29
ATOM     28  O   UNL     1       1.079  14.731  18.881  0.00  0.00    +0.000 OA
ATOM     29  C   UNL     1       0.325  13.791  18.701  0.00  0.00    +0.000 C 
BRANCH  29  30
ATOM     30  O   UNL     1      -1.019  13.911  18.676  0.00  0.00    +0.000 OA
ATOM     31  H   UNL     1      -1.422  14.211  19.512  0.00  0.00    +0.000 HD
ENDBRANCH  29  30
ENDBRANCH  22  29
ENDBRANCH   1  25
TORSDOF 5
ENDMDL
