MODEL 1
REMARK VINA RESULT:      -7.6      0.000      0.000
REMARK  Name = 
REMARK  5 active torsions:
REMARK  status: ('A' for Active; 'I' for Inactive)
REMARK    1  A    between atoms: C_1  and  O_2
REMARK    2  A    between atoms: O_2  and  C_3
REMARK    3  A    between atoms: C_5  and  C_6
REMARK    4  A    between atoms: N_8  and  C_9
REMARK    5  A    between atoms: C_9  and  C_10
REMARK                            x       y       z     vdW  Elec       q    Type
REMARK                         _______ _______ _______ _____ _____    ______ ____
ROOT
ATOM      1  C   UNL     1       5.986   4.546  18.487  0.00  0.00    +0.000 A 
ATOM      2  C   UNL     1       6.693   4.785  17.296  0.00  0.00    +0.000 A 
ATOM      3  C   UNL     1       6.129   4.486  16.045  0.00  0.00    +0.000 A 
ATOM      4  C   UNL     1       4.824   4.001  15.984  0.00  0.00    +0.000 A 
ATOM      5  C   UNL     1       4.107   3.792  17.157  0.00  0.00    +0.000 A 
ATOM      6  C   UNL     1       4.679   4.040  18.413  0.00  0.00    +0.000 A 
ATOM      7  O   UNL     1       3.967   3.842  19.570  0.00  0.00    +0.000 OA
ATOM      8  C   UNL     1       2.816   3.015  19.372  0.00  0.00    +0.000 C 
ATOM      9  C   UNL     1       2.035   3.495  18.166  0.00  0.00    +0.000 C 
ATOM     10  O   UNL     1       2.824   3.349  16.980  0.00  0.00    +0.000 OA
ENDROOT
BRANCH   3  11
ATOM     11  C   UNL     1       6.905   4.751  14.798  0.00  0.00    +0.000 C 
ATOM     12  O   UNL     1       7.821   5.563  14.809  0.00  0.00    +0.000 OA
ATOM     13  N   UNL     1       6.534   4.031  13.677  0.00  0.00    +0.000 N 
ATOM     14  H   UNL     1       5.854   3.290  13.754  0.00  0.00    +0.000 HD
BRANCH  13  15
ATOM     15  C   UNL     1       7.193   4.259  12.408  0.00  0.00    +0.000 C 
BRANCH  15  16
ATOM     16  C   UNL     1       6.643   3.269  11.396  0.00  0.00    +0.000 C 
ATOM     17  C   UNL     1       7.365   1.904  11.218  0.00  0.00    +0.000 C 
ATOM     18  C   UNL     1       5.972   1.254  11.092  0.00  0.00    +0.000 C 
ATOM     19  C   UNL     1       5.417   2.449  11.889  0.00  0.00    +0.000 C 
ENDBRANCH  15  16
ENDBRANCH  13  15
ENDBRANCH   3  11
BRANCH   1  21
ATOM     20  C   UNL     1       7.789   5.773  19.452  0.00  0.00    +0.000 C 
ATOM     21  O   UNL     1       6.673   4.900  19.621  0.00  0.00    +0.000 OA
ENDBRANCH   1  21
TORSDOF 4
ENDMDL
MODEL 2
REMARK VINA RESULT:      -7.3      2.428      3.161
REMARK  Name = 
REMARK  5 active torsions:
REMARK  status: ('A' for Active; 'I' for Inactive)
REMARK    1  A    between atoms: C_1  and  O_2
REMARK    2  A    between atoms: O_2  and  C_3
REMARK    3  A    between atoms: C_5  and  C_6
REMARK    4  A    between atoms: N_8  and  C_9
REMARK    5  A    between atoms: C_9  and  C_10
REMARK                            x       y       z     vdW  Elec       q    Type
REMARK                         _______ _______ _______ _____ _____    ______ ____
ROOT
ATOM      1  C   UNL     1       2.697   6.558  18.974  0.00  0.00    +0.000 A 
ATOM      2  C   UNL     1       3.565   6.711  17.878  0.00  0.00    +0.000 A 
ATOM      3  C   UNL     1       4.187   5.601  17.285  0.00  0.00    +0.000 A 
ATOM      4  C   UNL     1       3.891   4.322  17.755  0.00  0.00    +0.000 A 
ATOM      5  C   UNL     1       3.009   4.161  18.817  0.00  0.00    +0.000 A 
ATOM      6  C   UNL     1       2.421   5.266  19.448  0.00  0.00    +0.000 A 
ATOM      7  O   UNL     1       1.543   5.105  20.492  0.00  0.00    +0.000 OA
ATOM      8  C   UNL     1       1.627   3.805  21.084  0.00  0.00    +0.000 C 
ATOM      9  C   UNL     1       1.604   2.742  20.005  0.00  0.00    +0.000 C 
ATOM     10  O   UNL     1       2.763   2.862  19.173  0.00  0.00    +0.000 OA
ENDROOT
BRANCH   3  11
ATOM     11  C   UNL     1       5.103   5.796  16.124  0.00  0.00    +0.000 C 
ATOM     12  O   UNL     1       5.108   6.861  15.521  0.00  0.00    +0.000 OA
ATOM     13  N   UNL     1       5.922   4.729  15.798  0.00  0.00    +0.000 N 
ATOM     14  H   UNL     1       5.962   3.921  16.401  0.00  0.00    +0.000 HD
BRANCH  13  15
ATOM     15  C   UNL     1       6.805   4.805  14.653  0.00  0.00    +0.000 C 
BRANCH  15  16
ATOM     16  C   UNL     1       6.437   3.692  13.688  0.00  0.00    +0.000 C 
ATOM     17  C   UNL     1       4.993   3.650  13.112  0.00  0.00    +0.000 C 
ATOM     18  C   UNL     1       5.612   3.235  11.761  0.00  0.00    +0.000 C 
ATOM     19  C   UNL     1       6.913   3.915  12.225  0.00  0.00    +0.000 C 
ENDBRANCH  15  16
ENDBRANCH  13  15
ENDBRANCH   3  11
BRANCH   1  21
ATOM     20  C   UNL     1       1.914   8.750  18.456  0.00  0.00    +0.000 C 
ATOM     21  O   UNL     1       2.165   7.737  19.430  0.00  0.00    +0.000 OA
ENDBRANCH   1  21
TORSDOF 4
ENDMDL
MODEL 3
REMARK VINA RESULT:      -7.1      2.284      6.211
REMARK  Name = 
REMARK  5 active torsions:
REMARK  status: ('A' for Active; 'I' for Inactive)
REMARK    1  A    between atoms: C_1  and  O_2
REMARK    2  A    between atoms: O_2  and  C_3
REMARK    3  A    between atoms: C_5  and  C_6
REMARK    4  A    between atoms: N_8  and  C_9
REMARK    5  A    between atoms: C_9  and  C_10
REMARK                            x       y       z     vdW  Elec       q    Type
REMARK                         _______ _______ _______ _____ _____    ______ ____
ROOT
ATOM      1  C   UNL     1       7.006   5.968  16.692  0.00  0.00    +0.000 A 
ATOM      2  C   UNL     1       6.273   5.608  17.836  0.00  0.00    +0.000 A 
ATOM      3  C   UNL     1       5.312   4.587  17.789  0.00  0.00    +0.000 A 
ATOM      4  C   UNL     1       5.124   3.880  16.602  0.00  0.00    +0.000 A 
ATOM      5  C   UNL     1       5.868   4.210  15.475  0.00  0.00    +0.000 A 
ATOM      6  C   UNL     1       6.797   5.261  15.498  0.00  0.00    +0.000 A 
ATOM      7  O   UNL     1       7.537   5.580  14.386  0.00  0.00    +0.000 OA
ATOM      8  C   UNL     1       6.985   5.035  13.184  0.00  0.00    +0.000 C 
ATOM      9  C   UNL     1       6.653   3.570  13.384  0.00  0.00    +0.000 C 
ATOM     10  O   UNL     1       5.631   3.429  14.376  0.00  0.00    +0.000 OA
ENDROOT
BRANCH   3  11
ATOM     11  C   UNL     1       4.549   4.228  19.021  0.00  0.00    +0.000 C 
ATOM     12  O   UNL     1       4.882   3.253  19.683  0.00  0.00    +0.000 OA
ATOM     13  N   UNL     1       3.487   5.050  19.351  0.00  0.00    +0.000 N 
ATOM     14  H   UNL     1       3.333   5.905  18.839  0.00  0.00    +0.000 HD
BRANCH  13  15
ATOM     15  C   UNL     1       2.655   4.750  20.498  0.00  0.00    +0.000 C 
BRANCH  15  16
ATOM     16  C   UNL     1       1.413   4.025  20.012  0.00  0.00    +0.000 C 
ATOM     17  C   UNL     1       1.260   3.740  18.491  0.00  0.00    +0.000 C 
ATOM     18  C   UNL     1       0.678   2.363  18.872  0.00  0.00    +0.000 C 
ATOM     19  C   UNL     1       1.444   2.482  20.202  0.00  0.00    +0.000 C 
ENDBRANCH  15  16
ENDBRANCH  13  15
ENDBRANCH   3  11
BRANCH   1  21
ATOM     20  C   UNL     1       8.048   7.445  18.248  0.00  0.00    +0.000 C 
ATOM     21  O   UNL     1       7.912   6.976  16.907  0.00  0.00    +0.000 OA
ENDBRANCH   1  21
TORSDOF 4
ENDMDL
MODEL 4
REMARK VINA RESULT:      -7.1      2.810      6.432
REMARK  Name = 
REMARK  5 active torsions:
REMARK  status: ('A' for Active; 'I' for Inactive)
REMARK    1  A    between atoms: C_1  and  O_2
REMARK    2  A    between atoms: O_2  and  C_3
REMARK    3  A    between atoms: C_5  and  C_6
REMARK    4  A    between atoms: N_8  and  C_9
REMARK    5  A    between atoms: C_9  and  C_10
REMARK                            x       y       z     vdW  Elec       q    Type
REMARK                         _______ _______ _______ _____ _____    ______ ____
ROOT
ATOM      1  C   UNL     1       6.809   6.437  17.221  0.00  0.00    +0.000 A 
ATOM      2  C   UNL     1       5.731   6.547  18.117  0.00  0.00    +0.000 A 
ATOM      3  C   UNL     1       4.493   5.947  17.838  0.00  0.00    +0.000 A 
ATOM      4  C   UNL     1       4.351   5.181  16.682  0.00  0.00    +0.000 A 
ATOM      5  C   UNL     1       5.423   5.041  15.807  0.00  0.00    +0.000 A 
ATOM      6  C   UNL     1       6.649   5.677  16.052  0.00  0.00    +0.000 A 
ATOM      7  O   UNL     1       7.709   5.532  15.191  0.00  0.00    +0.000 OA
ATOM      8  C   UNL     1       7.311   5.043  13.907  0.00  0.00    +0.000 C 
ATOM      9  C   UNL     1       6.396   3.847  14.068  0.00  0.00    +0.000 C 
ATOM     10  O   UNL     1       5.185   4.239  14.724  0.00  0.00    +0.000 OA
ENDROOT
BRANCH   3  11
ATOM     11  C   UNL     1       3.368   6.082  18.808  0.00  0.00    +0.000 C 
ATOM     12  O   UNL     1       2.620   7.050  18.747  0.00  0.00    +0.000 OA
ATOM     13  N   UNL     1       3.230   5.067  19.739  0.00  0.00    +0.000 N 
ATOM     14  H   UNL     1       3.798   4.237  19.668  0.00  0.00    +0.000 HD
BRANCH  13  15
ATOM     15  C   UNL     1       2.200   5.138  20.755  0.00  0.00    +0.000 C 
BRANCH  15  16
ATOM     16  C   UNL     1       1.102   4.153  20.395  0.00  0.00    +0.000 C 
ATOM     17  C   UNL     1       1.038   3.604  18.942  0.00  0.00    +0.000 C 
ATOM     18  C   UNL     1       0.671   2.232  19.544  0.00  0.00    +0.000 C 
ATOM     19  C   UNL     1       1.372   2.688  20.837  0.00  0.00    +0.000 C 
ENDBRANCH  15  16
ENDBRANCH  13  15
ENDBRANCH   3  11
BRANCH   1  21
ATOM     20  C   UNL     1       7.906   8.495  17.720  0.00  0.00    +0.000 C 
ATOM     21  O   UNL     1       7.950   7.071  17.645  0.00  0.00    +0.000 OA
ENDBRANCH   1  21
TORSDOF 4
ENDMDL
MODEL 5
REMARK VINA RESULT:      -7.1      2.330      6.194
REMARK  Name = 
REMARK  5 active torsions:
REMARK  status: ('A' for Active; 'I' for Inactive)
REMARK    1  A    between atoms: C_1  and  O_2
REMARK    2  A    between atoms: O_2  and  C_3
REMARK    3  A    between atoms: C_5  and  C_6
REMARK    4  A    between atoms: N_8  and  C_9
REMARK    5  A    between atoms: C_9  and  C_10
REMARK                            x       y       z     vdW  Elec       q    Type
REMARK                         _______ _______ _______ _____ _____    ______ ____
ROOT
ATOM      1  C   UNL     1       6.975   6.035  16.670  0.00  0.00    +0.000 A 
ATOM      2  C   UNL     1       6.202   5.786  17.817  0.00  0.00    +0.000 A 
ATOM      3  C   UNL     1       5.165   4.840  17.801  0.00  0.00    +0.000 A 
ATOM      4  C   UNL     1       4.938   4.096  16.644  0.00  0.00    +0.000 A 
ATOM      5  C   UNL     1       5.720   4.314  15.515  0.00  0.00    +0.000 A 
ATOM      6  C   UNL     1       6.727   5.291  15.506  0.00  0.00    +0.000 A 
ATOM      7  O   UNL     1       7.504   5.500  14.393  0.00  0.00    +0.000 OA
ATOM      8  C   UNL     1       6.928   4.944  13.208  0.00  0.00    +0.000 C 
ATOM      9  C   UNL     1       6.481   3.520  13.468  0.00  0.00    +0.000 C 
ATOM     10  O   UNL     1       5.437   3.504  14.449  0.00  0.00    +0.000 OA
ENDROOT
BRANCH   3  11
ATOM     11  C   UNL     1       4.361   4.599  19.034  0.00  0.00    +0.000 C 
ATOM     12  O   UNL     1       3.895   5.545  19.656  0.00  0.00    +0.000 OA
ATOM     13  N   UNL     1       4.178   3.278  19.403  0.00  0.00    +0.000 N 
ATOM     14  H   UNL     1       4.481   2.536  18.790  0.00  0.00    +0.000 HD
BRANCH  13  15
ATOM     15  C   UNL     1       3.458   2.947  20.615  0.00  0.00    +0.000 C 
BRANCH  15  16
ATOM     16  C   UNL     1       2.077   2.447  20.232  0.00  0.00    +0.000 C 
ATOM     17  C   UNL     1       0.936   3.485  20.029  0.00  0.00    +0.000 C 
ATOM     18  C   UNL     1       0.463   2.636  18.831  0.00  0.00    +0.000 C 
ATOM     19  C   UNL     1       1.904   2.104  18.725  0.00  0.00    +0.000 C 
ENDBRANCH  15  16
ENDBRANCH  13  15
ENDBRANCH   3  11
BRANCH   1  21
ATOM     20  C   UNL     1       7.681   8.015  17.796  0.00  0.00    +0.000 C 
ATOM     21  O   UNL     1       7.954   6.979  16.854  0.00  0.00    +0.000 OA
ENDBRANCH   1  21
TORSDOF 4
ENDMDL
MODEL 6
REMARK VINA RESULT:      -7.1      1.874      2.246
REMARK  Name = 
REMARK  5 active torsions:
REMARK  status: ('A' for Active; 'I' for Inactive)
REMARK    1  A    between atoms: C_1  and  O_2
REMARK    2  A    between atoms: O_2  and  C_3
REMARK    3  A    between atoms: C_5  and  C_6
REMARK    4  A    between atoms: N_8  and  C_9
REMARK    5  A    between atoms: C_9  and  C_10
REMARK                            x       y       z     vdW  Elec       q    Type
REMARK                         _______ _______ _______ _____ _____    ______ ____
ROOT
ATOM      1  C   UNL     1       3.490   5.949  18.221  0.00  0.00    +0.000 A 
ATOM      2  C   UNL     1       4.578   5.922  17.330  0.00  0.00    +0.000 A 
ATOM      3  C   UNL     1       4.995   4.723  16.731  0.00  0.00    +0.000 A 
ATOM      4  C   UNL     1       4.280   3.552  16.979  0.00  0.00    +0.000 A 
ATOM      5  C   UNL     1       3.183   3.578  17.834  0.00  0.00    +0.000 A 
ATOM      6  C   UNL     1       2.789   4.761  18.476  0.00  0.00    +0.000 A 
ATOM      7  O   UNL     1       1.700   4.786  19.313  0.00  0.00    +0.000 OA
ATOM      8  C   UNL     1       1.311   3.480  19.747  0.00  0.00    +0.000 C 
ATOM      9  C   UNL     1       1.235   2.541  18.561  0.00  0.00    +0.000 C 
ATOM     10  O   UNL     1       2.533   2.382  17.977  0.00  0.00    +0.000 OA
ENDROOT
BRANCH   3  11
ATOM     11  C   UNL     1       6.153   4.726  15.791  0.00  0.00    +0.000 C 
ATOM     12  O   UNL     1       7.253   5.103  16.176  0.00  0.00    +0.000 OA
ATOM     13  N   UNL     1       5.906   4.279  14.505  0.00  0.00    +0.000 N 
ATOM     14  H   UNL     1       5.013   3.869  14.276  0.00  0.00    +0.000 HD
BRANCH  13  15
ATOM     15  C   UNL     1       6.955   4.297  13.507  0.00  0.00    +0.000 C 
BRANCH  15  16
ATOM     16  C   UNL     1       6.377   3.799  12.194  0.00  0.00    +0.000 C 
ATOM     17  C   UNL     1       6.509   2.290  11.845  0.00  0.00    +0.000 C 
ATOM     18  C   UNL     1       5.076   2.361  11.278  0.00  0.00    +0.000 C 
ATOM     19  C   UNL     1       4.840   3.565  12.207  0.00  0.00    +0.000 C 
ENDBRANCH  15  16
ENDBRANCH  13  15
ENDBRANCH   3  11
BRANCH   1  21
ATOM     20  C   UNL     1       2.602   8.124  17.807  0.00  0.00    +0.000 C 
ATOM     21  O   UNL     1       3.205   7.199  18.711  0.00  0.00    +0.000 OA
ENDBRANCH   1  21
TORSDOF 4
ENDMDL
MODEL 7
REMARK VINA RESULT:      -7.1      2.148      6.479
REMARK  Name = 
REMARK  5 active torsions:
REMARK  status: ('A' for Active; 'I' for Inactive)
REMARK    1  A    between atoms: C_1  and  O_2
REMARK    2  A    between atoms: O_2  and  C_3
REMARK    3  A    between atoms: C_5  and  C_6
REMARK    4  A    between atoms: N_8  and  C_9
REMARK    5  A    between atoms: C_9  and  C_10
REMARK                            x       y       z     vdW  Elec       q    Type
REMARK                         _______ _______ _______ _____ _____    ______ ____
ROOT
ATOM      1  C   UNL     1       6.901   5.427  16.084  0.00  0.00    +0.000 A 
ATOM      2  C   UNL     1       5.909   4.879  16.916  0.00  0.00    +0.000 A 
ATOM      3  C   UNL     1       4.953   3.984  16.411  0.00  0.00    +0.000 A 
ATOM      4  C   UNL     1       5.027   3.588  15.076  0.00  0.00    +0.000 A 
ATOM      5  C   UNL     1       6.024   4.102  14.255  0.00  0.00    +0.000 A 
ATOM      6  C   UNL     1       6.955   5.034  14.737  0.00  0.00    +0.000 A 
ATOM      7  O   UNL     1       7.945   5.534  13.928  0.00  0.00    +0.000 OA
ATOM      8  C   UNL     1       7.673   5.330  12.538  0.00  0.00    +0.000 C 
ATOM      9  C   UNL     1       7.257   3.894  12.297  0.00  0.00    +0.000 C 
ATOM     10  O   UNL     1       6.027   3.618  12.975  0.00  0.00    +0.000 OA
ENDROOT
BRANCH   3  11
ATOM     11  C   UNL     1       3.912   3.420  17.319  0.00  0.00    +0.000 C 
ATOM     12  O   UNL     1       2.763   3.281  16.920  0.00  0.00    +0.000 OA
ATOM     13  N   UNL     1       4.327   3.068  18.591  0.00  0.00    +0.000 N 
ATOM     14  H   UNL     1       5.308   3.091  18.826  0.00  0.00    +0.000 HD
BRANCH  13  15
ATOM     15  C   UNL     1       3.376   2.563  19.560  0.00  0.00    +0.000 C 
BRANCH  15  16
ATOM     16  C   UNL     1       2.919   3.719  20.431  0.00  0.00    +0.000 C 
ATOM     17  C   UNL     1       3.235   5.171  19.973  0.00  0.00    +0.000 C 
ATOM     18  C   UNL     1       1.831   5.567  20.474  0.00  0.00    +0.000 C 
ATOM     19  C   UNL     1       1.419   4.097  20.277  0.00  0.00    +0.000 C 
ENDBRANCH  15  16
ENDBRANCH  13  15
ENDBRANCH   3  11
BRANCH   1  21
ATOM     20  C   UNL     1       7.180   7.369  17.440  0.00  0.00    +0.000 C 
ATOM     21  O   UNL     1       7.762   6.276  16.732  0.00  0.00    +0.000 OA
ENDBRANCH   1  21
TORSDOF 4
ENDMDL
MODEL 8
REMARK VINA RESULT:      -6.9      2.061      2.928
REMARK  Name = 
REMARK  5 active torsions:
REMARK  status: ('A' for Active; 'I' for Inactive)
REMARK    1  A    between atoms: C_1  and  O_2
REMARK    2  A    between atoms: O_2  and  C_3
REMARK    3  A    between atoms: C_5  and  C_6
REMARK    4  A    between atoms: N_8  and  C_9
REMARK    5  A    between atoms: C_9  and  C_10
REMARK                            x       y       z     vdW  Elec       q    Type
REMARK                         _______ _______ _______ _____ _____    ______ ____
ROOT
ATOM      1  C   UNL     1       3.269   5.994  19.048  0.00  0.00    +0.000 A 
ATOM      2  C   UNL     1       4.278   5.905  18.074  0.00  0.00    +0.000 A 
ATOM      3  C   UNL     1       4.892   4.679  17.775  0.00  0.00    +0.000 A 
ATOM      4  C   UNL     1       4.450   3.522  18.415  0.00  0.00    +0.000 A 
ATOM      5  C   UNL     1       3.431   3.597  19.357  0.00  0.00    +0.000 A 
ATOM      6  C   UNL     1       2.844   4.825  19.698  0.00  0.00    +0.000 A 
ATOM      7  O   UNL     1       1.831   4.896  20.622  0.00  0.00    +0.000 OA
ATOM      8  C   UNL     1       1.748   3.724  21.438  0.00  0.00    +0.000 C 
ATOM      9  C   UNL     1       1.789   2.484  20.568  0.00  0.00    +0.000 C 
ATOM     10  O   UNL     1       3.050   2.397  19.896  0.00  0.00    +0.000 OA
ENDROOT
BRANCH   3  11
ATOM     11  C   UNL     1       5.961   4.617  16.736  0.00  0.00    +0.000 C 
ATOM     12  O   UNL     1       7.092   4.260  17.043  0.00  0.00    +0.000 OA
ATOM     13  N   UNL     1       5.593   4.968  15.450  0.00  0.00    +0.000 N 
ATOM     14  H   UNL     1       4.623   5.138  15.231  0.00  0.00    +0.000 HD
BRANCH  13  15
ATOM     15  C   UNL     1       6.575   4.991  14.386  0.00  0.00    +0.000 C 
BRANCH  15  16
ATOM     16  C   UNL     1       6.377   3.756  13.524  0.00  0.00    +0.000 C 
ATOM     17  C   UNL     1       4.985   3.514  12.874  0.00  0.00    +0.000 C 
ATOM     18  C   UNL     1       5.729   3.031  11.612  0.00  0.00    +0.000 C 
ATOM     19  C   UNL     1       6.927   3.880  12.075  0.00  0.00    +0.000 C 
ENDBRANCH  15  16
ENDBRANCH  13  15
ENDBRANCH   3  11
BRANCH   1  21
ATOM     20  C   UNL     1       2.293   7.924  18.042  0.00  0.00    +0.000 C 
ATOM     21  O   UNL     1       2.766   7.260  19.214  0.00  0.00    +0.000 OA
ENDBRANCH   1  21
TORSDOF 4
ENDMDL
MODEL 9
REMARK VINA RESULT:      -6.9      2.218      6.333
REMARK  Name = 
REMARK  5 active torsions:
REMARK  status: ('A' for Active; 'I' for Inactive)
REMARK    1  A    between atoms: C_1  and  O_2
REMARK    2  A    between atoms: O_2  and  C_3
REMARK    3  A    between atoms: C_5  and  C_6
REMARK    4  A    between atoms: N_8  and  C_9
REMARK    5  A    between atoms: C_9  and  C_10
REMARK                            x       y       z     vdW  Elec       q    Type
REMARK                         _______ _______ _______ _____ _____    ______ ____
ROOT
ATOM      1  C   UNL     1       6.674   5.697  16.872  0.00  0.00    +0.000 A 
ATOM      2  C   UNL     1       5.502   5.570  17.637  0.00  0.00    +0.000 A 
ATOM      3  C   UNL     1       4.335   5.013  17.090  0.00  0.00    +0.000 A 
ATOM      4  C   UNL     1       4.360   4.525  15.785  0.00  0.00    +0.000 A 
ATOM      5  C   UNL     1       5.525   4.617  15.032  0.00  0.00    +0.000 A 
ATOM      6  C   UNL     1       6.682   5.216  15.553  0.00  0.00    +0.000 A 
ATOM      7  O   UNL     1       7.835   5.299  14.812  0.00  0.00    +0.000 OA
ATOM      8  C   UNL     1       7.604   5.103  13.414  0.00  0.00    +0.000 C 
ATOM      9  C   UNL     1       6.743   3.875  13.198  0.00  0.00    +0.000 C 
ATOM     10  O   UNL     1       5.450   4.074  13.778  0.00  0.00    +0.000 OA
ENDROOT
BRANCH   3  11
ATOM     11  C   UNL     1       3.106   4.893  17.928  0.00  0.00    +0.000 C 
ATOM     12  O   UNL     1       2.807   5.789  18.707  0.00  0.00    +0.000 OA
ATOM     13  N   UNL     1       2.353   3.745  17.757  0.00  0.00    +0.000 N 
ATOM     14  H   UNL     1       2.580   3.098  17.018  0.00  0.00    +0.000 HD
BRANCH  13  15
ATOM     15  C   UNL     1       1.173   3.515  18.565  0.00  0.00    +0.000 C 
BRANCH  15  16
ATOM     16  C   UNL     1       1.562   2.642  19.745  0.00  0.00    +0.000 C 
ATOM     17  C   UNL     1       3.062   2.554  20.147  0.00  0.00    +0.000 C 
ATOM     18  C   UNL     1       2.603   2.579  21.620  0.00  0.00    +0.000 C 
ATOM     19  C   UNL     1       1.324   3.288  21.139  0.00  0.00    +0.000 C 
ENDBRANCH  15  16
ENDBRANCH  13  15
ENDBRANCH   3  11
BRANCH   1  21
ATOM     20  C   UNL     1       7.787   6.000  18.959  0.00  0.00    +0.000 C 
ATOM     21  O   UNL     1       7.727   6.251  17.556  0.00  0.00    +0.000 OA
ENDBRANCH   1  21
TORSDOF 4
ENDMDL
