MODEL 1
REMARK VINA RESULT:      -6.7      0.000      0.000
REMARK  Name = 
REMARK  1 active torsions:
REMARK  status: ('A' for Active; 'I' for Inactive)
REMARK    1  A    between atoms: C_1  and  C_2
REMARK                            x       y       z     vdW  Elec       q    Type
REMARK                         _______ _______ _______ _____ _____    ______ ____
ROOT
ATOM      1  C   UNL     1       1.479   2.682  20.917  0.00  0.00    +0.000 C 
ATOM      2  C   UNL     1       2.031   3.871  20.190  0.00  0.00    +0.000 A 
ATOM      3  C   UNL     1       1.695   5.165  20.602  0.00  0.00    +0.000 A 
ATOM      4  C   UNL     1       2.202   6.283  19.930  0.00  0.00    +0.000 A 
ATOM      5  C   UNL     1       3.056   6.130  18.833  0.00  0.00    +0.000 A 
ATOM      6  C   UNL     1       3.398   4.853  18.415  0.00  0.00    +0.000 A 
ATOM      7  C   UNL     1       2.886   3.757  19.091  0.00  0.00    +0.000 A 
ATOM      8  C   UNL     1       3.395   2.542  18.457  0.00  0.00    +0.000 C 
ATOM      9  O   UNL     1       3.153   1.394  18.786  0.00  0.00    +0.000 OA
ATOM     10  O   UNL     1       4.202   2.919  17.413  0.00  0.00    +0.000 OA
ATOM     11  C   UNL     1       4.234   4.331  17.348  0.00  0.00    +0.000 C 
ATOM     12  C   UNL     1       4.963   4.954  16.400  0.00  0.00    +0.000 C 
ATOM     13 BR   UNL     1       5.961   3.974  15.132  0.00  0.00    +0.000 Br
ATOM     14 BR   UNL     1       5.120   6.807  16.167  0.00  0.00    +0.000 Br
ENDROOT
TORSDOF 0
ENDMDL
MODEL 2
REMARK VINA RESULT:      -6.4      1.435      1.435
REMARK  Name = 
REMARK  1 active torsions:
REMARK  status: ('A' for Active; 'I' for Inactive)
REMARK    1  A    between atoms: C_1  and  C_2
REMARK                            x       y       z     vdW  Elec       q    Type
REMARK                         _______ _______ _______ _____ _____    ______ ____
ROOT
ATOM      1  C   UNL     1       1.834   2.785  21.603  0.00  0.00    +0.000 C 
ATOM      2  C   UNL     1       2.264   3.969  20.791  0.00  0.00    +0.000 A 
ATOM      3  C   UNL     1       1.483   5.131  20.775  0.00  0.00    +0.000 A 
ATOM      4  C   UNL     1       1.874   6.242  20.019  0.00  0.00    +0.000 A 
ATOM      5  C   UNL     1       3.051   6.216  19.266  0.00  0.00    +0.000 A 
ATOM      6  C   UNL     1       3.834   5.072  19.273  0.00  0.00    +0.000 A 
ATOM      7  C   UNL     1       3.433   3.980  20.026  0.00  0.00    +0.000 A 
ATOM      8  C   UNL     1       4.423   2.915  19.864  0.00  0.00    +0.000 C 
ATOM      9  O   UNL     1       4.395   1.812  20.379  0.00  0.00    +0.000 OA
ATOM     10  O   UNL     1       5.401   3.378  19.020  0.00  0.00    +0.000 OA
ATOM     11  C   UNL     1       5.082   4.698  18.631  0.00  0.00    +0.000 C 
ATOM     12  C   UNL     1       5.894   5.379  17.797  0.00  0.00    +0.000 C 
ATOM     13 BR   UNL     1       7.476   4.602  17.121  0.00  0.00    +0.000 Br
ATOM     14 BR   UNL     1       5.629   7.129  17.180  0.00  0.00    +0.000 Br
ENDROOT
TORSDOF 0
ENDMDL
MODEL 3
REMARK VINA RESULT:      -6.4      1.783      1.934
REMARK  Name = 
REMARK  1 active torsions:
REMARK  status: ('A' for Active; 'I' for Inactive)
REMARK    1  A    between atoms: C_1  and  C_2
REMARK                            x       y       z     vdW  Elec       q    Type
REMARK                         _______ _______ _______ _____ _____    ______ ____
ROOT
ATOM      1  C   UNL     1       1.674   2.170  21.080  0.00  0.00    +0.000 C 
ATOM      2  C   UNL     1       1.979   3.004  19.873  0.00  0.00    +0.000 A 
ATOM      3  C   UNL     1       0.938   3.532  19.101  0.00  0.00    +0.000 A 
ATOM      4  C   UNL     1       1.212   4.310  17.971  0.00  0.00    +0.000 A 
ATOM      5  C   UNL     1       2.530   4.579  17.590  0.00  0.00    +0.000 A 
ATOM      6  C   UNL     1       3.571   4.064  18.347  0.00  0.00    +0.000 A 
ATOM      7  C   UNL     1       3.284   3.294  19.463  0.00  0.00    +0.000 A 
ATOM      8  C   UNL     1       4.544   2.877  20.077  0.00  0.00    +0.000 C 
ATOM      9  O   UNL     1       4.674   2.191  21.074  0.00  0.00    +0.000 OA
ATOM     10  O   UNL     1       5.568   3.399  19.327  0.00  0.00    +0.000 OA
ATOM     11  C   UNL     1       5.019   4.135  18.253  0.00  0.00    +0.000 C 
ATOM     12  C   UNL     1       5.826   4.752  17.366  0.00  0.00    +0.000 C 
ATOM     13 BR   UNL     1       7.705   4.656  17.520  0.00  0.00    +0.000 Br
ATOM     14 BR   UNL     1       5.273   5.766  15.889  0.00  0.00    +0.000 Br
ENDROOT
TORSDOF 0
ENDMDL
MODEL 4
REMARK VINA RESULT:      -6.4      2.469      3.636
REMARK  Name = 
REMARK  1 active torsions:
REMARK  status: ('A' for Active; 'I' for Inactive)
REMARK    1  A    between atoms: C_1  and  C_2
REMARK                            x       y       z     vdW  Elec       q    Type
REMARK                         _______ _______ _______ _____ _____    ______ ____
ROOT
ATOM      1  C   UNL     1       3.621   1.617  18.661  0.00  0.00    +0.000 C 
ATOM      2  C   UNL     1       3.057   2.727  19.495  0.00  0.00    +0.000 A 
ATOM      3  C   UNL     1       2.609   2.471  20.796  0.00  0.00    +0.000 A 
ATOM      4  C   UNL     1       2.079   3.499  21.584  0.00  0.00    +0.000 A 
ATOM      5  C   UNL     1       1.985   4.803  21.088  0.00  0.00    +0.000 A 
ATOM      6  C   UNL     1       2.426   5.071  19.801  0.00  0.00    +0.000 A 
ATOM      7  C   UNL     1       2.948   4.042  19.034  0.00  0.00    +0.000 A 
ATOM      8  C   UNL     1       3.335   4.583  17.732  0.00  0.00    +0.000 C 
ATOM      9  O   UNL     1       3.829   3.966  16.806  0.00  0.00    +0.000 OA
ATOM     10  O   UNL     1       3.042   5.924  17.732  0.00  0.00    +0.000 OA
ATOM     11  C   UNL     1       2.481   6.269  18.982  0.00  0.00    +0.000 C 
ATOM     12  C   UNL     1       2.106   7.539  19.235  0.00  0.00    +0.000 C 
ATOM     13 BR   UNL     1       2.312   8.896  17.938  0.00  0.00    +0.000 Br
ATOM     14 BR   UNL     1       1.350   8.172  20.828  0.00  0.00    +0.000 Br
ENDROOT
TORSDOF 0
ENDMDL
MODEL 5
REMARK VINA RESULT:      -6.3      1.977      3.066
REMARK  Name = 
REMARK  1 active torsions:
REMARK  status: ('A' for Active; 'I' for Inactive)
REMARK    1  A    between atoms: C_1  and  C_2
REMARK                            x       y       z     vdW  Elec       q    Type
REMARK                         _______ _______ _______ _____ _____    ______ ____
ROOT
ATOM      1  C   UNL     1       0.755   3.940  20.329  0.00  0.00    +0.000 C 
ATOM      2  C   UNL     1       1.790   3.576  19.308  0.00  0.00    +0.000 A 
ATOM      3  C   UNL     1       1.749   2.327  18.679  0.00  0.00    +0.000 A 
ATOM      4  C   UNL     1       2.712   1.976  17.726  0.00  0.00    +0.000 A 
ATOM      5  C   UNL     1       3.733   2.866  17.380  0.00  0.00    +0.000 A 
ATOM      6  C   UNL     1       3.785   4.108  17.995  0.00  0.00    +0.000 A 
ATOM      7  C   UNL     1       2.825   4.440  18.937  0.00  0.00    +0.000 A 
ATOM      8  C   UNL     1       3.102   5.789  19.428  0.00  0.00    +0.000 C 
ATOM      9  O   UNL     1       2.464   6.404  20.263  0.00  0.00    +0.000 OA
ATOM     10  O   UNL     1       4.220   6.249  18.778  0.00  0.00    +0.000 OA
ATOM     11  C   UNL     1       4.675   5.251  17.888  0.00  0.00    +0.000 C 
ATOM     12  C   UNL     1       5.767   5.462  17.126  0.00  0.00    +0.000 C 
ATOM     13 BR   UNL     1       6.725   7.086  17.218  0.00  0.00    +0.000 Br
ATOM     14 BR   UNL     1       6.507   4.256  15.897  0.00  0.00    +0.000 Br
ENDROOT
TORSDOF 0
ENDMDL
MODEL 6
REMARK VINA RESULT:      -6.0      2.888      4.210
REMARK  Name = 
REMARK  1 active torsions:
REMARK  status: ('A' for Active; 'I' for Inactive)
REMARK    1  A    between atoms: C_1  and  C_2
REMARK                            x       y       z     vdW  Elec       q    Type
REMARK                         _______ _______ _______ _____ _____    ______ ____
ROOT
ATOM      1  C   UNL     1       3.958   2.278  19.712  0.00  0.00    +0.000 C 
ATOM      2  C   UNL     1       3.838   3.583  18.986  0.00  0.00    +0.000 A 
ATOM      3  C   UNL     1       4.448   3.753  17.738  0.00  0.00    +0.000 A 
ATOM      4  C   UNL     1       4.344   4.968  17.052  0.00  0.00    +0.000 A 
ATOM      5  C   UNL     1       3.630   6.038  17.599  0.00  0.00    +0.000 A 
ATOM      6  C   UNL     1       3.020   5.884  18.835  0.00  0.00    +0.000 A 
ATOM      7  C   UNL     1       3.133   4.675  19.501  0.00  0.00    +0.000 A 
ATOM      8  C   UNL     1       2.408   4.773  20.768  0.00  0.00    +0.000 C 
ATOM      9  O   UNL     1       2.294   3.901  21.609  0.00  0.00    +0.000 OA
ATOM     10  O   UNL     1       1.872   6.033  20.847  0.00  0.00    +0.000 OA
ATOM     11  C   UNL     1       2.222   6.753  19.682  0.00  0.00    +0.000 C 
ATOM     12  C   UNL     1       1.812   8.027  19.517  0.00  0.00    +0.000 C 
ATOM     13 BR   UNL     1       0.763   8.894  20.826  0.00  0.00    +0.000 Br
ATOM     14 BR   UNL     1       2.180   9.125  18.044  0.00  0.00    +0.000 Br
ENDROOT
TORSDOF 0
ENDMDL
MODEL 7
REMARK VINA RESULT:      -5.8      2.703      4.329
REMARK  Name = 
REMARK  1 active torsions:
REMARK  status: ('A' for Active; 'I' for Inactive)
REMARK    1  A    between atoms: C_1  and  C_2
REMARK                            x       y       z     vdW  Elec       q    Type
REMARK                         _______ _______ _______ _____ _____    ______ ____
ROOT
ATOM      1  C   UNL     1       5.809   3.825  15.189  0.00  0.00    +0.000 C 
ATOM      2  C   UNL     1       5.111   4.775  16.115  0.00  0.00    +0.000 A 
ATOM      3  C   UNL     1       5.247   6.156  15.940  0.00  0.00    +0.000 A 
ATOM      4  C   UNL     1       4.602   7.052  16.800  0.00  0.00    +0.000 A 
ATOM      5  C   UNL     1       3.807   6.586  17.851  0.00  0.00    +0.000 A 
ATOM      6  C   UNL     1       3.662   5.219  18.036  0.00  0.00    +0.000 A 
ATOM      7  C   UNL     1       4.308   4.346  17.176  0.00  0.00    +0.000 A 
ATOM      8  C   UNL     1       3.995   2.977  17.584  0.00  0.00    +0.000 C 
ATOM      9  O   UNL     1       4.391   1.953  17.056  0.00  0.00    +0.000 OA
ATOM     10  O   UNL     1       3.169   3.043  18.677  0.00  0.00    +0.000 OA
ATOM     11  C   UNL     1       2.937   4.401  18.993  0.00  0.00    +0.000 C 
ATOM     12  C   UNL     1       2.150   4.735  20.035  0.00  0.00    +0.000 C 
ATOM     13 BR   UNL     1       1.334   3.413  21.108  0.00  0.00    +0.000 Br
ATOM     14 BR   UNL     1       1.734   6.475  20.593  0.00  0.00    +0.000 Br
ENDROOT
TORSDOF 0
ENDMDL
MODEL 8
REMARK VINA RESULT:      -5.6      3.167      5.118
REMARK  Name = 
REMARK  1 active torsions:
REMARK  status: ('A' for Active; 'I' for Inactive)
REMARK    1  A    between atoms: C_1  and  C_2
REMARK                            x       y       z     vdW  Elec       q    Type
REMARK                         _______ _______ _______ _____ _____    ______ ____
ROOT
ATOM      1  C   UNL     1       7.766   6.640  17.176  0.00  0.00    +0.000 C 
ATOM      2  C   UNL     1       6.585   5.756  16.913  0.00  0.00    +0.000 A 
ATOM      3  C   UNL     1       6.137   5.551  15.603  0.00  0.00    +0.000 A 
ATOM      4  C   UNL     1       5.034   4.729  15.347  0.00  0.00    +0.000 A 
ATOM      5  C   UNL     1       4.356   4.096  16.392  0.00  0.00    +0.000 A 
ATOM      6  C   UNL     1       4.789   4.290  17.695  0.00  0.00    +0.000 A 
ATOM      7  C   UNL     1       5.883   5.107  17.933  0.00  0.00    +0.000 A 
ATOM      8  C   UNL     1       6.131   5.143  19.373  0.00  0.00    +0.000 C 
ATOM      9  O   UNL     1       7.012   5.761  19.944  0.00  0.00    +0.000 OA
ATOM     10  O   UNL     1       5.188   4.353  19.981  0.00  0.00    +0.000 OA
ATOM     11  C   UNL     1       4.342   3.807  18.990  0.00  0.00    +0.000 C 
ATOM     12  C   UNL     1       3.327   2.988  19.334  0.00  0.00    +0.000 C 
ATOM     13 BR   UNL     1       2.999   2.542  21.139  0.00  0.00    +0.000 Br
ATOM     14 BR   UNL     1       2.113   2.179  18.158  0.00  0.00    +0.000 Br
ENDROOT
TORSDOF 0
ENDMDL
MODEL 9
REMARK VINA RESULT:      -5.6      3.440      4.640
REMARK  Name = 
REMARK  1 active torsions:
REMARK  status: ('A' for Active; 'I' for Inactive)
REMARK    1  A    between atoms: C_1  and  C_2
REMARK                            x       y       z     vdW  Elec       q    Type
REMARK                         _______ _______ _______ _____ _____    ______ ____
ROOT
ATOM      1  C   UNL     1       4.593   3.765  18.047  0.00  0.00    +0.000 C 
ATOM      2  C   UNL     1       3.637   4.490  18.944  0.00  0.00    +0.000 A 
ATOM      3  C   UNL     1       3.081   3.840  20.051  0.00  0.00    +0.000 A 
ATOM      4  C   UNL     1       2.185   4.507  20.894  0.00  0.00    +0.000 A 
ATOM      5  C   UNL     1       1.828   5.836  20.650  0.00  0.00    +0.000 A 
ATOM      6  C   UNL     1       2.372   6.493  19.557  0.00  0.00    +0.000 A 
ATOM      7  C   UNL     1       3.257   5.819  18.731  0.00  0.00    +0.000 A 
ATOM      8  C   UNL     1       3.680   6.725  17.664  0.00  0.00    +0.000 C 
ATOM      9  O   UNL     1       4.454   6.471  16.759  0.00  0.00    +0.000 OA
ATOM     10  O   UNL     1       3.048   7.927  17.861  0.00  0.00    +0.000 OA
ATOM     11  C   UNL     1       2.233   7.832  19.011  0.00  0.00    +0.000 C 
ATOM     12  C   UNL     1       1.503   8.890  19.420  0.00  0.00    +0.000 C 
ATOM     13 BR   UNL     1       1.540  10.526  18.478  0.00  0.00    +0.000 Br
ATOM     14 BR   UNL     1       0.375   8.942  20.915  0.00  0.00    +0.000 Br
ENDROOT
TORSDOF 0
ENDMDL
