MODEL 1
REMARK VINA RESULT:      -6.8      0.000      0.000
REMARK  Name = 
REMARK  5 active torsions:
REMARK  status: ('A' for Active; 'I' for Inactive)
REMARK    1  A    between atoms: C_1  and  C_2
REMARK    2  A    between atoms: C_5  and  N_6
REMARK    3  A    between atoms: C_10  and  S_11
REMARK    4  A    between atoms: S_11  and  N_14
REMARK    5  A    between atoms: N_17  and  C_18
REMARK                            x       y       z     vdW  Elec       q    Type
REMARK                         _______ _______ _______ _____ _____    ______ ____
ROOT
ATOM      1  C   UNL     1       5.747   6.943  16.520  0.00  0.00    +0.000 C 
ATOM      2  C   UNL     1       4.444   6.725  17.238  0.00  0.00    +0.000 A 
ATOM      3  C   UNL     1       3.543   7.806  17.236  0.00  0.00    +0.000 A 
ATOM      4  C   UNL     1       2.575   7.922  18.225  0.00  0.00    +0.000 A 
ATOM      5  C   UNL     1       2.508   6.949  19.221  0.00  0.00    +0.000 A 
ATOM      6  C   UNL     1       3.259   5.763  19.116  0.00  0.00    +0.000 A 
ATOM      7  C   UNL     1       4.199   5.620  18.073  0.00  0.00    +0.000 A 
ENDROOT
BRANCH   5   8
ATOM      8  N   UNL     1       1.725   7.249  20.434  0.00  0.00    +0.000 N 
ATOM      9  O   UNL     1       1.504   8.433  20.705  0.00  0.00    +0.000 OA
ATOM     10  O   UNL     1       1.376   6.286  21.137  0.00  0.00    +0.000 OA
ENDBRANCH   5   8
BRANCH   7  11
ATOM     11  S   UNL     1       5.193   4.114  18.017  0.00  0.00    +0.000 S 
ATOM     12  O   UNL     1       5.511   3.870  16.629  0.00  0.00    +0.000 OA
ATOM     13  O   UNL     1       6.253   4.297  18.993  0.00  0.00    +0.000 OA
BRANCH  11  14
ATOM     14  N   UNL     1       4.250   2.852  18.577  0.00  0.00    +0.000 NA
ATOM     15  C   UNL     1       3.109   2.263  17.850  0.00  0.00    +0.000 C 
ATOM     16  C   UNL     1       1.786   2.404  18.646  0.00  0.00    +0.000 C 
ATOM     17  N   UNL     1       1.830   2.280  20.118  0.00  0.00    +0.000 NA
ATOM     18  C   UNL     1       0.745   3.065  20.723  0.00  0.00    +0.000 C 
ATOM     19  C   UNL     1       3.113   2.668  20.738  0.00  0.00    +0.000 C 
ATOM     20  C   UNL     1       4.363   2.292  19.933  0.00  0.00    +0.000 C 
ENDBRANCH  11  14
ENDBRANCH   7  11
TORSDOF 3
ENDMDL
MODEL 2
REMARK VINA RESULT:      -6.6      2.357      4.559
REMARK  Name = 
REMARK  5 active torsions:
REMARK  status: ('A' for Active; 'I' for Inactive)
REMARK    1  A    between atoms: C_1  and  C_2
REMARK    2  A    between atoms: C_5  and  N_6
REMARK    3  A    between atoms: C_10  and  S_11
REMARK    4  A    between atoms: S_11  and  N_14
REMARK    5  A    between atoms: N_17  and  C_18
REMARK                            x       y       z     vdW  Elec       q    Type
REMARK                         _______ _______ _______ _____ _____    ______ ____
ROOT
ATOM      1  C   UNL     1       1.937   3.673  20.593  0.00  0.00    +0.000 C 
ATOM      2  C   UNL     1       2.321   5.100  20.318  0.00  0.00    +0.000 A 
ATOM      3  C   UNL     1       1.586   6.086  21.001  0.00  0.00    +0.000 A 
ATOM      4  C   UNL     1       1.494   7.377  20.496  0.00  0.00    +0.000 A 
ATOM      5  C   UNL     1       2.144   7.683  19.302  0.00  0.00    +0.000 A 
ATOM      6  C   UNL     1       3.047   6.770  18.724  0.00  0.00    +0.000 A 
ATOM      7  C   UNL     1       3.186   5.478  19.275  0.00  0.00    +0.000 A 
ENDROOT
BRANCH   5   8
ATOM      8  N   UNL     1       1.770   8.928  18.606  0.00  0.00    +0.000 N 
ATOM      9  O   UNL     1       2.163   9.086  17.446  0.00  0.00    +0.000 OA
ATOM     10  O   UNL     1       1.120   9.765  19.253  0.00  0.00    +0.000 OA
ENDBRANCH   5   8
BRANCH   7  11
ATOM     11  S   UNL     1       4.301   4.317  18.460  0.00  0.00    +0.000 S 
ATOM     12  O   UNL     1       5.049   3.649  19.501  0.00  0.00    +0.000 OA
ATOM     13  O   UNL     1       3.480   3.551  17.539  0.00  0.00    +0.000 OA
BRANCH  11  14
ATOM     14  N   UNL     1       5.368   5.197  17.520  0.00  0.00    +0.000 NA
ATOM     15  C   UNL     1       4.976   6.212  16.524  0.00  0.00    +0.000 C 
ATOM     16  C   UNL     1       5.454   5.832  15.098  0.00  0.00    +0.000 C 
ATOM     17  N   UNL     1       6.760   5.156  14.947  0.00  0.00    +0.000 NA
ATOM     18  C   UNL     1       6.752   4.307  13.748  0.00  0.00    +0.000 C 
ATOM     19  C   UNL     1       7.181   4.350  16.111  0.00  0.00    +0.000 C 
ATOM     20  C   UNL     1       6.816   4.941  17.477  0.00  0.00    +0.000 C 
ENDBRANCH  11  14
ENDBRANCH   7  11
TORSDOF 3
ENDMDL
MODEL 3
REMARK VINA RESULT:      -6.6      2.419      4.375
REMARK  Name = 
REMARK  5 active torsions:
REMARK  status: ('A' for Active; 'I' for Inactive)
REMARK    1  A    between atoms: C_1  and  C_2
REMARK    2  A    between atoms: C_5  and  N_6
REMARK    3  A    between atoms: C_10  and  S_11
REMARK    4  A    between atoms: S_11  and  N_14
REMARK    5  A    between atoms: N_17  and  C_18
REMARK                            x       y       z     vdW  Elec       q    Type
REMARK                         _______ _______ _______ _____ _____    ______ ____
ROOT
ATOM      1  C   UNL     1       1.057   3.624  20.611  0.00  0.00    +0.000 C 
ATOM      2  C   UNL     1       1.786   4.872  20.196  0.00  0.00    +0.000 A 
ATOM      3  C   UNL     1       1.514   6.031  20.945  0.00  0.00    +0.000 A 
ATOM      4  C   UNL     1       1.714   7.292  20.396  0.00  0.00    +0.000 A 
ATOM      5  C   UNL     1       2.192   7.391  19.091  0.00  0.00    +0.000 A 
ATOM      6  C   UNL     1       2.664   6.251  18.412  0.00  0.00    +0.000 A 
ATOM      7  C   UNL     1       2.515   4.976  18.998  0.00  0.00    +0.000 A 
ENDROOT
BRANCH   5   8
ATOM      8  N   UNL     1       2.079   8.693  18.407  0.00  0.00    +0.000 N 
ATOM      9  O   UNL     1       1.497   9.609  18.995  0.00  0.00    +0.000 OA
ATOM     10  O   UNL     1       2.539   8.770  17.256  0.00  0.00    +0.000 OA
ENDBRANCH   5   8
BRANCH   7  11
ATOM     11  S   UNL     1       3.068   3.535  18.062  0.00  0.00    +0.000 S 
ATOM     12  O   UNL     1       3.098   2.421  18.982  0.00  0.00    +0.000 OA
ATOM     13  O   UNL     1       2.234   3.485  16.873  0.00  0.00    +0.000 OA
BRANCH  11  14
ATOM     14  N   UNL     1       4.626   3.830  17.532  0.00  0.00    +0.000 NA
ATOM     15  C   UNL     1       5.809   3.943  18.407  0.00  0.00    +0.000 C 
ATOM     16  C   UNL     1       6.478   5.338  18.290  0.00  0.00    +0.000 C 
ATOM     17  N   UNL     1       6.506   6.000  16.969  0.00  0.00    +0.000 NA
ATOM     18  C   UNL     1       6.524   7.460  17.137  0.00  0.00    +0.000 C 
ATOM     19  C   UNL     1       5.399   5.630  16.063  0.00  0.00    +0.000 C 
ATOM     20  C   UNL     1       4.961   4.163  16.139  0.00  0.00    +0.000 C 
ENDBRANCH  11  14
ENDBRANCH   7  11
TORSDOF 3
ENDMDL
MODEL 4
REMARK VINA RESULT:      -6.3      2.176      4.609
REMARK  Name = 
REMARK  5 active torsions:
REMARK  status: ('A' for Active; 'I' for Inactive)
REMARK    1  A    between atoms: C_1  and  C_2
REMARK    2  A    between atoms: C_5  and  N_6
REMARK    3  A    between atoms: C_10  and  S_11
REMARK    4  A    between atoms: S_11  and  N_14
REMARK    5  A    between atoms: N_17  and  C_18
REMARK                            x       y       z     vdW  Elec       q    Type
REMARK                         _______ _______ _______ _____ _____    ______ ____
ROOT
ATOM      1  C   UNL     1       1.227   2.425  19.077  0.00  0.00    +0.000 C 
ATOM      2  C   UNL     1       1.774   3.714  19.623  0.00  0.00    +0.000 A 
ATOM      3  C   UNL     1       1.015   4.336  20.631  0.00  0.00    +0.000 A 
ATOM      4  C   UNL     1       1.125   5.702  20.860  0.00  0.00    +0.000 A 
ATOM      5  C   UNL     1       2.003   6.448  20.077  0.00  0.00    +0.000 A 
ATOM      6  C   UNL     1       2.915   5.809  19.215  0.00  0.00    +0.000 A 
ATOM      7  C   UNL     1       2.842   4.412  19.030  0.00  0.00    +0.000 A 
ENDROOT
BRANCH   5   8
ATOM      8  N   UNL     1       1.868   7.917  20.088  0.00  0.00    +0.000 N 
ATOM      9  O   UNL     1       1.570   8.464  21.155  0.00  0.00    +0.000 OA
ATOM     10  O   UNL     1       2.015   8.509  19.007  0.00  0.00    +0.000 OA
ENDBRANCH   5   8
BRANCH   7  11
ATOM     11  S   UNL     1       3.983   3.643  17.862  0.00  0.00    +0.000 S 
ATOM     12  O   UNL     1       4.670   2.590  18.575  0.00  0.00    +0.000 OA
ATOM     13  O   UNL     1       3.200   3.339  16.677  0.00  0.00    +0.000 OA
BRANCH  11  14
ATOM     14  N   UNL     1       5.105   4.794  17.402  0.00  0.00    +0.000 NA
ATOM     15  C   UNL     1       4.810   5.978  16.572  0.00  0.00    +0.000 C 
ATOM     16  C   UNL     1       5.625   5.973  15.253  0.00  0.00    +0.000 C 
ATOM     17  N   UNL     1       7.008   5.451  15.279  0.00  0.00    +0.000 NA
ATOM     18  C   UNL     1       7.364   4.900  13.964  0.00  0.00    +0.000 C 
ATOM     19  C   UNL     1       7.270   4.434  16.317  0.00  0.00    +0.000 C 
ATOM     20  C   UNL     1       6.550   4.666  17.650  0.00  0.00    +0.000 C 
ENDBRANCH  11  14
ENDBRANCH   7  11
TORSDOF 3
ENDMDL
MODEL 5
REMARK VINA RESULT:      -6.2      2.684      4.886
REMARK  Name = 
REMARK  5 active torsions:
REMARK  status: ('A' for Active; 'I' for Inactive)
REMARK    1  A    between atoms: C_1  and  C_2
REMARK    2  A    between atoms: C_5  and  N_6
REMARK    3  A    between atoms: C_10  and  S_11
REMARK    4  A    between atoms: S_11  and  N_14
REMARK    5  A    between atoms: N_17  and  C_18
REMARK                            x       y       z     vdW  Elec       q    Type
REMARK                         _______ _______ _______ _____ _____    ______ ____
ROOT
ATOM      1  C   UNL     1       7.130   7.000  17.408  0.00  0.00    +0.000 C 
ATOM      2  C   UNL     1       6.810   5.769  16.608  0.00  0.00    +0.000 A 
ATOM      3  C   UNL     1       7.766   5.383  15.650  0.00  0.00    +0.000 A 
ATOM      4  C   UNL     1       7.399   4.609  14.556  0.00  0.00    +0.000 A 
ATOM      5  C   UNL     1       6.068   4.218  14.422  0.00  0.00    +0.000 A 
ATOM      6  C   UNL     1       5.153   4.418  15.473  0.00  0.00    +0.000 A 
ATOM      7  C   UNL     1       5.546   5.152  16.612  0.00  0.00    +0.000 A 
ENDROOT
BRANCH   5   8
ATOM      8  N   UNL     1       5.624   3.701  13.114  0.00  0.00    +0.000 N 
ATOM      9  O   UNL     1       6.489   3.389  12.289  0.00  0.00    +0.000 OA
ATOM     10  O   UNL     1       4.401   3.659  12.906  0.00  0.00    +0.000 OA
ENDBRANCH   5   8
BRANCH   7  11
ATOM     11  S   UNL     1       4.320   5.447  17.904  0.00  0.00    +0.000 S 
ATOM     12  O   UNL     1       5.042   5.576  19.149  0.00  0.00    +0.000 OA
ATOM     13  O   UNL     1       3.484   6.533  17.423  0.00  0.00    +0.000 OA
BRANCH  11  14
ATOM     14  N   UNL     1       3.334   4.100  17.998  0.00  0.00    +0.000 NA
ATOM     15  C   UNL     1       1.870   4.111  17.818  0.00  0.00    +0.000 C 
ATOM     16  C   UNL     1       1.131   3.615  19.088  0.00  0.00    +0.000 C 
ATOM     17  N   UNL     1       1.741   2.527  19.881  0.00  0.00    +0.000 NA
ATOM     18  C   UNL     1       1.340   2.643  21.290  0.00  0.00    +0.000 C 
ATOM     19  C   UNL     1       3.214   2.448  19.801  0.00  0.00    +0.000 C 
ATOM     20  C   UNL     1       3.807   2.774  18.426  0.00  0.00    +0.000 C 
ENDBRANCH  11  14
ENDBRANCH   7  11
TORSDOF 3
ENDMDL
MODEL 6
REMARK VINA RESULT:      -6.2      2.877      5.522
REMARK  Name = 
REMARK  5 active torsions:
REMARK  status: ('A' for Active; 'I' for Inactive)
REMARK    1  A    between atoms: C_1  and  C_2
REMARK    2  A    between atoms: C_5  and  N_6
REMARK    3  A    between atoms: C_10  and  S_11
REMARK    4  A    between atoms: S_11  and  N_14
REMARK    5  A    between atoms: N_17  and  C_18
REMARK                            x       y       z     vdW  Elec       q    Type
REMARK                         _______ _______ _______ _____ _____    ______ ____
ROOT
ATOM      1  C   UNL     1       3.072   3.149  17.119  0.00  0.00    +0.000 C 
ATOM      2  C   UNL     1       4.100   4.220  17.359  0.00  0.00    +0.000 A 
ATOM      3  C   UNL     1       5.383   3.982  16.833  0.00  0.00    +0.000 A 
ATOM      4  C   UNL     1       6.498   4.607  17.376  0.00  0.00    +0.000 A 
ATOM      5  C   UNL     1       6.327   5.478  18.451  0.00  0.00    +0.000 A 
ATOM      6  C   UNL     1       5.038   5.883  18.846  0.00  0.00    +0.000 A 
ATOM      7  C   UNL     1       3.904   5.291  18.250  0.00  0.00    +0.000 A 
ENDROOT
BRANCH   5   8
ATOM      8  N   UNL     1       7.519   5.864  19.229  0.00  0.00    +0.000 N 
ATOM      9  O   UNL     1       8.231   6.772  18.788  0.00  0.00    +0.000 OA
ATOM     10  O   UNL     1       7.758   5.215  20.260  0.00  0.00    +0.000 OA
ENDBRANCH   5   8
BRANCH   7  11
ATOM     11  S   UNL     1       2.271   5.787  18.838  0.00  0.00    +0.000 S 
ATOM     12  O   UNL     1       1.341   5.536  17.761  0.00  0.00    +0.000 OA
ATOM     13  O   UNL     1       2.095   5.141  20.127  0.00  0.00    +0.000 OA
BRANCH  11  14
ATOM     14  N   UNL     1       2.308   7.431  19.137  0.00  0.00    +0.000 NA
ATOM     15  C   UNL     1       1.865   8.072  20.391  0.00  0.00    +0.000 C 
ATOM     16  C   UNL     1       0.697   9.064  20.148  0.00  0.00    +0.000 C 
ATOM     17  N   UNL     1       0.695   9.861  18.903  0.00  0.00    +0.000 NA
ATOM     18  C   UNL     1      -0.684  10.188  18.515  0.00  0.00    +0.000 C 
ATOM     19  C   UNL     1       1.384   9.231  17.758  0.00  0.00    +0.000 C 
ATOM     20  C   UNL     1       2.645   8.436  18.117  0.00  0.00    +0.000 C 
ENDBRANCH  11  14
ENDBRANCH   7  11
TORSDOF 3
ENDMDL
MODEL 7
REMARK VINA RESULT:      -6.1      2.809      5.035
REMARK  Name = 
REMARK  5 active torsions:
REMARK  status: ('A' for Active; 'I' for Inactive)
REMARK    1  A    between atoms: C_1  and  C_2
REMARK    2  A    between atoms: C_5  and  N_6
REMARK    3  A    between atoms: C_10  and  S_11
REMARK    4  A    between atoms: S_11  and  N_14
REMARK    5  A    between atoms: N_17  and  C_18
REMARK                            x       y       z     vdW  Elec       q    Type
REMARK                         _______ _______ _______ _____ _____    ______ ____
ROOT
ATOM      1  C   UNL     1       5.840   6.703  17.803  0.00  0.00    +0.000 C 
ATOM      2  C   UNL     1       5.934   5.557  16.834  0.00  0.00    +0.000 A 
ATOM      3  C   UNL     1       7.140   5.443  16.118  0.00  0.00    +0.000 A 
ATOM      4  C   UNL     1       7.179   4.779  14.898  0.00  0.00    +0.000 A 
ATOM      5  C   UNL     1       6.004   4.223  14.395  0.00  0.00    +0.000 A 
ATOM      6  C   UNL     1       4.847   4.147  15.194  0.00  0.00    +0.000 A 
ATOM      7  C   UNL     1       4.829   4.771  16.460  0.00  0.00    +0.000 A 
ENDROOT
BRANCH   5   8
ATOM      8  N   UNL     1       5.975   3.829  12.974  0.00  0.00    +0.000 N 
ATOM      9  O   UNL     1       4.921   3.374  12.519  0.00  0.00    +0.000 OA
ATOM     10  O   UNL     1       7.034   3.935  12.334  0.00  0.00    +0.000 OA
ENDBRANCH   5   8
BRANCH   7  11
ATOM     11  S   UNL     1       3.302   4.711  17.421  0.00  0.00    +0.000 S 
ATOM     12  O   UNL     1       2.731   6.038  17.389  0.00  0.00    +0.000 OA
ATOM     13  O   UNL     1       2.552   3.576  16.911  0.00  0.00    +0.000 OA
BRANCH  11  14
ATOM     14  N   UNL     1       3.700   4.341  19.002  0.00  0.00    +0.000 NA
ATOM     15  C   UNL     1       4.279   3.059  19.449  0.00  0.00    +0.000 C 
ATOM     16  C   UNL     1       3.361   2.339  20.471  0.00  0.00    +0.000 C 
ATOM     17  N   UNL     1       2.610   3.159  21.446  0.00  0.00    +0.000 NA
ATOM     18  C   UNL     1       1.370   2.472  21.832  0.00  0.00    +0.000 C 
ATOM     19  C   UNL     1       2.286   4.526  20.991  0.00  0.00    +0.000 C 
ATOM     20  C   UNL     1       3.371   5.204  20.147  0.00  0.00    +0.000 C 
ENDBRANCH  11  14
ENDBRANCH   7  11
TORSDOF 3
ENDMDL
MODEL 8
REMARK VINA RESULT:      -6.1      2.068      4.250
REMARK  Name = 
REMARK  5 active torsions:
REMARK  status: ('A' for Active; 'I' for Inactive)
REMARK    1  A    between atoms: C_1  and  C_2
REMARK    2  A    between atoms: C_5  and  N_6
REMARK    3  A    between atoms: C_10  and  S_11
REMARK    4  A    between atoms: S_11  and  N_14
REMARK    5  A    between atoms: N_17  and  C_18
REMARK                            x       y       z     vdW  Elec       q    Type
REMARK                         _______ _______ _______ _____ _____    ______ ____
ROOT
ATOM      1  C   UNL     1       2.957   6.545  17.854  0.00  0.00    +0.000 C 
ATOM      2  C   UNL     1       4.292   6.400  17.179  0.00  0.00    +0.000 A 
ATOM      3  C   UNL     1       4.448   7.075  15.954  0.00  0.00    +0.000 A 
ATOM      4  C   UNL     1       5.390   6.648  15.026  0.00  0.00    +0.000 A 
ATOM      5  C   UNL     1       6.182   5.542  15.327  0.00  0.00    +0.000 A 
ATOM      6  C   UNL     1       6.181   4.992  16.624  0.00  0.00    +0.000 A 
ATOM      7  C   UNL     1       5.265   5.468  17.585  0.00  0.00    +0.000 A 
ENDROOT
BRANCH   5   8
ATOM      8  N   UNL     1       6.922   4.896  14.227  0.00  0.00    +0.000 N 
ATOM      9  O   UNL     1       7.931   5.463  13.796  0.00  0.00    +0.000 OA
ATOM     10  O   UNL     1       6.453   3.842  13.769  0.00  0.00    +0.000 OA
ENDBRANCH   5   8
BRANCH   7  11
ATOM     11  S   UNL     1       5.250   4.687  19.213  0.00  0.00    +0.000 S 
ATOM     12  O   UNL     1       6.627   4.440  19.575  0.00  0.00    +0.000 OA
ATOM     13  O   UNL     1       4.408   5.522  20.051  0.00  0.00    +0.000 OA
BRANCH  11  14
ATOM     14  N   UNL     1       4.465   3.217  19.073  0.00  0.00    +0.000 NA
ATOM     15  C   UNL     1       4.023   2.613  17.801  0.00  0.00    +0.000 C 
ATOM     16  C   UNL     1       2.486   2.406  17.767  0.00  0.00    +0.000 C 
ATOM     17  N   UNL     1       1.798   2.016  19.016  0.00  0.00    +0.000 NA
ATOM     18  C   UNL     1       0.413   2.505  19.003  0.00  0.00    +0.000 C 
ATOM     19  C   UNL     1       2.459   2.465  20.258  0.00  0.00    +0.000 C 
ATOM     20  C   UNL     1       3.992   2.435  20.225  0.00  0.00    +0.000 C 
ENDBRANCH  11  14
ENDBRANCH   7  11
TORSDOF 3
ENDMDL
MODEL 9
REMARK VINA RESULT:      -6.0      2.454      4.553
REMARK  Name = 
REMARK  5 active torsions:
REMARK  status: ('A' for Active; 'I' for Inactive)
REMARK    1  A    between atoms: C_1  and  C_2
REMARK    2  A    between atoms: C_5  and  N_6
REMARK    3  A    between atoms: C_10  and  S_11
REMARK    4  A    between atoms: S_11  and  N_14
REMARK    5  A    between atoms: N_17  and  C_18
REMARK                            x       y       z     vdW  Elec       q    Type
REMARK                         _______ _______ _______ _____ _____    ______ ____
ROOT
ATOM      1  C   UNL     1       1.834   3.956  20.618  0.00  0.00    +0.000 C 
ATOM      2  C   UNL     1       2.267   5.311  20.132  0.00  0.00    +0.000 A 
ATOM      3  C   UNL     1       1.809   6.415  20.874  0.00  0.00    +0.000 A 
ATOM      4  C   UNL     1       1.715   7.671  20.288  0.00  0.00    +0.000 A 
ATOM      5  C   UNL     1       2.085   7.823  18.953  0.00  0.00    +0.000 A 
ATOM      6  C   UNL     1       2.738   6.781  18.268  0.00  0.00    +0.000 A 
ATOM      7  C   UNL     1       2.888   5.522  18.887  0.00  0.00    +0.000 A 
ENDROOT
BRANCH   5   8
ATOM      8  N   UNL     1       1.668   9.051  18.251  0.00  0.00    +0.000 N 
ATOM      9  O   UNL     1       0.708   9.682  18.705  0.00  0.00    +0.000 OA
ATOM     10  O   UNL     1       2.283   9.349  17.215  0.00  0.00    +0.000 OA
ENDBRANCH   5   8
BRANCH   7  11
ATOM     11  S   UNL     1       3.667   4.192  17.946  0.00  0.00    +0.000 S 
ATOM     12  O   UNL     1       4.294   3.310  18.903  0.00  0.00    +0.000 OA
ATOM     13  O   UNL     1       2.647   3.690  17.042  0.00  0.00    +0.000 OA
BRANCH  11  14
ATOM     14  N   UNL     1       4.856   4.868  16.985  0.00  0.00    +0.000 NA
ATOM     15  C   UNL     1       6.165   4.249  16.701  0.00  0.00    +0.000 C 
ATOM     16  C   UNL     1       7.339   5.133  17.198  0.00  0.00    +0.000 C 
ATOM     17  N   UNL     1       7.210   6.602  17.095  0.00  0.00    +0.000 NA
ATOM     18  C   UNL     1       8.002   7.253  18.147  0.00  0.00    +0.000 C 
ATOM     19  C   UNL     1       5.824   7.111  17.146  0.00  0.00    +0.000 C 
ATOM     20  C   UNL     1       4.784   6.233  16.441  0.00  0.00    +0.000 C 
ENDBRANCH  11  14
ENDBRANCH   7  11
TORSDOF 3
ENDMDL
