MODEL 1
REMARK VINA RESULT:      -8.5      0.000      0.000
REMARK  Name = 
REMARK  7 active torsions:
REMARK  status: ('A' for Active; 'I' for Inactive)
REMARK    1  A    between atoms: C_1  and  O_2
REMARK    2  A    between atoms: O_2  and  C_3
REMARK    3  A    between atoms: C_7  and  N_8
REMARK    4  A    between atoms: N_8  and  C_9
REMARK    5  A    between atoms: C_9  and  C_10
REMARK    6  A    between atoms: C_9  and  C_21
REMARK    7  A    between atoms: C_10  and  C_12
REMARK                            x       y       z     vdW  Elec       q    Type
REMARK                         _______ _______ _______ _____ _____    ______ ____
ROOT
ATOM      1  C   UNL     1       3.353   5.754  18.693  0.00  0.00    +0.000 C 
ENDROOT
BRANCH   1   2
ATOM      2  C   UNL     1       2.520   4.446  18.787  0.00  0.00    +0.000 A 
ATOM      3  C   UNL     1       2.718   3.401  17.875  0.00  0.00    +0.000 A 
ATOM      4  C   UNL     1       1.939   2.252  17.984  0.00  0.00    +0.000 A 
ATOM      5  N   UNL     1       0.988   2.057  18.918  0.00  0.00    +0.000 NA
ATOM      6  C   UNL     1       0.806   3.065  19.798  0.00  0.00    +0.000 A 
ATOM      7  C   UNL     1       1.532   4.252  19.770  0.00  0.00    +0.000 A 
ENDBRANCH   1   2
BRANCH   1   8
ATOM      8  N   UNL     1       2.940   6.632  19.812  0.00  0.00    +0.000 N 
ATOM      9  H   UNL     1       2.495   6.094  20.554  0.00  0.00    +0.000 HD
BRANCH   8  14
ATOM     10  C   UNL     1       0.545   9.471  20.132  0.00  0.00    +0.000 A 
ATOM     11  C   UNL     1       0.490   9.905  18.815  0.00  0.00    +0.000 A 
ATOM     12  C   UNL     1       1.301   9.312  17.845  0.00  0.00    +0.000 A 
ATOM     13  C   UNL     1       2.154   8.263  18.200  0.00  0.00    +0.000 A 
ATOM     14  C   UNL     1       2.226   7.801  19.524  0.00  0.00    +0.000 A 
ATOM     15  C   UNL     1       1.422   8.439  20.486  0.00  0.00    +0.000 A 
BRANCH  10  17
ATOM     16  C   UNL     1      -0.355   9.554  22.331  0.00  0.00    +0.000 C 
ATOM     17  O   UNL     1      -0.347  10.055  20.997  0.00  0.00    +0.000 OA
ENDBRANCH  10  17
ENDBRANCH   8  14
ENDBRANCH   1   8
BRANCH   1  18
ATOM     18  C   UNL     1       4.873   5.482  18.729  0.00  0.00    +0.000 C 
ATOM     19  O   UNL     1       5.405   5.280  19.832  0.00  0.00    +0.000 OA
BRANCH  18  20
ATOM     20  C   UNL     1       5.778   5.435  17.550  0.00  0.00    +0.000 A 
ATOM     21  C   UNL     1       7.028   6.025  17.698  0.00  0.00    +0.000 A 
ATOM     22  N   UNL     1       7.483   6.342  16.462  0.00  0.00    +0.000 N 
ATOM     23  C   UNL     1       6.913   5.488  15.562  0.00  0.00    +0.000 A 
ATOM     24  C   UNL     1       7.319   5.227  14.248  0.00  0.00    +0.000 A 
ATOM     25  C   UNL     1       6.606   4.285  13.530  0.00  0.00    +0.000 A 
ATOM     26  C   UNL     1       5.466   3.713  14.086  0.00  0.00    +0.000 A 
ATOM     27  C   UNL     1       5.028   4.035  15.386  0.00  0.00    +0.000 A 
ATOM     28  C   UNL     1       5.799   4.907  16.198  0.00  0.00    +0.000 A 
ATOM     29  H   UNL     1       8.217   7.004  16.254  0.00  0.00    +0.000 HD
ENDBRANCH  18  20
ENDBRANCH   1  18
TORSDOF 6
ENDMDL
MODEL 2
REMARK VINA RESULT:      -8.5      2.467      7.792
REMARK  Name = 
REMARK  7 active torsions:
REMARK  status: ('A' for Active; 'I' for Inactive)
REMARK    1  A    between atoms: C_1  and  O_2
REMARK    2  A    between atoms: O_2  and  C_3
REMARK    3  A    between atoms: C_7  and  N_8
REMARK    4  A    between atoms: N_8  and  C_9
REMARK    5  A    between atoms: C_9  and  C_10
REMARK    6  A    between atoms: C_9  and  C_21
REMARK    7  A    between atoms: C_10  and  C_12
REMARK                            x       y       z     vdW  Elec       q    Type
REMARK                         _______ _______ _______ _____ _____    ______ ____
ROOT
ATOM      1  C   UNL     1       5.049   5.379  16.555  0.00  0.00    +0.000 C 
ENDROOT
BRANCH   1   2
ATOM      2  C   UNL     1       6.222   6.029  17.339  0.00  0.00    +0.000 A 
ATOM      3  C   UNL     1       6.860   5.341  18.379  0.00  0.00    +0.000 A 
ATOM      4  C   UNL     1       7.896   5.967  19.067  0.00  0.00    +0.000 A 
ATOM      5  N   UNL     1       8.348   7.210  18.809  0.00  0.00    +0.000 NA
ATOM      6  C   UNL     1       7.732   7.866  17.801  0.00  0.00    +0.000 A 
ATOM      7  C   UNL     1       6.687   7.327  17.057  0.00  0.00    +0.000 A 
ENDBRANCH   1   2
BRANCH   1   8
ATOM      8  N   UNL     1       5.570   4.160  15.895  0.00  0.00    +0.000 N 
ATOM      9  H   UNL     1       6.317   3.738  16.443  0.00  0.00    +0.000 HD
BRANCH   8  14
ATOM     10  C   UNL     1       5.615   3.415  12.242  0.00  0.00    +0.000 A 
ATOM     11  C   UNL     1       6.811   4.016  11.876  0.00  0.00    +0.000 A 
ATOM     12  C   UNL     1       7.557   4.730  12.817  0.00  0.00    +0.000 A 
ATOM     13  C   UNL     1       7.104   4.819  14.136  0.00  0.00    +0.000 A 
ATOM     14  C   UNL     1       5.899   4.217  14.536  0.00  0.00    +0.000 A 
ATOM     15  C   UNL     1       5.154   3.533  13.558  0.00  0.00    +0.000 A 
BRANCH  10  17
ATOM     16  C   UNL     1       3.724   3.133  10.830  0.00  0.00    +0.000 C 
ATOM     17  O   UNL     1       4.995   2.666  11.272  0.00  0.00    +0.000 OA
ENDBRANCH  10  17
ENDBRANCH   8  14
ENDBRANCH   1   8
BRANCH   1  18
ATOM     18  C   UNL     1       3.848   5.048  17.469  0.00  0.00    +0.000 C 
ATOM     19  O   UNL     1       3.315   3.933  17.353  0.00  0.00    +0.000 OA
BRANCH  18  20
ATOM     20  C   UNL     1       3.260   5.949  18.495  0.00  0.00    +0.000 A 
ATOM     21  C   UNL     1       3.385   5.552  19.822  0.00  0.00    +0.000 A 
ATOM     22  N   UNL     1       2.406   6.163  20.529  0.00  0.00    +0.000 N 
ATOM     23  C   UNL     1       2.074   7.324  19.890  0.00  0.00    +0.000 A 
ATOM     24  C   UNL     1       1.365   8.416  20.404  0.00  0.00    +0.000 A 
ATOM     25  C   UNL     1       1.181   9.509  19.577  0.00  0.00    +0.000 A 
ATOM     26  C   UNL     1       1.603   9.451  18.252  0.00  0.00    +0.000 A 
ATOM     27  C   UNL     1       2.255   8.317  17.728  0.00  0.00    +0.000 A 
ATOM     28  C   UNL     1       2.569   7.223  18.576  0.00  0.00    +0.000 A 
ATOM     29  H   UNL     1       2.071   5.883  21.439  0.00  0.00    +0.000 HD
ENDBRANCH  18  20
ENDBRANCH   1  18
TORSDOF 6
ENDMDL
MODEL 3
REMARK VINA RESULT:      -8.5      2.448      7.900
REMARK  Name = 
REMARK  7 active torsions:
REMARK  status: ('A' for Active; 'I' for Inactive)
REMARK    1  A    between atoms: C_1  and  O_2
REMARK    2  A    between atoms: O_2  and  C_3
REMARK    3  A    between atoms: C_7  and  N_8
REMARK    4  A    between atoms: N_8  and  C_9
REMARK    5  A    between atoms: C_9  and  C_10
REMARK    6  A    between atoms: C_9  and  C_21
REMARK    7  A    between atoms: C_10  and  C_12
REMARK                            x       y       z     vdW  Elec       q    Type
REMARK                         _______ _______ _______ _____ _____    ______ ____
ROOT
ATOM      1  C   UNL     1       5.044   5.397  16.624  0.00  0.00    +0.000 C 
ENDROOT
BRANCH   1   2
ATOM      2  C   UNL     1       6.212   6.054  17.411  0.00  0.00    +0.000 A 
ATOM      3  C   UNL     1       6.660   7.341  17.088  0.00  0.00    +0.000 A 
ATOM      4  C   UNL     1       7.720   7.887  17.807  0.00  0.00    +0.000 A 
ATOM      5  N   UNL     1       8.365   7.265  18.814  0.00  0.00    +0.000 NA
ATOM      6  C   UNL     1       7.924   6.027  19.124  0.00  0.00    +0.000 A 
ATOM      7  C   UNL     1       6.875   5.395  18.463  0.00  0.00    +0.000 A 
ENDBRANCH   1   2
BRANCH   1   8
ATOM      8  N   UNL     1       5.574   4.182  15.963  0.00  0.00    +0.000 N 
ATOM      9  H   UNL     1       6.299   3.745  16.529  0.00  0.00    +0.000 HD
BRANCH   8  14
ATOM     10  C   UNL     1       5.875   3.368  12.338  0.00  0.00    +0.000 A 
ATOM     11  C   UNL     1       6.987   4.127  12.000  0.00  0.00    +0.000 A 
ATOM     12  C   UNL     1       7.582   4.964  12.947  0.00  0.00    +0.000 A 
ATOM     13  C   UNL     1       7.068   5.016  14.245  0.00  0.00    +0.000 A 
ATOM     14  C   UNL     1       5.947   4.255  14.616  0.00  0.00    +0.000 A 
ATOM     15  C   UNL     1       5.348   3.448  13.632  0.00  0.00    +0.000 A 
BRANCH  10  17
ATOM     16  C   UNL     1       6.087   1.267  11.246  0.00  0.00    +0.000 C 
ATOM     17  O   UNL     1       5.410   2.515  11.367  0.00  0.00    +0.000 OA
ENDBRANCH  10  17
ENDBRANCH   8  14
ENDBRANCH   1   8
BRANCH   1  18
ATOM     18  C   UNL     1       3.844   5.057  17.536  0.00  0.00    +0.000 C 
ATOM     19  O   UNL     1       3.340   3.927  17.442  0.00  0.00    +0.000 OA
BRANCH  18  20
ATOM     20  C   UNL     1       3.223   5.968  18.534  0.00  0.00    +0.000 A 
ATOM     21  C   UNL     1       3.271   5.563  19.864  0.00  0.00    +0.000 A 
ATOM     22  N   UNL     1       2.270   6.194  20.522  0.00  0.00    +0.000 N 
ATOM     23  C   UNL     1       1.997   7.364  19.873  0.00  0.00    +0.000 A 
ATOM     24  C   UNL     1       1.288   8.470  20.355  0.00  0.00    +0.000 A 
ATOM     25  C   UNL     1       1.172   9.570  19.525  0.00  0.00    +0.000 A 
ATOM     26  C   UNL     1       1.660   9.507  18.224  0.00  0.00    +0.000 A 
ATOM     27  C   UNL     1       2.313   8.361  17.728  0.00  0.00    +0.000 A 
ATOM     28  C   UNL     1       2.558   7.257  18.586  0.00  0.00    +0.000 A 
ATOM     29  H   UNL     1       1.882   5.918  21.413  0.00  0.00    +0.000 HD
ENDBRANCH  18  20
ENDBRANCH   1  18
TORSDOF 6
ENDMDL
MODEL 4
REMARK VINA RESULT:      -8.4      0.522      1.050
REMARK  Name = 
REMARK  7 active torsions:
REMARK  status: ('A' for Active; 'I' for Inactive)
REMARK    1  A    between atoms: C_1  and  O_2
REMARK    2  A    between atoms: O_2  and  C_3
REMARK    3  A    between atoms: C_7  and  N_8
REMARK    4  A    between atoms: N_8  and  C_9
REMARK    5  A    between atoms: C_9  and  C_10
REMARK    6  A    between atoms: C_9  and  C_21
REMARK    7  A    between atoms: C_10  and  C_12
REMARK                            x       y       z     vdW  Elec       q    Type
REMARK                         _______ _______ _______ _____ _____    ______ ____
ROOT
ATOM      1  C   UNL     1       3.311   5.744  18.786  0.00  0.00    +0.000 C 
ENDROOT
BRANCH   1   2
ATOM      2  C   UNL     1       2.487   4.440  18.960  0.00  0.00    +0.000 A 
ATOM      3  C   UNL     1       1.791   4.183  20.148  0.00  0.00    +0.000 A 
ATOM      4  C   UNL     1       1.077   2.994  20.269  0.00  0.00    +0.000 A 
ATOM      5  N   UNL     1       0.997   2.046  19.314  0.00  0.00    +0.000 NA
ATOM      6  C   UNL     1       1.665   2.303  18.169  0.00  0.00    +0.000 A 
ATOM      7  C   UNL     1       2.408   3.460  17.952  0.00  0.00    +0.000 A 
ENDBRANCH   1   2
BRANCH   1   8
ATOM      8  N   UNL     1       2.908   6.679  19.861  0.00  0.00    +0.000 N 
ATOM      9  H   UNL     1       2.450   6.183  20.624  0.00  0.00    +0.000 HD
BRANCH   8  14
ATOM     10  C   UNL     1       0.497   9.520  19.995  0.00  0.00    +0.000 A 
ATOM     11  C   UNL     1       0.533   9.944  18.674  0.00  0.00    +0.000 A 
ATOM     12  C   UNL     1       1.408   9.344  17.766  0.00  0.00    +0.000 A 
ATOM     13  C   UNL     1       2.234   8.299  18.187  0.00  0.00    +0.000 A 
ATOM     14  C   UNL     1       2.216   7.846  19.517  0.00  0.00    +0.000 A 
ATOM     15  C   UNL     1       1.348   8.491  20.416  0.00  0.00    +0.000 A 
BRANCH  10  17
ATOM     16  C   UNL     1      -0.897  11.403  20.393  0.00  0.00    +0.000 C 
ATOM     17  O   UNL     1      -0.452  10.110  20.793  0.00  0.00    +0.000 OA
ENDBRANCH  10  17
ENDBRANCH   8  14
ENDBRANCH   1   8
BRANCH   1  18
ATOM     18  C   UNL     1       4.834   5.481  18.817  0.00  0.00    +0.000 C 
ATOM     19  O   UNL     1       5.369   5.279  19.918  0.00  0.00    +0.000 OA
BRANCH  18  20
ATOM     20  C   UNL     1       5.736   5.444  17.636  0.00  0.00    +0.000 A 
ATOM     21  C   UNL     1       6.975   6.060  17.776  0.00  0.00    +0.000 A 
ATOM     22  N   UNL     1       7.420   6.377  16.537  0.00  0.00    +0.000 N 
ATOM     23  C   UNL     1       6.864   5.507  15.644  0.00  0.00    +0.000 A 
ATOM     24  C   UNL     1       7.271   5.245  14.330  0.00  0.00    +0.000 A 
ATOM     25  C   UNL     1       6.574   4.285  13.621  0.00  0.00    +0.000 A 
ATOM     26  C   UNL     1       5.447   3.695  14.183  0.00  0.00    +0.000 A 
ATOM     27  C   UNL     1       5.007   4.016  15.482  0.00  0.00    +0.000 A 
ATOM     28  C   UNL     1       5.763   4.909  16.286  0.00  0.00    +0.000 A 
ATOM     29  H   UNL     1       8.140   7.051  16.323  0.00  0.00    +0.000 HD
ENDBRANCH  18  20
ENDBRANCH   1  18
TORSDOF 6
ENDMDL
MODEL 5
REMARK VINA RESULT:      -8.2      1.134      1.877
REMARK  Name = 
REMARK  7 active torsions:
REMARK  status: ('A' for Active; 'I' for Inactive)
REMARK    1  A    between atoms: C_1  and  O_2
REMARK    2  A    between atoms: O_2  and  C_3
REMARK    3  A    between atoms: C_7  and  N_8
REMARK    4  A    between atoms: N_8  and  C_9
REMARK    5  A    between atoms: C_9  and  C_10
REMARK    6  A    between atoms: C_9  and  C_21
REMARK    7  A    between atoms: C_10  and  C_12
REMARK                            x       y       z     vdW  Elec       q    Type
REMARK                         _______ _______ _______ _____ _____    ______ ____
ROOT
ATOM      1  C   UNL     1       3.515   5.498  18.703  0.00  0.00    +0.000 C 
ENDROOT
BRANCH   1   2
ATOM      2  C   UNL     1       2.891   4.076  18.686  0.00  0.00    +0.000 A 
ATOM      3  C   UNL     1       1.501   3.901  18.708  0.00  0.00    +0.000 A 
ATOM      4  C   UNL     1       0.983   2.609  18.708  0.00  0.00    +0.000 A 
ATOM      5  N   UNL     1       1.725   1.484  18.687  0.00  0.00    +0.000 NA
ATOM      6  C   UNL     1       3.064   1.660  18.659  0.00  0.00    +0.000 A 
ATOM      7  C   UNL     1       3.678   2.909  18.659  0.00  0.00    +0.000 A 
ENDBRANCH   1   2
BRANCH   1   8
ATOM      8  N   UNL     1       3.014   6.195  19.910  0.00  0.00    +0.000 N 
ATOM      9  H   UNL     1       2.588   5.539  20.561  0.00  0.00    +0.000 HD
BRANCH   8  14
ATOM     10  C   UNL     1       1.726   9.428  18.573  0.00  0.00    +0.000 A 
ATOM     11  C   UNL     1       0.940   9.847  19.638  0.00  0.00    +0.000 A 
ATOM     12  C   UNL     1       0.776   9.027  20.757  0.00  0.00    +0.000 A 
ATOM     13  C   UNL     1       1.424   7.790  20.810  0.00  0.00    +0.000 A 
ATOM     14  C   UNL     1       2.229   7.343  19.749  0.00  0.00    +0.000 A 
ATOM     15  C   UNL     1       2.348   8.176  18.622  0.00  0.00    +0.000 A 
BRANCH  10  17
ATOM     16  C   UNL     1       2.272  11.654  17.942  0.00  0.00    +0.000 C 
ATOM     17  O   UNL     1       1.895  10.336  17.556  0.00  0.00    +0.000 OA
ENDBRANCH  10  17
ENDBRANCH   8  14
ENDBRANCH   1   8
BRANCH   1  18
ATOM     18  C   UNL     1       5.059   5.458  18.683  0.00  0.00    +0.000 C 
ATOM     19  O   UNL     1       5.659   5.485  19.770  0.00  0.00    +0.000 OA
BRANCH  18  20
ATOM     20  C   UNL     1       5.913   5.387  17.468  0.00  0.00    +0.000 A 
ATOM     21  C   UNL     1       7.179   5.956  17.560  0.00  0.00    +0.000 A 
ATOM     22  N   UNL     1       7.587   6.256  16.304  0.00  0.00    +0.000 N 
ATOM     23  C   UNL     1       6.965   5.407  15.434  0.00  0.00    +0.000 A 
ATOM     24  C   UNL     1       7.311   5.131  14.106  0.00  0.00    +0.000 A 
ATOM     25  C   UNL     1       6.552   4.196  13.426  0.00  0.00    +0.000 A 
ATOM     26  C   UNL     1       5.426   3.649  14.032  0.00  0.00    +0.000 A 
ATOM     27  C   UNL     1       5.049   3.987  15.347  0.00  0.00    +0.000 A 
ATOM     28  C   UNL     1       5.869   4.851  16.120  0.00  0.00    +0.000 A 
ATOM     29  H   UNL     1       8.324   6.903  16.061  0.00  0.00    +0.000 HD
ENDBRANCH  18  20
ENDBRANCH   1  18
TORSDOF 6
ENDMDL
MODEL 6
REMARK VINA RESULT:      -8.1      1.518      1.883
REMARK  Name = 
REMARK  7 active torsions:
REMARK  status: ('A' for Active; 'I' for Inactive)
REMARK    1  A    between atoms: C_1  and  O_2
REMARK    2  A    between atoms: O_2  and  C_3
REMARK    3  A    between atoms: C_7  and  N_8
REMARK    4  A    between atoms: N_8  and  C_9
REMARK    5  A    between atoms: C_9  and  C_10
REMARK    6  A    between atoms: C_9  and  C_21
REMARK    7  A    between atoms: C_10  and  C_12
REMARK                            x       y       z     vdW  Elec       q    Type
REMARK                         _______ _______ _______ _____ _____    ______ ____
ROOT
ATOM      1  C   UNL     1       3.453   4.682  17.591  0.00  0.00    +0.000 C 
ENDROOT
BRANCH   1   2
ATOM      2  C   UNL     1       2.669   3.974  18.731  0.00  0.00    +0.000 A 
ATOM      3  C   UNL     1       3.295   3.659  19.944  0.00  0.00    +0.000 A 
ATOM      4  C   UNL     1       2.561   3.010  20.933  0.00  0.00    +0.000 A 
ATOM      5  N   UNL     1       1.267   2.652  20.818  0.00  0.00    +0.000 NA
ATOM      6  C   UNL     1       0.668   2.965  19.648  0.00  0.00    +0.000 A 
ATOM      7  C   UNL     1       1.317   3.609  18.599  0.00  0.00    +0.000 A 
ENDBRANCH   1   2
BRANCH   1   8
ATOM      8  N   UNL     1       4.095   5.886  18.166  0.00  0.00    +0.000 N 
ATOM      9  H   UNL     1       4.720   5.638  18.930  0.00  0.00    +0.000 HD
BRANCH   8  14
ATOM     10  C   UNL     1       1.661   8.068  19.960  0.00  0.00    +0.000 A 
ATOM     11  C   UNL     1       1.376   8.996  18.969  0.00  0.00    +0.000 A 
ATOM     12  C   UNL     1       2.044   8.946  17.744  0.00  0.00    +0.000 A 
ATOM     13  C   UNL     1       2.988   7.942  17.510  0.00  0.00    +0.000 A 
ATOM     14  C   UNL     1       3.293   6.986  18.493  0.00  0.00    +0.000 A 
ATOM     15  C   UNL     1       2.628   7.083  19.729  0.00  0.00    +0.000 A 
BRANCH  10  17
ATOM     16  C   UNL     1       1.306   9.100  22.071  0.00  0.00    +0.000 C 
ATOM     17  O   UNL     1       0.896   8.145  21.097  0.00  0.00    +0.000 OA
ENDBRANCH  10  17
ENDBRANCH   8  14
ENDBRANCH   1   8
BRANCH   1  18
ATOM     18  C   UNL     1       4.499   3.751  16.936  0.00  0.00    +0.000 C 
ATOM     19  O   UNL     1       4.430   2.535  17.176  0.00  0.00    +0.000 OA
BRANCH  18  20
ATOM     20  C   UNL     1       5.598   4.177  16.030  0.00  0.00    +0.000 A 
ATOM     21  C   UNL     1       6.693   4.795  16.624  0.00  0.00    +0.000 A 
ATOM     22  N   UNL     1       7.308   5.541  15.676  0.00  0.00    +0.000 N 
ATOM     23  C   UNL     1       7.051   4.985  14.455  0.00  0.00    +0.000 A 
ATOM     24  C   UNL     1       7.723   5.210  13.249  0.00  0.00    +0.000 A 
ATOM     25  C   UNL     1       7.307   4.497  12.139  0.00  0.00    +0.000 A 
ATOM     26  C   UNL     1       6.189   3.674  12.227  0.00  0.00    +0.000 A 
ATOM     27  C   UNL     1       5.479   3.509  13.433  0.00  0.00    +0.000 A 
ATOM     28  C   UNL     1       5.945   4.129  14.621  0.00  0.00    +0.000 A 
ATOM     29  H   UNL     1       7.956   6.297  15.847  0.00  0.00    +0.000 HD
ENDBRANCH  18  20
ENDBRANCH   1  18
TORSDOF 6
ENDMDL
MODEL 7
REMARK VINA RESULT:      -8.0      1.604      2.128
REMARK  Name = 
REMARK  7 active torsions:
REMARK  status: ('A' for Active; 'I' for Inactive)
REMARK    1  A    between atoms: C_1  and  O_2
REMARK    2  A    between atoms: O_2  and  C_3
REMARK    3  A    between atoms: C_7  and  N_8
REMARK    4  A    between atoms: N_8  and  C_9
REMARK    5  A    between atoms: C_9  and  C_10
REMARK    6  A    between atoms: C_9  and  C_21
REMARK    7  A    between atoms: C_10  and  C_12
REMARK                            x       y       z     vdW  Elec       q    Type
REMARK                         _______ _______ _______ _____ _____    ______ ____
ROOT
ATOM      1  C   UNL     1       1.917   6.637  19.258  0.00  0.00    +0.000 C 
ENDROOT
BRANCH   1   2
ATOM      2  C   UNL     1       1.806   5.119  19.565  0.00  0.00    +0.000 A 
ATOM      3  C   UNL     1       1.577   4.194  18.538  0.00  0.00    +0.000 A 
ATOM      4  C   UNL     1       1.467   2.843  18.858  0.00  0.00    +0.000 A 
ATOM      5  N   UNL     1       1.566   2.340  20.104  0.00  0.00    +0.000 NA
ATOM      6  C   UNL     1       1.793   3.236  21.088  0.00  0.00    +0.000 A 
ATOM      7  C   UNL     1       1.916   4.605  20.870  0.00  0.00    +0.000 A 
ENDBRANCH   1   2
BRANCH   1   8
ATOM      8  N   UNL     1       2.054   7.349  20.549  0.00  0.00    +0.000 N 
ATOM      9  H   UNL     1       1.901   6.718  21.333  0.00  0.00    +0.000 HD
BRANCH   8  14
ATOM     10  C   UNL     1       0.121  10.109  22.145  0.00  0.00    +0.000 A 
ATOM     11  C   UNL     1      -0.332  10.784  21.020  0.00  0.00    +0.000 A 
ATOM     12  C   UNL     1       0.066  10.374  19.745  0.00  0.00    +0.000 A 
ATOM     13  C   UNL     1       0.906   9.266  19.605  0.00  0.00    +0.000 A 
ATOM     14  C   UNL     1       1.376   8.561  20.726  0.00  0.00    +0.000 A 
ATOM     15  C   UNL     1       0.985   9.018  21.998  0.00  0.00    +0.000 A 
BRANCH  10  17
ATOM     16  C   UNL     1      -1.586  11.303  23.290  0.00  0.00    +0.000 C 
ATOM     17  O   UNL     1      -0.389  10.532  23.348  0.00  0.00    +0.000 OA
ENDBRANCH  10  17
ENDBRANCH   8  14
ENDBRANCH   1   8
BRANCH   1  18
ATOM     18  C   UNL     1       3.100   6.957  18.317  0.00  0.00    +0.000 C 
ATOM     19  O   UNL     1       3.042   7.994  17.636  0.00  0.00    +0.000 OA
BRANCH  18  20
ATOM     20  C   UNL     1       4.325   6.132  18.145  0.00  0.00    +0.000 A 
ATOM     21  C   UNL     1       4.904   5.625  19.303  0.00  0.00    +0.000 A 
ATOM     22  N   UNL     1       6.206   5.367  19.033  0.00  0.00    +0.000 N 
ATOM     23  C   UNL     1       6.327   5.116  17.697  0.00  0.00    +0.000 A 
ATOM     24  C   UNL     1       7.393   4.499  17.031  0.00  0.00    +0.000 A 
ATOM     25  C   UNL     1       7.276   4.313  15.666  0.00  0.00    +0.000 A 
ATOM     26  C   UNL     1       6.175   4.829  14.991  0.00  0.00    +0.000 A 
ATOM     27  C   UNL     1       5.140   5.509  15.664  0.00  0.00    +0.000 A 
ATOM     28  C   UNL     1       5.165   5.615  17.079  0.00  0.00    +0.000 A 
ATOM     29  H   UNL     1       6.939   5.248  19.718  0.00  0.00    +0.000 HD
ENDBRANCH  18  20
ENDBRANCH   1  18
TORSDOF 6
ENDMDL
MODEL 8
REMARK VINA RESULT:      -7.9      3.015      7.755
REMARK  Name = 
REMARK  7 active torsions:
REMARK  status: ('A' for Active; 'I' for Inactive)
REMARK    1  A    between atoms: C_1  and  O_2
REMARK    2  A    between atoms: O_2  and  C_3
REMARK    3  A    between atoms: C_7  and  N_8
REMARK    4  A    between atoms: N_8  and  C_9
REMARK    5  A    between atoms: C_9  and  C_10
REMARK    6  A    between atoms: C_9  and  C_21
REMARK    7  A    between atoms: C_10  and  C_12
REMARK                            x       y       z     vdW  Elec       q    Type
REMARK                         _______ _______ _______ _____ _____    ______ ____
ROOT
ATOM      1  C   UNL     1       5.160   5.919  16.545  0.00  0.00    +0.000 C 
ENDROOT
BRANCH   1   2
ATOM      2  C   UNL     1       6.362   6.351  17.429  0.00  0.00    +0.000 A 
ATOM      3  C   UNL     1       6.825   5.528  18.463  0.00  0.00    +0.000 A 
ATOM      4  C   UNL     1       7.895   5.959  19.243  0.00  0.00    +0.000 A 
ATOM      5  N   UNL     1       8.538   7.132  19.081  0.00  0.00    +0.000 NA
ATOM      6  C   UNL     1       8.091   7.918  18.077  0.00  0.00    +0.000 A 
ATOM      7  C   UNL     1       7.028   7.577  17.246  0.00  0.00    +0.000 A 
ENDBRANCH   1   2
BRANCH   1   8
ATOM      8  N   UNL     1       5.474   4.588  15.977  0.00  0.00    +0.000 N 
ATOM      9  H   UNL     1       6.092   4.064  16.593  0.00  0.00    +0.000 HD
BRANCH   8  14
ATOM     10  C   UNL     1       5.720   3.491  12.422  0.00  0.00    +0.000 A 
ATOM     11  C   UNL     1       6.954   4.025  12.078  0.00  0.00    +0.000 A 
ATOM     12  C   UNL     1       7.661   4.810  12.991  0.00  0.00    +0.000 A 
ATOM     13  C   UNL     1       7.132   5.037  14.265  0.00  0.00    +0.000 A 
ATOM     14  C   UNL     1       5.888   4.505  14.642  0.00  0.00    +0.000 A 
ATOM     15  C   UNL     1       5.183   3.747  13.688  0.00  0.00    +0.000 A 
BRANCH  10  17
ATOM     16  C   UNL     1       3.845   3.044  11.032  0.00  0.00    +0.000 C 
ATOM     17  O   UNL     1       5.139   2.666  11.490  0.00  0.00    +0.000 OA
ENDBRANCH  10  17
ENDBRANCH   8  14
ENDBRANCH   1   8
BRANCH   1  18
ATOM     18  C   UNL     1       3.834   5.888  17.337  0.00  0.00    +0.000 C 
ATOM     19  O   UNL     1       3.218   6.955  17.487  0.00  0.00    +0.000 OA
BRANCH  18  20
ATOM     20  C   UNL     1       3.211   4.683  17.947  0.00  0.00    +0.000 A 
ATOM     21  C   UNL     1       3.044   3.579  17.118  0.00  0.00    +0.000 A 
ATOM     22  N   UNL     1       2.055   2.817  17.642  0.00  0.00    +0.000 N 
ATOM     23  C   UNL     1       2.010   3.036  18.989  0.00  0.00    +0.000 A 
ATOM     24  C   UNL     1       1.387   2.252  19.967  0.00  0.00    +0.000 A 
ATOM     25  C   UNL     1       1.509   2.652  21.285  0.00  0.00    +0.000 A 
ATOM     26  C   UNL     1       2.143   3.854  21.585  0.00  0.00    +0.000 A 
ATOM     27  C   UNL     1       2.707   4.669  20.584  0.00  0.00    +0.000 A 
ATOM     28  C   UNL     1       2.707   4.234  19.232  0.00  0.00    +0.000 A 
ATOM     29  H   UNL     1       1.529   2.110  17.148  0.00  0.00    +0.000 HD
ENDBRANCH  18  20
ENDBRANCH   1  18
TORSDOF 6
ENDMDL
MODEL 9
REMARK VINA RESULT:      -7.9      2.500      7.426
REMARK  Name = 
REMARK  7 active torsions:
REMARK  status: ('A' for Active; 'I' for Inactive)
REMARK    1  A    between atoms: C_1  and  O_2
REMARK    2  A    between atoms: O_2  and  C_3
REMARK    3  A    between atoms: C_7  and  N_8
REMARK    4  A    between atoms: N_8  and  C_9
REMARK    5  A    between atoms: C_9  and  C_10
REMARK    6  A    between atoms: C_9  and  C_21
REMARK    7  A    between atoms: C_10  and  C_12
REMARK                            x       y       z     vdW  Elec       q    Type
REMARK                         _______ _______ _______ _____ _____    ______ ____
ROOT
ATOM      1  C   UNL     1       5.134   6.317  16.580  0.00  0.00    +0.000 C 
ENDROOT
BRANCH   1   2
ATOM      2  C   UNL     1       6.208   6.119  17.684  0.00  0.00    +0.000 A 
ATOM      3  C   UNL     1       6.084   5.093  18.630  0.00  0.00    +0.000 A 
ATOM      4  C   UNL     1       7.060   4.960  19.614  0.00  0.00    +0.000 A 
ATOM      5  N   UNL     1       8.142   5.755  19.734  0.00  0.00    +0.000 NA
ATOM      6  C   UNL     1       8.258   6.737  18.815  0.00  0.00    +0.000 A 
ATOM      7  C   UNL     1       7.335   6.953  17.796  0.00  0.00    +0.000 A 
ENDBRANCH   1   2
BRANCH   1   8
ATOM      8  N   UNL     1       4.928   5.012  15.912  0.00  0.00    +0.000 N 
ATOM      9  H   UNL     1       5.075   4.241  16.561  0.00  0.00    +0.000 HD
BRANCH   8  14
ATOM     10  C   UNL     1       5.686   3.576  12.556  0.00  0.00    +0.000 A 
ATOM     11  C   UNL     1       7.004   3.984  12.398  0.00  0.00    +0.000 A 
ATOM     12  C   UNL     1       7.609   4.796  13.360  0.00  0.00    +0.000 A 
ATOM     13  C   UNL     1       6.890   5.178  14.496  0.00  0.00    +0.000 A 
ATOM     14  C   UNL     1       5.557   4.776  14.684  0.00  0.00    +0.000 A 
ATOM     15  C   UNL     1       4.963   3.987  13.681  0.00  0.00    +0.000 A 
BRANCH  10  17
ATOM     16  C   UNL     1       3.911   3.005  11.082  0.00  0.00    +0.000 C 
ATOM     17  O   UNL     1       5.204   2.713  11.602  0.00  0.00    +0.000 OA
ENDBRANCH  10  17
ENDBRANCH   8  14
ENDBRANCH   1   8
BRANCH   1  18
ATOM     18  C   UNL     1       3.807   6.869  17.148  0.00  0.00    +0.000 C 
ATOM     19  O   UNL     1       3.374   7.938  16.689  0.00  0.00    +0.000 OA
BRANCH  18  20
ATOM     20  C   UNL     1       2.981   6.232  18.208  0.00  0.00    +0.000 A 
ATOM     21  C   UNL     1       2.659   7.020  19.307  0.00  0.00    +0.000 A 
ATOM     22  N   UNL     1       2.382   6.191  20.341  0.00  0.00    +0.000 N 
ATOM     23  C   UNL     1       1.937   5.004  19.834  0.00  0.00    +0.000 A 
ATOM     24  C   UNL     1       1.242   3.990  20.503  0.00  0.00    +0.000 A 
ATOM     25  C   UNL     1       0.855   2.884  19.768  0.00  0.00    +0.000 A 
ATOM     26  C   UNL     1       1.250   2.766  18.440  0.00  0.00    +0.000 A 
ATOM     27  C   UNL     1       2.008   3.764  17.796  0.00  0.00    +0.000 A 
ATOM     28  C   UNL     1       2.323   4.967  18.481  0.00  0.00    +0.000 A 
ATOM     29  H   UNL     1       2.375   6.447  21.318  0.00  0.00    +0.000 HD
ENDBRANCH  18  20
ENDBRANCH   1  18
TORSDOF 6
ENDMDL
