MODEL 1
REMARK VINA RESULT:      -8.1      0.000      0.000
REMARK  Name = 
REMARK  9 active torsions:
REMARK  status: ('A' for Active; 'I' for Inactive)
REMARK    1  A    between atoms: C_1  and  N_2
REMARK    2  A    between atoms: N_5  and  C_6
REMARK    3  A    between atoms: C_6  and  C_7
REMARK    4  A    between atoms: C_7  and  C_8
REMARK    5  A    between atoms: C_8  and  O_9
REMARK    6  A    between atoms: O_9  and  C_10
REMARK    7  A    between atoms: C_12  and  O_13
REMARK    8  A    between atoms: C_17  and  C_18
REMARK    9  A    between atoms: C_21  and  O_22
REMARK                            x       y       z     vdW  Elec       q    Type
REMARK                         _______ _______ _______ _____ _____    ______ ____
ROOT
ATOM      1  C   UNL     1       1.849   8.084  19.406  0.00  0.00    +0.000 A 
ATOM      2  C   UNL     1       1.522   9.155  18.572  0.00  0.00    +0.000 A 
ATOM      3  C   UNL     1       0.799  10.241  19.063  0.00  0.00    +0.000 A 
ATOM      4  C   UNL     1       0.382  10.264  20.398  0.00  0.00    +0.000 A 
ATOM      5  C   UNL     1      -0.416  11.376  20.968  0.00  0.00    +0.000 A 
ATOM      6  O   UNL     1      -0.747  12.360  20.320  0.00  0.00    +0.000 OA
ATOM      7  C   UNL     1      -0.807  11.238  22.391  0.00  0.00    +0.000 A 
ATOM      8  C   UNL     1      -0.388  10.159  23.063  0.00  0.00    +0.000 A 
ATOM      9  O   UNL     1       0.374   9.137  22.561  0.00  0.00    +0.000 OA
ATOM     10  C   UNL     1       0.726   9.195  21.234  0.00  0.00    +0.000 A 
ATOM     11  C   UNL     1       1.458   8.110  20.744  0.00  0.00    +0.000 A 
ENDROOT
BRANCH   7  12
ATOM     12  C   UNL     1      -1.638  12.247  23.055  0.00  0.00    +0.000 A 
ATOM     13  C   UNL     1      -1.113  13.510  23.355  0.00  0.00    +0.000 A 
ATOM     14  C   UNL     1      -1.910  14.475  23.975  0.00  0.00    +0.000 A 
ATOM     15  C   UNL     1      -3.230  14.169  24.295  0.00  0.00    +0.000 A 
ATOM     16  C   UNL     1      -3.763  12.917  24.006  0.00  0.00    +0.000 A 
ATOM     17  C   UNL     1      -2.967  11.954  23.387  0.00  0.00    +0.000 A 
BRANCH  15  18
ATOM     18  O   UNL     1      -4.042  15.080  24.901  0.00  0.00    +0.000 OA
ATOM     19  H   UNL     1      -4.964  14.819  24.750  0.00  0.00    +0.000 HD
ENDBRANCH  15  18
ENDBRANCH   7  12
BRANCH   3  20
ATOM     20  O   UNL     1       0.508  11.258  18.201  0.00  0.00    +0.000 OA
ATOM     21  H   UNL     1       0.998  11.158  17.365  0.00  0.00    +0.000 HD
ENDBRANCH   3  20
BRANCH   1  22
ATOM     22  O   UNL     1       2.536   6.968  19.007  0.00  0.00    +0.000 OA
BRANCH  22  23
ATOM     23  C   UNL     1       3.421   7.174  17.903  0.00  0.00    +0.000 C 
BRANCH  23  24
ATOM     24  C   UNL     1       3.984   5.832  17.470  0.00  0.00    +0.000 C 
BRANCH  24  25
ATOM     25  C   UNL     1       2.918   4.733  17.525  0.00  0.00    +0.000 C 
BRANCH  25  30
ATOM     26  C   UNL     1       1.376   2.633  21.581  0.00  0.00    +0.000 C 
ATOM     27  N   UNL     1       2.244   2.493  20.419  0.00  0.00    +0.000 NA
ATOM     28  C   UNL     1       3.286   3.534  20.398  0.00  0.00    +0.000 C 
ATOM     29  C   UNL     1       4.194   3.406  19.153  0.00  0.00    +0.000 C 
ATOM     30  N   UNL     1       3.469   3.409  17.860  0.00  0.00    +0.000 NA
ATOM     31  C   UNL     1       2.406   2.378  17.938  0.00  0.00    +0.000 C 
ATOM     32  C   UNL     1       1.473   2.519  19.164  0.00  0.00    +0.000 C 
ENDBRANCH  25  30
ENDBRANCH  24  25
ENDBRANCH  23  24
ENDBRANCH  22  23
ENDBRANCH   1  22
TORSDOF 8
ENDMDL
MODEL 2
REMARK VINA RESULT:      -8.1      1.342      2.716
REMARK  Name = 
REMARK  9 active torsions:
REMARK  status: ('A' for Active; 'I' for Inactive)
REMARK    1  A    between atoms: C_1  and  N_2
REMARK    2  A    between atoms: N_5  and  C_6
REMARK    3  A    between atoms: C_6  and  C_7
REMARK    4  A    between atoms: C_7  and  C_8
REMARK    5  A    between atoms: C_8  and  O_9
REMARK    6  A    between atoms: O_9  and  C_10
REMARK    7  A    between atoms: C_12  and  O_13
REMARK    8  A    between atoms: C_17  and  C_18
REMARK    9  A    between atoms: C_21  and  O_22
REMARK                            x       y       z     vdW  Elec       q    Type
REMARK                         _______ _______ _______ _____ _____    ______ ____
ROOT
ATOM      1  C   UNL     1       1.824   8.046  19.666  0.00  0.00    +0.000 A 
ATOM      2  C   UNL     1       1.503   9.084  18.790  0.00  0.00    +0.000 A 
ATOM      3  C   UNL     1       0.760  10.179  19.230  0.00  0.00    +0.000 A 
ATOM      4  C   UNL     1       0.319  10.244  20.556  0.00  0.00    +0.000 A 
ATOM      5  C   UNL     1      -0.500  11.366  21.072  0.00  0.00    +0.000 A 
ATOM      6  O   UNL     1      -0.828  12.325  20.385  0.00  0.00    +0.000 OA
ATOM      7  C   UNL     1      -0.916  11.273  22.493  0.00  0.00    +0.000 A 
ATOM      8  C   UNL     1      -0.499  10.223  23.209  0.00  0.00    +0.000 A 
ATOM      9  O   UNL     1       0.282   9.191  22.756  0.00  0.00    +0.000 OA
ATOM     10  C   UNL     1       0.657   9.208  21.434  0.00  0.00    +0.000 A 
ATOM     11  C   UNL     1       1.408   8.113  20.996  0.00  0.00    +0.000 A 
ENDROOT
BRANCH   7  12
ATOM     12  C   UNL     1      -1.768  12.296  23.106  0.00  0.00    +0.000 A 
ATOM     13  C   UNL     1      -3.098  12.006  23.434  0.00  0.00    +0.000 A 
ATOM     14  C   UNL     1      -3.905  12.978  24.030  0.00  0.00    +0.000 A 
ATOM     15  C   UNL     1      -3.376  14.238  24.293  0.00  0.00    +0.000 A 
ATOM     16  C   UNL     1      -2.057  14.541  23.970  0.00  0.00    +0.000 A 
ATOM     17  C   UNL     1      -1.252  13.571  23.374  0.00  0.00    +0.000 A 
BRANCH  15  18
ATOM     18  O   UNL     1      -4.128  15.216  24.873  0.00  0.00    +0.000 OA
ATOM     19  H   UNL     1      -4.991  14.840  25.110  0.00  0.00    +0.000 HD
ENDBRANCH  15  18
ENDBRANCH   7  12
BRANCH   3  20
ATOM     20  O   UNL     1       0.475  11.163  18.329  0.00  0.00    +0.000 OA
ATOM     21  H   UNL     1      -0.486  11.241  18.189  0.00  0.00    +0.000 HD
ENDBRANCH   3  20
BRANCH   1  22
ATOM     22  O   UNL     1       2.528   6.924  19.319  0.00  0.00    +0.000 OA
BRANCH  22  23
ATOM     23  C   UNL     1       2.146   5.737  20.019  0.00  0.00    +0.000 C 
BRANCH  23  24
ATOM     24  C   UNL     1       2.192   4.563  19.057  0.00  0.00    +0.000 C 
BRANCH  24  25
ATOM     25  C   UNL     1       2.995   4.902  17.798  0.00  0.00    +0.000 C 
BRANCH  25  30
ATOM     26  C   UNL     1       7.386   6.889  17.664  0.00  0.00    +0.000 C 
ATOM     27  N   UNL     1       6.636   5.642  17.582  0.00  0.00    +0.000 NA
ATOM     28  C   UNL     1       5.718   5.643  16.430  0.00  0.00    +0.000 C 
ATOM     29  C   UNL     1       4.900   4.332  16.353  0.00  0.00    +0.000 C 
ATOM     30  N   UNL     1       4.144   4.006  17.586  0.00  0.00    +0.000 NA
ATOM     31  C   UNL     1       5.095   4.056  18.723  0.00  0.00    +0.000 C 
ATOM     32  C   UNL     1       5.892   5.377  18.826  0.00  0.00    +0.000 C 
ENDBRANCH  25  30
ENDBRANCH  24  25
ENDBRANCH  23  24
ENDBRANCH  22  23
ENDBRANCH   1  22
TORSDOF 8
ENDMDL
MODEL 3
REMARK VINA RESULT:      -8.0      0.748      1.311
REMARK  Name = 
REMARK  9 active torsions:
REMARK  status: ('A' for Active; 'I' for Inactive)
REMARK    1  A    between atoms: C_1  and  N_2
REMARK    2  A    between atoms: N_5  and  C_6
REMARK    3  A    between atoms: C_6  and  C_7
REMARK    4  A    between atoms: C_7  and  C_8
REMARK    5  A    between atoms: C_8  and  O_9
REMARK    6  A    between atoms: O_9  and  C_10
REMARK    7  A    between atoms: C_12  and  O_13
REMARK    8  A    between atoms: C_17  and  C_18
REMARK    9  A    between atoms: C_21  and  O_22
REMARK                            x       y       z     vdW  Elec       q    Type
REMARK                         _______ _______ _______ _____ _____    ______ ____
ROOT
ATOM      1  C   UNL     1       1.753   8.249  19.247  0.00  0.00    +0.000 A 
ATOM      2  C   UNL     1       1.410   9.343  18.450  0.00  0.00    +0.000 A 
ATOM      3  C   UNL     1       0.689  10.410  18.983  0.00  0.00    +0.000 A 
ATOM      4  C   UNL     1       0.292  10.392  20.324  0.00  0.00    +0.000 A 
ATOM      5  C   UNL     1      -0.503  11.483  20.938  0.00  0.00    +0.000 A 
ATOM      6  O   UNL     1      -0.847  12.485  20.324  0.00  0.00    +0.000 OA
ATOM      7  C   UNL     1      -0.872  11.302  22.363  0.00  0.00    +0.000 A 
ATOM      8  C   UNL     1      -0.438  10.206  22.996  0.00  0.00    +0.000 A 
ATOM      9  O   UNL     1       0.321   9.202  22.453  0.00  0.00    +0.000 OA
ATOM     10  C   UNL     1       0.652   9.301  21.123  0.00  0.00    +0.000 A 
ATOM     11  C   UNL     1       1.381   8.234  20.591  0.00  0.00    +0.000 A 
ENDROOT
BRANCH   7  12
ATOM     12  C   UNL     1      -1.697  12.287  23.067  0.00  0.00    +0.000 A 
ATOM     13  C   UNL     1      -3.007  11.970  23.448  0.00  0.00    +0.000 A 
ATOM     14  C   UNL     1      -3.788  12.906  24.131  0.00  0.00    +0.000 A 
ATOM     15  C   UNL     1      -3.252  14.156  24.428  0.00  0.00    +0.000 A 
ATOM     16  C   UNL     1      -1.954  14.485  24.053  0.00  0.00    +0.000 A 
ATOM     17  C   UNL     1      -1.175  13.551  23.371  0.00  0.00    +0.000 A 
BRANCH  15  18
ATOM     18  O   UNL     1      -3.979  15.099  25.092  0.00  0.00    +0.000 OA
ATOM     19  H   UNL     1      -4.335  14.699  25.902  0.00  0.00    +0.000 HD
ENDBRANCH  15  18
ENDBRANCH   7  12
BRANCH   3  20
ATOM     20  O   UNL     1       0.381  11.451  18.156  0.00  0.00    +0.000 OA
ATOM     21  H   UNL     1       0.021  12.203  18.660  0.00  0.00    +0.000 HD
ENDBRANCH   3  20
BRANCH   1  22
ATOM     22  O   UNL     1       2.439   7.149  18.806  0.00  0.00    +0.000 OA
BRANCH  22  23
ATOM     23  C   UNL     1       3.388   7.412  17.769  0.00  0.00    +0.000 C 
BRANCH  23  24
ATOM     24  C   UNL     1       4.176   6.144  17.493  0.00  0.00    +0.000 C 
BRANCH  24  25
ATOM     25  C   UNL     1       4.409   5.338  18.775  0.00  0.00    +0.000 C 
BRANCH  25  30
ATOM     26  C   UNL     1       0.740   2.211  18.836  0.00  0.00    +0.000 C 
ATOM     27  N   UNL     1       2.176   2.364  18.643  0.00  0.00    +0.000 NA
ATOM     28  C   UNL     1       2.832   2.858  19.866  0.00  0.00    +0.000 C 
ATOM     29  C   UNL     1       4.354   3.047  19.661  0.00  0.00    +0.000 C 
ATOM     30  N   UNL     1       4.716   3.921  18.519  0.00  0.00    +0.000 NA
ATOM     31  C   UNL     1       4.004   3.414  17.321  0.00  0.00    +0.000 C 
ATOM     32  C   UNL     1       2.477   3.254  17.509  0.00  0.00    +0.000 C 
ENDBRANCH  25  30
ENDBRANCH  24  25
ENDBRANCH  23  24
ENDBRANCH  22  23
ENDBRANCH   1  22
TORSDOF 8
ENDMDL
MODEL 4
REMARK VINA RESULT:      -7.9      1.833      3.179
REMARK  Name = 
REMARK  9 active torsions:
REMARK  status: ('A' for Active; 'I' for Inactive)
REMARK    1  A    between atoms: C_1  and  N_2
REMARK    2  A    between atoms: N_5  and  C_6
REMARK    3  A    between atoms: C_6  and  C_7
REMARK    4  A    between atoms: C_7  and  C_8
REMARK    5  A    between atoms: C_8  and  O_9
REMARK    6  A    between atoms: O_9  and  C_10
REMARK    7  A    between atoms: C_12  and  O_13
REMARK    8  A    between atoms: C_17  and  C_18
REMARK    9  A    between atoms: C_21  and  O_22
REMARK                            x       y       z     vdW  Elec       q    Type
REMARK                         _______ _______ _______ _____ _____    ______ ____
ROOT
ATOM      1  C   UNL     1       1.816   8.240  19.255  0.00  0.00    +0.000 A 
ATOM      2  C   UNL     1       1.499   9.342  18.460  0.00  0.00    +0.000 A 
ATOM      3  C   UNL     1       0.782  10.414  18.987  0.00  0.00    +0.000 A 
ATOM      4  C   UNL     1       0.363  10.394  20.322  0.00  0.00    +0.000 A 
ATOM      5  C   UNL     1      -0.429  11.490  20.929  0.00  0.00    +0.000 A 
ATOM      6  O   UNL     1      -0.751  12.499  20.316  0.00  0.00    +0.000 OA
ATOM      7  C   UNL     1      -0.824  11.305  22.346  0.00  0.00    +0.000 A 
ATOM      8  C   UNL     1      -0.414  10.200  22.980  0.00  0.00    +0.000 A 
ATOM      9  O   UNL     1       0.342   9.190  22.443  0.00  0.00    +0.000 OA
ATOM     10  C   UNL     1       0.696   9.293  21.120  0.00  0.00    +0.000 A 
ATOM     11  C   UNL     1       1.422   8.221  20.593  0.00  0.00    +0.000 A 
ENDROOT
BRANCH   7  12
ATOM     12  C   UNL     1      -1.649  12.295  23.043  0.00  0.00    +0.000 A 
ATOM     13  C   UNL     1      -2.976  12.000  23.381  0.00  0.00    +0.000 A 
ATOM     14  C   UNL     1      -3.756  12.940  24.057  0.00  0.00    +0.000 A 
ATOM     15  C   UNL     1      -3.205  14.175  24.389  0.00  0.00    +0.000 A 
ATOM     16  C   UNL     1      -1.890  14.483  24.056  0.00  0.00    +0.000 A 
ATOM     17  C   UNL     1      -1.111  13.544  23.381  0.00  0.00    +0.000 A 
BRANCH  15  18
ATOM     18  O   UNL     1      -3.931  15.122  25.048  0.00  0.00    +0.000 OA
ATOM     19  H   UNL     1      -4.862  15.030  24.789  0.00  0.00    +0.000 HD
ENDBRANCH  15  18
ENDBRANCH   7  12
BRANCH   3  20
ATOM     20  O   UNL     1       0.500  11.464  18.162  0.00  0.00    +0.000 OA
ATOM     21  H   UNL     1      -0.176  12.045  18.554  0.00  0.00    +0.000 HD
ENDBRANCH   3  20
BRANCH   1  22
ATOM     22  O   UNL     1       2.495   7.134  18.819  0.00  0.00    +0.000 OA
BRANCH  22  23
ATOM     23  C   UNL     1       2.505   6.037  19.737  0.00  0.00    +0.000 C 
BRANCH  23  24
ATOM     24  C   UNL     1       3.866   5.367  19.687  0.00  0.00    +0.000 C 
BRANCH  24  25
ATOM     25  C   UNL     1       4.370   5.227  18.247  0.00  0.00    +0.000 C 
BRANCH  25  30
ATOM     26  C   UNL     1       6.653   4.522  14.060  0.00  0.00    +0.000 C 
ATOM     27  N   UNL     1       6.628   5.303  15.290  0.00  0.00    +0.000 NA
ATOM     28  C   UNL     1       6.834   4.448  16.472  0.00  0.00    +0.000 C 
ATOM     29  C   UNL     1       6.783   5.268  17.783  0.00  0.00    +0.000 C 
ATOM     30  N   UNL     1       5.546   6.065  17.962  0.00  0.00    +0.000 NA
ATOM     31  C   UNL     1       5.354   6.878  16.736  0.00  0.00    +0.000 C 
ATOM     32  C   UNL     1       5.372   6.061  15.423  0.00  0.00    +0.000 C 
ENDBRANCH  25  30
ENDBRANCH  24  25
ENDBRANCH  23  24
ENDBRANCH  22  23
ENDBRANCH   1  22
TORSDOF 8
ENDMDL
MODEL 5
REMARK VINA RESULT:      -7.8      3.703      8.904
REMARK  Name = 
REMARK  9 active torsions:
REMARK  status: ('A' for Active; 'I' for Inactive)
REMARK    1  A    between atoms: C_1  and  N_2
REMARK    2  A    between atoms: N_5  and  C_6
REMARK    3  A    between atoms: C_6  and  C_7
REMARK    4  A    between atoms: C_7  and  C_8
REMARK    5  A    between atoms: C_8  and  O_9
REMARK    6  A    between atoms: O_9  and  C_10
REMARK    7  A    between atoms: C_12  and  O_13
REMARK    8  A    between atoms: C_17  and  C_18
REMARK    9  A    between atoms: C_21  and  O_22
REMARK                            x       y       z     vdW  Elec       q    Type
REMARK                         _______ _______ _______ _____ _____    ______ ____
ROOT
ATOM      1  C   UNL     1       0.591  11.460  20.326  0.00  0.00    +0.000 A 
ATOM      2  C   UNL     1       1.165  11.514  19.055  0.00  0.00    +0.000 A 
ATOM      3  C   UNL     1       1.697  10.366  18.469  0.00  0.00    +0.000 A 
ATOM      4  C   UNL     1       1.670   9.147  19.153  0.00  0.00    +0.000 A 
ATOM      5  C   UNL     1       2.248   7.902  18.594  0.00  0.00    +0.000 A 
ATOM      6  O   UNL     1       2.768   7.846  17.487  0.00  0.00    +0.000 OA
ATOM      7  C   UNL     1       2.169   6.699  19.456  0.00  0.00    +0.000 A 
ATOM      8  C   UNL     1       1.557   6.806  20.642  0.00  0.00    +0.000 A 
ATOM      9  O   UNL     1       0.992   7.941  21.163  0.00  0.00    +0.000 OA
ATOM     10  C   UNL     1       1.079   9.095  20.421  0.00  0.00    +0.000 A 
ATOM     11  C   UNL     1       0.538  10.243  21.007  0.00  0.00    +0.000 A 
ENDROOT
BRANCH   7  12
ATOM     12  C   UNL     1       2.748   5.420  19.035  0.00  0.00    +0.000 A 
ATOM     13  C   UNL     1       4.035   5.055  19.449  0.00  0.00    +0.000 A 
ATOM     14  C   UNL     1       4.580   3.830  19.058  0.00  0.00    +0.000 A 
ATOM     15  C   UNL     1       3.833   2.976  18.251  0.00  0.00    +0.000 A 
ATOM     16  C   UNL     1       2.555   3.327  17.829  0.00  0.00    +0.000 A 
ATOM     17  C   UNL     1       2.011   4.550  18.220  0.00  0.00    +0.000 A 
BRANCH  15  18
ATOM     18  O   UNL     1       4.327   1.772  17.845  0.00  0.00    +0.000 OA
ATOM     19  H   UNL     1       3.682   1.361  17.247  0.00  0.00    +0.000 HD
ENDBRANCH  15  18
ENDBRANCH   7  12
BRANCH   3  20
ATOM     20  O   UNL     1       2.247  10.480  17.225  0.00  0.00    +0.000 OA
ATOM     21  H   UNL     1       3.206  10.643  17.280  0.00  0.00    +0.000 HD
ENDBRANCH   3  20
BRANCH   1  22
ATOM     22  O   UNL     1       0.064  12.536  20.989  0.00  0.00    +0.000 OA
BRANCH  22  23
ATOM     23  C   UNL     1      -0.763  13.386  20.189  0.00  0.00    +0.000 C 
BRANCH  23  24
ATOM     24  C   UNL     1      -2.140  12.758  20.069  0.00  0.00    +0.000 C 
BRANCH  24  25
ATOM     25  C   UNL     1      -2.409  12.266  18.644  0.00  0.00    +0.000 C 
BRANCH  25  30
ATOM     26  C   UNL     1      -3.067  10.139  14.368  0.00  0.00    +0.000 C 
ATOM     27  N   UNL     1      -3.404  10.102  15.785  0.00  0.00    +0.000 NA
ATOM     28  C   UNL     1      -4.125  11.319  16.197  0.00  0.00    +0.000 C 
ATOM     29  C   UNL     1      -4.464  11.297  17.706  0.00  0.00    +0.000 C 
ATOM     30  N   UNL     1      -3.295  11.091  18.595  0.00  0.00    +0.000 NA
ATOM     31  C   UNL     1      -2.576   9.883  18.121  0.00  0.00    +0.000 C 
ATOM     32  C   UNL     1      -2.206   9.913  16.620  0.00  0.00    +0.000 C 
ENDBRANCH  25  30
ENDBRANCH  24  25
ENDBRANCH  23  24
ENDBRANCH  22  23
ENDBRANCH   1  22
TORSDOF 8
ENDMDL
MODEL 6
REMARK VINA RESULT:      -7.7      1.285      1.760
REMARK  Name = 
REMARK  9 active torsions:
REMARK  status: ('A' for Active; 'I' for Inactive)
REMARK    1  A    between atoms: C_1  and  N_2
REMARK    2  A    between atoms: N_5  and  C_6
REMARK    3  A    between atoms: C_6  and  C_7
REMARK    4  A    between atoms: C_7  and  C_8
REMARK    5  A    between atoms: C_8  and  O_9
REMARK    6  A    between atoms: O_9  and  C_10
REMARK    7  A    between atoms: C_12  and  O_13
REMARK    8  A    between atoms: C_17  and  C_18
REMARK    9  A    between atoms: C_21  and  O_22
REMARK                            x       y       z     vdW  Elec       q    Type
REMARK                         _______ _______ _______ _____ _____    ______ ____
ROOT
ATOM      1  C   UNL     1       2.776   6.937  18.955  0.00  0.00    +0.000 A 
ATOM      2  C   UNL     1       2.692   7.950  17.998  0.00  0.00    +0.000 A 
ATOM      3  C   UNL     1       1.949   9.102  18.249  0.00  0.00    +0.000 A 
ATOM      4  C   UNL     1       1.270   9.253  19.463  0.00  0.00    +0.000 A 
ATOM      5  C   UNL     1       0.440  10.441  19.773  0.00  0.00    +0.000 A 
ATOM      6  O   UNL     1       0.308  11.383  19.002  0.00  0.00    +0.000 OA
ATOM      7  C   UNL     1      -0.242  10.437  21.090  0.00  0.00    +0.000 A 
ATOM      8  C   UNL     1      -0.035   9.399  21.909  0.00  0.00    +0.000 A 
ATOM      9  O   UNL     1       0.752   8.307  21.651  0.00  0.00    +0.000 OA
ATOM     10  C   UNL     1       1.370   8.242  20.425  0.00  0.00    +0.000 A 
ATOM     11  C   UNL     1       2.121   7.089  20.177  0.00  0.00    +0.000 A 
ENDROOT
BRANCH   7  12
ATOM     12  C   UNL     1      -1.129  11.532  21.492  0.00  0.00    +0.000 A 
ATOM     13  C   UNL     1      -1.099  12.022  22.803  0.00  0.00    +0.000 A 
ATOM     14  C   UNL     1      -1.935  13.075  23.181  0.00  0.00    +0.000 A 
ATOM     15  C   UNL     1      -2.802  13.630  22.244  0.00  0.00    +0.000 A 
ATOM     16  C   UNL     1      -2.845  13.151  20.938  0.00  0.00    +0.000 A 
ATOM     17  C   UNL     1      -2.010  12.100  20.561  0.00  0.00    +0.000 A 
BRANCH  15  18
ATOM     18  O   UNL     1      -3.636  14.658  22.570  0.00  0.00    +0.000 OA
ATOM     19  H   UNL     1      -4.342  14.704  21.906  0.00  0.00    +0.000 HD
ENDBRANCH  15  18
ENDBRANCH   7  12
BRANCH   3  20
ATOM     20  O   UNL     1       1.902  10.058  17.276  0.00  0.00    +0.000 OA
ATOM     21  H   UNL     1       2.794  10.255  16.938  0.00  0.00    +0.000 HD
ENDBRANCH   3  20
BRANCH   1  22
ATOM     22  O   UNL     1       3.462   5.763  18.789  0.00  0.00    +0.000 OA
BRANCH  22  23
ATOM     23  C   UNL     1       4.026   5.580  17.488  0.00  0.00    +0.000 C 
BRANCH  23  24
ATOM     24  C   UNL     1       3.697   4.179  17.004  0.00  0.00    +0.000 C 
BRANCH  24  25
ATOM     25  C   UNL     1       2.238   3.813  17.296  0.00  0.00    +0.000 C 
BRANCH  25  30
ATOM     26  C   UNL     1       2.101   3.122  22.065  0.00  0.00    +0.000 C 
ATOM     27  N   UNL     1       2.033   2.474  20.762  0.00  0.00    +0.000 NA
ATOM     28  C   UNL     1       3.289   2.648  20.011  0.00  0.00    +0.000 C 
ATOM     29  C   UNL     1       3.214   1.984  18.616  0.00  0.00    +0.000 C 
ATOM     30  N   UNL     1       2.074   2.433  17.781  0.00  0.00    +0.000 NA
ATOM     31  C   UNL     1       0.839   2.280  18.588  0.00  0.00    +0.000 C 
ATOM     32  C   UNL     1       0.894   2.969  19.971  0.00  0.00    +0.000 C 
ENDBRANCH  25  30
ENDBRANCH  24  25
ENDBRANCH  23  24
ENDBRANCH  22  23
ENDBRANCH   1  22
TORSDOF 8
ENDMDL
MODEL 7
REMARK VINA RESULT:      -7.7      0.938      1.900
REMARK  Name = 
REMARK  9 active torsions:
REMARK  status: ('A' for Active; 'I' for Inactive)
REMARK    1  A    between atoms: C_1  and  N_2
REMARK    2  A    between atoms: N_5  and  C_6
REMARK    3  A    between atoms: C_6  and  C_7
REMARK    4  A    between atoms: C_7  and  C_8
REMARK    5  A    between atoms: C_8  and  O_9
REMARK    6  A    between atoms: O_9  and  C_10
REMARK    7  A    between atoms: C_12  and  O_13
REMARK    8  A    between atoms: C_17  and  C_18
REMARK    9  A    between atoms: C_21  and  O_22
REMARK                            x       y       z     vdW  Elec       q    Type
REMARK                         _______ _______ _______ _____ _____    ______ ____
ROOT
ATOM      1  C   UNL     1       1.766   8.587  18.693  0.00  0.00    +0.000 A 
ATOM      2  C   UNL     1       2.011   8.173  20.003  0.00  0.00    +0.000 A 
ATOM      3  C   UNL     1       1.385   8.807  21.076  0.00  0.00    +0.000 A 
ATOM      4  C   UNL     1       0.510   9.875  20.850  0.00  0.00    +0.000 A 
ATOM      5  C   UNL     1      -0.159  10.607  21.951  0.00  0.00    +0.000 A 
ATOM      6  O   UNL     1      -0.013  10.317  23.131  0.00  0.00    +0.000 OA
ATOM      7  C   UNL     1      -1.033  11.736  21.550  0.00  0.00    +0.000 A 
ATOM      8  C   UNL     1      -1.186  11.988  20.245  0.00  0.00    +0.000 A 
ATOM      9  O   UNL     1      -0.598  11.303  19.213  0.00  0.00    +0.000 OA
ATOM     10  C   UNL     1       0.256  10.276  19.533  0.00  0.00    +0.000 A 
ATOM     11  C   UNL     1       0.878   9.636  18.457  0.00  0.00    +0.000 A 
ENDROOT
BRANCH   7  12
ATOM     12  C   UNL     1      -1.711  12.567  22.549  0.00  0.00    +0.000 A 
ATOM     13  C   UNL     1      -1.074  13.695  23.081  0.00  0.00    +0.000 A 
ATOM     14  C   UNL     1      -1.726  14.494  24.023  0.00  0.00    +0.000 A 
ATOM     15  C   UNL     1      -3.015  14.157  24.429  0.00  0.00    +0.000 A 
ATOM     16  C   UNL     1      -3.658  13.038  23.912  0.00  0.00    +0.000 A 
ATOM     17  C   UNL     1      -3.006  12.241  22.971  0.00  0.00    +0.000 A 
BRANCH  15  18
ATOM     18  O   UNL     1      -3.687  14.908  25.347  0.00  0.00    +0.000 OA
ATOM     19  H   UNL     1      -4.092  14.311  25.996  0.00  0.00    +0.000 HD
ENDBRANCH  15  18
ENDBRANCH   7  12
BRANCH   3  20
ATOM     20  O   UNL     1       1.664   8.360  22.334  0.00  0.00    +0.000 OA
ATOM     21  H   UNL     1       2.556   7.972  22.377  0.00  0.00    +0.000 HD
ENDBRANCH   3  20
BRANCH   1  22
ATOM     22  O   UNL     1       2.350   8.040  17.581  0.00  0.00    +0.000 OA
BRANCH  22  23
ATOM     23  C   UNL     1       3.622   7.428  17.814  0.00  0.00    +0.000 C 
BRANCH  23  24
ATOM     24  C   UNL     1       3.687   6.123  17.041  0.00  0.00    +0.000 C 
BRANCH  24  25
ATOM     25  C   UNL     1       4.008   4.942  17.962  0.00  0.00    +0.000 C 
BRANCH  25  30
ATOM     26  C   UNL     1       1.532   2.826  21.516  0.00  0.00    +0.000 C 
ATOM     27  N   UNL     1       1.874   2.769  20.101  0.00  0.00    +0.000 NA
ATOM     28  C   UNL     1       3.322   2.580  19.906  0.00  0.00    +0.000 C 
ATOM     29  C   UNL     1       3.695   2.545  18.406  0.00  0.00    +0.000 C 
ATOM     30  N   UNL     1       3.245   3.727  17.632  0.00  0.00    +0.000 NA
ATOM     31  C   UNL     1       1.795   3.906  17.888  0.00  0.00    +0.000 C 
ATOM     32  C   UNL     1       1.418   3.974  19.387  0.00  0.00    +0.000 C 
ENDBRANCH  25  30
ENDBRANCH  24  25
ENDBRANCH  23  24
ENDBRANCH  22  23
ENDBRANCH   1  22
TORSDOF 8
ENDMDL
MODEL 8
REMARK VINA RESULT:      -7.6      1.517      2.666
REMARK  Name = 
REMARK  9 active torsions:
REMARK  status: ('A' for Active; 'I' for Inactive)
REMARK    1  A    between atoms: C_1  and  N_2
REMARK    2  A    between atoms: N_5  and  C_6
REMARK    3  A    between atoms: C_6  and  C_7
REMARK    4  A    between atoms: C_7  and  C_8
REMARK    5  A    between atoms: C_8  and  O_9
REMARK    6  A    between atoms: O_9  and  C_10
REMARK    7  A    between atoms: C_12  and  O_13
REMARK    8  A    between atoms: C_17  and  C_18
REMARK    9  A    between atoms: C_21  and  O_22
REMARK                            x       y       z     vdW  Elec       q    Type
REMARK                         _______ _______ _______ _____ _____    ______ ____
ROOT
ATOM      1  C   UNL     1       1.776   8.188  19.665  0.00  0.00    +0.000 A 
ATOM      2  C   UNL     1       1.467   9.238  18.798  0.00  0.00    +0.000 A 
ATOM      3  C   UNL     1       0.724  10.330  19.243  0.00  0.00    +0.000 A 
ATOM      4  C   UNL     1       0.270  10.381  20.565  0.00  0.00    +0.000 A 
ATOM      5  C   UNL     1      -0.550  11.501  21.086  0.00  0.00    +0.000 A 
ATOM      6  O   UNL     1      -0.868  12.468  20.407  0.00  0.00    +0.000 OA
ATOM      7  C   UNL     1      -0.981  11.393  22.501  0.00  0.00    +0.000 A 
ATOM      8  C   UNL     1      -0.576  10.332  23.209  0.00  0.00    +0.000 A 
ATOM      9  O   UNL     1       0.206   9.303  22.752  0.00  0.00    +0.000 OA
ATOM     10  C   UNL     1       0.595   9.333  21.434  0.00  0.00    +0.000 A 
ATOM     11  C   UNL     1       1.346   8.241  20.991  0.00  0.00    +0.000 A 
ENDROOT
BRANCH   7  12
ATOM     12  C   UNL     1      -1.836  12.411  23.117  0.00  0.00    +0.000 A 
ATOM     13  C   UNL     1      -1.301  13.648  23.498  0.00  0.00    +0.000 A 
ATOM     14  C   UNL     1      -2.119  14.623  24.073  0.00  0.00    +0.000 A 
ATOM     15  C   UNL     1      -3.471  14.353  24.266  0.00  0.00    +0.000 A 
ATOM     16  C   UNL     1      -4.016  13.128  23.896  0.00  0.00    +0.000 A 
ATOM     17  C   UNL     1      -3.198  12.155  23.322  0.00  0.00    +0.000 A 
BRANCH  15  18
ATOM     18  O   UNL     1      -4.305  15.275  24.824  0.00  0.00    +0.000 OA
ATOM     19  H   UNL     1      -5.105  14.820  25.133  0.00  0.00    +0.000 HD
ENDBRANCH  15  18
ENDBRANCH   7  12
BRANCH   3  20
ATOM     20  O   UNL     1       0.453  11.325  18.350  0.00  0.00    +0.000 OA
ATOM     21  H   UNL     1       1.124  12.030  18.399  0.00  0.00    +0.000 HD
ENDBRANCH   3  20
BRANCH   1  22
ATOM     22  O   UNL     1       2.479   7.067  19.312  0.00  0.00    +0.000 OA
BRANCH  22  23
ATOM     23  C   UNL     1       2.009   5.854  19.906  0.00  0.00    +0.000 C 
BRANCH  23  24
ATOM     24  C   UNL     1       3.186   4.914  20.097  0.00  0.00    +0.000 C 
BRANCH  24  25
ATOM     25  C   UNL     1       4.448   5.449  19.414  0.00  0.00    +0.000 C 
BRANCH  25  30
ATOM     26  C   UNL     1       5.655   4.791  14.793  0.00  0.00    +0.000 C 
ATOM     27  N   UNL     1       5.883   4.346  16.162  0.00  0.00    +0.000 NA
ATOM     28  C   UNL     1       4.653   3.795  16.758  0.00  0.00    +0.000 C 
ATOM     29  C   UNL     1       4.882   3.345  18.220  0.00  0.00    +0.000 C 
ATOM     30  N   UNL     1       5.431   4.397  19.109  0.00  0.00    +0.000 NA
ATOM     31  C   UNL     1       6.641   4.952  18.454  0.00  0.00    +0.000 C 
ATOM     32  C   UNL     1       6.412   5.434  17.002  0.00  0.00    +0.000 C 
ENDBRANCH  25  30
ENDBRANCH  24  25
ENDBRANCH  23  24
ENDBRANCH  22  23
ENDBRANCH   1  22
TORSDOF 8
ENDMDL
MODEL 9
REMARK VINA RESULT:      -7.6      2.410      3.637
REMARK  Name = 
REMARK  9 active torsions:
REMARK  status: ('A' for Active; 'I' for Inactive)
REMARK    1  A    between atoms: C_1  and  N_2
REMARK    2  A    between atoms: N_5  and  C_6
REMARK    3  A    between atoms: C_6  and  C_7
REMARK    4  A    between atoms: C_7  and  C_8
REMARK    5  A    between atoms: C_8  and  O_9
REMARK    6  A    between atoms: O_9  and  C_10
REMARK    7  A    between atoms: C_12  and  O_13
REMARK    8  A    between atoms: C_17  and  C_18
REMARK    9  A    between atoms: C_21  and  O_22
REMARK                            x       y       z     vdW  Elec       q    Type
REMARK                         _______ _______ _______ _____ _____    ______ ____
ROOT
ATOM      1  C   UNL     1       3.919   6.286  18.399  0.00  0.00    +0.000 A 
ATOM      2  C   UNL     1       3.288   6.035  19.619  0.00  0.00    +0.000 A 
ATOM      3  C   UNL     1       2.303   6.897  20.098  0.00  0.00    +0.000 A 
ATOM      4  C   UNL     1       1.940   8.031  19.363  0.00  0.00    +0.000 A 
ATOM      5  C   UNL     1       0.922   8.999  19.837  0.00  0.00    +0.000 A 
ATOM      6  O   UNL     1       0.311   8.864  20.889  0.00  0.00    +0.000 OA
ATOM      7  C   UNL     1       0.673  10.167  18.958  0.00  0.00    +0.000 A 
ATOM      8  C   UNL     1       1.341  10.246  17.802  0.00  0.00    +0.000 A 
ATOM      9  O   UNL     1       2.264   9.347  17.335  0.00  0.00    +0.000 OA
ATOM     10  C   UNL     1       2.564   8.269  18.133  0.00  0.00    +0.000 A 
ATOM     11  C   UNL     1       3.547   7.401  17.649  0.00  0.00    +0.000 A 
ENDROOT
BRANCH   7  12
ATOM     12  C   UNL     1      -0.274  11.219  19.339  0.00  0.00    +0.000 A 
ATOM     13  C   UNL     1      -1.620  11.131  18.961  0.00  0.00    +0.000 A 
ATOM     14  C   UNL     1      -2.524  12.127  19.336  0.00  0.00    +0.000 A 
ATOM     15  C   UNL     1      -2.075  13.209  20.088  0.00  0.00    +0.000 A 
ATOM     16  C   UNL     1      -0.741  13.311  20.468  0.00  0.00    +0.000 A 
ATOM     17  C   UNL     1       0.162  12.316  20.093  0.00  0.00    +0.000 A 
BRANCH  15  18
ATOM     18  O   UNL     1      -2.923  14.204  20.475  0.00  0.00    +0.000 OA
ATOM     19  H   UNL     1      -2.983  14.853  19.756  0.00  0.00    +0.000 HD
ENDBRANCH  15  18
ENDBRANCH   7  12
BRANCH   3  20
ATOM     20  O   UNL     1       1.722   6.602  21.297  0.00  0.00    +0.000 OA
ATOM     21  H   UNL     1       1.203   5.779  21.241  0.00  0.00    +0.000 HD
ENDBRANCH   3  20
BRANCH   1  22
ATOM     22  O   UNL     1       4.910   5.509  17.861  0.00  0.00    +0.000 OA
BRANCH  22  23
ATOM     23  C   UNL     1       4.606   4.955  16.578  0.00  0.00    +0.000 C 
BRANCH  23  24
ATOM     24  C   UNL     1       4.165   3.514  16.759  0.00  0.00    +0.000 C 
BRANCH  24  25
ATOM     25  C   UNL     1       2.684   3.424  17.143  0.00  0.00    +0.000 C 
BRANCH  25  30
ATOM     26  C   UNL     1       2.200   3.283  21.937  0.00  0.00    +0.000 C 
ATOM     27  N   UNL     1       2.124   2.508  20.706  0.00  0.00    +0.000 NA
ATOM     28  C   UNL     1       3.430   2.448  20.027  0.00  0.00    +0.000 C 
ATOM     29  C   UNL     1       3.350   1.648  18.706  0.00  0.00    +0.000 C 
ATOM     30  N   UNL     1       2.322   2.135  17.754  0.00  0.00    +0.000 NA
ATOM     31  C   UNL     1       1.035   2.219  18.487  0.00  0.00    +0.000 C 
ATOM     32  C   UNL     1       1.101   3.045  19.793  0.00  0.00    +0.000 C 
ENDBRANCH  25  30
ENDBRANCH  24  25
ENDBRANCH  23  24
ENDBRANCH  22  23
ENDBRANCH   1  22
TORSDOF 8
ENDMDL
