MODEL 1
REMARK VINA RESULT:      -7.9      0.000      0.000
REMARK  Name = 
REMARK  5 active torsions:
REMARK  status: ('A' for Active; 'I' for Inactive)
REMARK    1  A    between atoms: C_1  and  O_2
REMARK    2  A    between atoms: O_2  and  C_3
REMARK    3  A    between atoms: C_8  and  C_9
REMARK    4  A    between atoms: C_16  and  C_17
REMARK    5  A    between atoms: N_21  and  C_22
REMARK                            x       y       z     vdW  Elec       q    Type
REMARK                         _______ _______ _______ _____ _____    ______ ____
ROOT
ATOM      1  C   UNL     1       4.688   4.750  16.240  0.00  0.00    +0.000 C 
ATOM      2  O   UNL     1       4.379   3.706  16.808  0.00  0.00    +0.000 OA
ATOM      3  N   UNL     1       4.250   6.011  16.600  0.00  0.00    +0.000 N 
ATOM      4  C   UNL     1       3.457   6.268  17.735  0.00  0.00    +0.000 A 
ATOM      5  C   UNL     1       3.043   7.569  17.990  0.00  0.00    +0.000 A 
ATOM      6  C   UNL     1       2.283   7.821  19.135  0.00  0.00    +0.000 A 
ATOM      7  C   UNL     1       1.960   6.770  19.991  0.00  0.00    +0.000 A 
ATOM      8  C   UNL     1       2.403   5.498  19.666  0.00  0.00    +0.000 A 
ATOM      9  N   UNL     1       3.136   5.258  18.561  0.00  0.00    +0.000 NA
ATOM     10  H   UNL     1       4.528   6.791  16.018  0.00  0.00    +0.000 HD
ENDROOT
BRANCH   1  16
ATOM     11  C   UNL     1       6.927   5.098  14.993  0.00  0.00    +0.000 A 
ATOM     12  C   UNL     1       7.653   4.896  13.805  0.00  0.00    +0.000 A 
ATOM     13  C   UNL     1       7.103   4.199  12.727  0.00  0.00    +0.000 A 
ATOM     14  C   UNL     1       5.813   3.700  12.806  0.00  0.00    +0.000 A 
ATOM     15  C   UNL     1       5.077   3.910  13.965  0.00  0.00    +0.000 A 
ATOM     16  C   UNL     1       5.611   4.614  15.070  0.00  0.00    +0.000 A 
BRANCH  11  18
ATOM     17  C   UNL     1       7.646   5.000  17.256  0.00  0.00    +0.000 C 
ATOM     18  O   UNL     1       7.440   5.774  16.074  0.00  0.00    +0.000 OA
ENDBRANCH  11  18
ENDBRANCH   1  16
BRANCH   8  19
ATOM     19  C   UNL     1       2.107   4.334  20.509  0.00  0.00    +0.000 A 
ATOM     20  N   UNL     1       2.498   4.163  21.764  0.00  0.00    +0.000 NA
ATOM     21  N   UNL     1       2.023   2.956  22.219  0.00  0.00    +0.000 NA
ATOM     22  C   UNL     1       1.352   2.404  21.239  0.00  0.00    +0.000 A 
ATOM     23  N   UNL     1       1.379   3.220  20.150  0.00  0.00    +0.000 N 
ATOM     24  C   UNL     1       0.747   2.922  18.893  0.00  0.00    +0.000 C 
ENDBRANCH   8  19
TORSDOF 3
ENDMDL
MODEL 2
REMARK VINA RESULT:      -7.9      3.364      7.586
REMARK  Name = 
REMARK  5 active torsions:
REMARK  status: ('A' for Active; 'I' for Inactive)
REMARK    1  A    between atoms: C_1  and  O_2
REMARK    2  A    between atoms: O_2  and  C_3
REMARK    3  A    between atoms: C_8  and  C_9
REMARK    4  A    between atoms: C_16  and  C_17
REMARK    5  A    between atoms: N_21  and  C_22
REMARK                            x       y       z     vdW  Elec       q    Type
REMARK                         _______ _______ _______ _____ _____    ______ ____
ROOT
ATOM      1  C   UNL     1       1.614   7.659  20.498  0.00  0.00    +0.000 C 
ATOM      2  O   UNL     1       2.597   7.942  19.819  0.00  0.00    +0.000 OA
ATOM      3  N   UNL     1       1.231   6.378  20.851  0.00  0.00    +0.000 N 
ATOM      4  C   UNL     1       1.984   5.227  20.548  0.00  0.00    +0.000 A 
ATOM      5  C   UNL     1       1.495   3.982  20.920  0.00  0.00    +0.000 A 
ATOM      6  C   UNL     1       2.262   2.848  20.645  0.00  0.00    +0.000 A 
ATOM      7  C   UNL     1       3.494   2.988  20.008  0.00  0.00    +0.000 A 
ATOM      8  C   UNL     1       3.912   4.263  19.661  0.00  0.00    +0.000 A 
ATOM      9  N   UNL     1       3.170   5.356  19.928  0.00  0.00    +0.000 NA
ATOM     10  H   UNL     1       0.367   6.269  21.366  0.00  0.00    +0.000 HD
ENDROOT
BRANCH   1  16
ATOM     11  C   UNL     1       0.214   9.806  20.151  0.00  0.00    +0.000 A 
ATOM     12  C   UNL     1      -0.529  10.835  20.758  0.00  0.00    +0.000 A 
ATOM     13  C   UNL     1      -0.735  10.863  22.140  0.00  0.00    +0.000 A 
ATOM     14  C   UNL     1      -0.195   9.875  22.945  0.00  0.00    +0.000 A 
ATOM     15  C   UNL     1       0.559   8.864  22.361  0.00  0.00    +0.000 A 
ATOM     16  C   UNL     1       0.783   8.814  20.965  0.00  0.00    +0.000 A 
BRANCH  11  18
ATOM     17  C   UNL     1      -0.694  10.043  17.967  0.00  0.00    +0.000 C 
ATOM     18  O   UNL     1       0.430   9.745  18.795  0.00  0.00    +0.000 OA
ENDBRANCH  11  18
ENDBRANCH   1  16
BRANCH   8  19
ATOM     19  C   UNL     1       5.192   4.503  18.986  0.00  0.00    +0.000 A 
ATOM     20  N   UNL     1       6.325   4.867  19.573  0.00  0.00    +0.000 NA
ATOM     21  N   UNL     1       7.304   4.988  18.615  0.00  0.00    +0.000 NA
ATOM     22  C   UNL     1       6.760   4.701  17.459  0.00  0.00    +0.000 A 
ATOM     23  N   UNL     1       5.445   4.398  17.635  0.00  0.00    +0.000 N 
ATOM     24  C   UNL     1       4.543   4.040  16.574  0.00  0.00    +0.000 C 
ENDBRANCH   8  19
TORSDOF 3
ENDMDL
MODEL 3
REMARK VINA RESULT:      -7.9      3.801      5.702
REMARK  Name = 
REMARK  5 active torsions:
REMARK  status: ('A' for Active; 'I' for Inactive)
REMARK    1  A    between atoms: C_1  and  O_2
REMARK    2  A    between atoms: O_2  and  C_3
REMARK    3  A    between atoms: C_8  and  C_9
REMARK    4  A    between atoms: C_16  and  C_17
REMARK    5  A    between atoms: N_21  and  C_22
REMARK                            x       y       z     vdW  Elec       q    Type
REMARK                         _______ _______ _______ _____ _____    ______ ____
ROOT
ATOM      1  C   UNL     1       2.194   5.808  19.571  0.00  0.00    +0.000 C 
ATOM      2  O   UNL     1       1.558   5.943  20.614  0.00  0.00    +0.000 OA
ATOM      3  N   UNL     1       2.403   6.801  18.633  0.00  0.00    +0.000 N 
ATOM      4  C   UNL     1       1.985   8.135  18.801  0.00  0.00    +0.000 A 
ATOM      5  C   UNL     1       2.216   9.050  17.782  0.00  0.00    +0.000 A 
ATOM      6  C   UNL     1       1.828  10.379  17.970  0.00  0.00    +0.000 A 
ATOM      7  C   UNL     1       1.222  10.756  19.167  0.00  0.00    +0.000 A 
ATOM      8  C   UNL     1       1.018   9.785  20.134  0.00  0.00    +0.000 A 
ATOM      9  N   UNL     1       1.394   8.503  19.951  0.00  0.00    +0.000 NA
ATOM     10  H   UNL     1       2.895   6.552  17.784  0.00  0.00    +0.000 HD
ENDROOT
BRANCH   1  16
ATOM     11  C   UNL     1       4.139   4.124  19.305  0.00  0.00    +0.000 A 
ATOM     12  C   UNL     1       4.514   2.794  19.042  0.00  0.00    +0.000 A 
ATOM     13  C   UNL     1       3.556   1.797  18.837  0.00  0.00    +0.000 A 
ATOM     14  C   UNL     1       2.207   2.108  18.879  0.00  0.00    +0.000 A 
ATOM     15  C   UNL     1       1.823   3.423  19.117  0.00  0.00    +0.000 A 
ATOM     16  C   UNL     1       2.774   4.450  19.326  0.00  0.00    +0.000 A 
BRANCH  11  18
ATOM     17  C   UNL     1       6.016   5.327  18.481  0.00  0.00    +0.000 C 
ATOM     18  O   UNL     1       5.055   5.127  19.518  0.00  0.00    +0.000 OA
ENDBRANCH  11  18
ENDBRANCH   1  16
BRANCH   8  19
ATOM     19  C   UNL     1       0.385  10.093  21.421  0.00  0.00    +0.000 A 
ATOM     20  N   UNL     1       0.743   9.603  22.601  0.00  0.00    +0.000 NA
ATOM     21  N   UNL     1      -0.080  10.127  23.569  0.00  0.00    +0.000 NA
ATOM     22  C   UNL     1      -0.930  10.925  22.973  0.00  0.00    +0.000 A 
ATOM     23  N   UNL     1      -0.686  10.934  21.634  0.00  0.00    +0.000 N 
ATOM     24  C   UNL     1      -1.436  11.699  20.675  0.00  0.00    +0.000 C 
ENDBRANCH   8  19
TORSDOF 3
ENDMDL
MODEL 4
REMARK VINA RESULT:      -7.9      3.137      7.546
REMARK  Name = 
REMARK  5 active torsions:
REMARK  status: ('A' for Active; 'I' for Inactive)
REMARK    1  A    between atoms: C_1  and  O_2
REMARK    2  A    between atoms: O_2  and  C_3
REMARK    3  A    between atoms: C_8  and  C_9
REMARK    4  A    between atoms: C_16  and  C_17
REMARK    5  A    between atoms: N_21  and  C_22
REMARK                            x       y       z     vdW  Elec       q    Type
REMARK                         _______ _______ _______ _____ _____    ______ ____
ROOT
ATOM      1  C   UNL     1       1.780   7.490  20.222  0.00  0.00    +0.000 C 
ATOM      2  O   UNL     1       2.461   7.666  19.215  0.00  0.00    +0.000 OA
ATOM      3  N   UNL     1       1.641   6.286  20.888  0.00  0.00    +0.000 N 
ATOM      4  C   UNL     1       2.345   5.117  20.543  0.00  0.00    +0.000 A 
ATOM      5  C   UNL     1       2.108   3.949  21.257  0.00  0.00    +0.000 A 
ATOM      6  C   UNL     1       2.835   2.802  20.930  0.00  0.00    +0.000 A 
ATOM      7  C   UNL     1       3.775   2.852  19.903  0.00  0.00    +0.000 A 
ATOM      8  C   UNL     1       3.951   4.051  19.231  0.00  0.00    +0.000 A 
ATOM      9  N   UNL     1       3.248   5.157  19.549  0.00  0.00    +0.000 NA
ATOM     10  H   UNL     1       1.004   6.253  21.674  0.00  0.00    +0.000 HD
ENDROOT
BRANCH   1  16
ATOM     11  C   UNL     1       0.486   9.715  19.971  0.00  0.00    +0.000 A 
ATOM     12  C   UNL     1      -0.149  10.785  20.628  0.00  0.00    +0.000 A 
ATOM     13  C   UNL     1      -0.249  10.826  22.020  0.00  0.00    +0.000 A 
ATOM     14  C   UNL     1       0.291   9.807  22.787  0.00  0.00    +0.000 A 
ATOM     15  C   UNL     1       0.939   8.754  22.153  0.00  0.00    +0.000 A 
ATOM     16  C   UNL     1       1.055   8.691  20.745  0.00  0.00    +0.000 A 
BRANCH  11  18
ATOM     17  C   UNL     1      -0.564  10.013  17.860  0.00  0.00    +0.000 C 
ATOM     18  O   UNL     1       0.596   9.641  18.603  0.00  0.00    +0.000 OA
ENDBRANCH  11  18
ENDBRANCH   1  16
BRANCH   8  19
ATOM     19  C   UNL     1       4.916   4.193  18.136  0.00  0.00    +0.000 A 
ATOM     20  N   UNL     1       4.760   3.741  16.899  0.00  0.00    +0.000 NA
ATOM     21  N   UNL     1       5.872   4.070  16.161  0.00  0.00    +0.000 NA
ATOM     22  C   UNL     1       6.693   4.714  16.953  0.00  0.00    +0.000 A 
ATOM     23  N   UNL     1       6.147   4.812  18.195  0.00  0.00    +0.000 N 
ATOM     24  C   UNL     1       6.780   5.454  19.315  0.00  0.00    +0.000 C 
ENDBRANCH   8  19
TORSDOF 3
ENDMDL
MODEL 5
REMARK VINA RESULT:      -7.9      3.219      7.132
REMARK  Name = 
REMARK  5 active torsions:
REMARK  status: ('A' for Active; 'I' for Inactive)
REMARK    1  A    between atoms: C_1  and  O_2
REMARK    2  A    between atoms: O_2  and  C_3
REMARK    3  A    between atoms: C_8  and  C_9
REMARK    4  A    between atoms: C_16  and  C_17
REMARK    5  A    between atoms: N_21  and  C_22
REMARK                            x       y       z     vdW  Elec       q    Type
REMARK                         _______ _______ _______ _____ _____    ______ ____
ROOT
ATOM      1  C   UNL     1       2.011   7.840  19.340  0.00  0.00    +0.000 C 
ATOM      2  O   UNL     1       2.971   7.963  18.583  0.00  0.00    +0.000 OA
ATOM      3  N   UNL     1       1.674   6.682  20.015  0.00  0.00    +0.000 N 
ATOM      4  C   UNL     1       2.452   5.509  19.991  0.00  0.00    +0.000 A 
ATOM      5  C   UNL     1       2.007   4.388  20.680  0.00  0.00    +0.000 A 
ATOM      6  C   UNL     1       2.801   3.239  20.678  0.00  0.00    +0.000 A 
ATOM      7  C   UNL     1       4.014   3.241  19.992  0.00  0.00    +0.000 A 
ATOM      8  C   UNL     1       4.388   4.395  19.322  0.00  0.00    +0.000 A 
ATOM      9  N   UNL     1       3.620   5.503  19.325  0.00  0.00    +0.000 NA
ATOM     10  H   UNL     1       0.824   6.688  20.565  0.00  0.00    +0.000 HD
ENDROOT
BRANCH   1  16
ATOM     11  C   UNL     1       0.755   9.608  20.749  0.00  0.00    +0.000 A 
ATOM     12  C   UNL     1      -0.065  10.751  20.740  0.00  0.00    +0.000 A 
ATOM     13  C   UNL     1      -0.449  11.360  19.542  0.00  0.00    +0.000 A 
ATOM     14  C   UNL     1      -0.035  10.834  18.330  0.00  0.00    +0.000 A 
ATOM     15  C   UNL     1       0.757   9.692  18.324  0.00  0.00    +0.000 A 
ATOM     16  C   UNL     1       1.158   9.057  19.523  0.00  0.00    +0.000 A 
BRANCH  11  18
ATOM     17  C   UNL     1       0.438   9.346  23.090  0.00  0.00    +0.000 C 
ATOM     18  O   UNL     1       1.156   8.989  21.909  0.00  0.00    +0.000 OA
ENDBRANCH  11  18
ENDBRANCH   1  16
BRANCH   8  19
ATOM     19  C   UNL     1       5.645   4.485  18.572  0.00  0.00    +0.000 A 
ATOM     20  N   UNL     1       6.847   4.695  19.092  0.00  0.00    +0.000 NA
ATOM     21  N   UNL     1       7.775   4.709  18.078  0.00  0.00    +0.000 NA
ATOM     22  C   UNL     1       7.132   4.511  16.954  0.00  0.00    +0.000 A 
ATOM     23  N   UNL     1       5.802   4.371  17.207  0.00  0.00    +0.000 N 
ATOM     24  C   UNL     1       4.800   4.146  16.201  0.00  0.00    +0.000 C 
ENDBRANCH   8  19
TORSDOF 3
ENDMDL
MODEL 6
REMARK VINA RESULT:      -7.7      4.265      6.575
REMARK  Name = 
REMARK  5 active torsions:
REMARK  status: ('A' for Active; 'I' for Inactive)
REMARK    1  A    between atoms: C_1  and  O_2
REMARK    2  A    between atoms: O_2  and  C_3
REMARK    3  A    between atoms: C_8  and  C_9
REMARK    4  A    between atoms: C_16  and  C_17
REMARK    5  A    between atoms: N_21  and  C_22
REMARK                            x       y       z     vdW  Elec       q    Type
REMARK                         _______ _______ _______ _____ _____    ______ ____
ROOT
ATOM      1  C   UNL     1       2.652   7.487  18.432  0.00  0.00    +0.000 C 
ATOM      2  O   UNL     1       2.589   8.498  17.736  0.00  0.00    +0.000 OA
ATOM      3  N   UNL     1       2.157   7.374  19.718  0.00  0.00    +0.000 N 
ATOM      4  C   UNL     1       1.427   8.389  20.365  0.00  0.00    +0.000 A 
ATOM      5  C   UNL     1       1.000   8.187  21.672  0.00  0.00    +0.000 A 
ATOM      6  C   UNL     1       0.249   9.186  22.296  0.00  0.00    +0.000 A 
ATOM      7  C   UNL     1      -0.056  10.354  21.601  0.00  0.00    +0.000 A 
ATOM      8  C   UNL     1       0.410  10.486  20.302  0.00  0.00    +0.000 A 
ATOM      9  N   UNL     1       1.136   9.521  19.702  0.00  0.00    +0.000 NA
ATOM     10  H   UNL     1       2.321   6.506  20.212  0.00  0.00    +0.000 HD
ENDROOT
BRANCH   1  16
ATOM     11  C   UNL     1       2.912   4.965  17.920  0.00  0.00    +0.000 A 
ATOM     12  C   UNL     1       3.673   3.968  17.283  0.00  0.00    +0.000 A 
ATOM     13  C   UNL     1       4.801   4.290  16.524  0.00  0.00    +0.000 A 
ATOM     14  C   UNL     1       5.200   5.610  16.395  0.00  0.00    +0.000 A 
ATOM     15  C   UNL     1       4.469   6.603  17.036  0.00  0.00    +0.000 A 
ATOM     16  C   UNL     1       3.325   6.302  17.811  0.00  0.00    +0.000 A 
BRANCH  11  18
ATOM     17  C   UNL     1       1.266   3.364  18.535  0.00  0.00    +0.000 C 
ATOM     18  O   UNL     1       1.794   4.684  18.669  0.00  0.00    +0.000 OA
ENDBRANCH  11  18
ENDBRANCH   1  16
BRANCH   8  19
ATOM     19  C   UNL     1       0.140  11.683  19.499  0.00  0.00    +0.000 A 
ATOM     20  N   UNL     1      -0.824  11.812  18.597  0.00  0.00    +0.000 NA
ATOM     21  N   UNL     1      -0.763  13.075  18.057  0.00  0.00    +0.000 NA
ATOM     22  C   UNL     1       0.234  13.700  18.632  0.00  0.00    +0.000 A 
ATOM     23  N   UNL     1       0.832  12.875  19.533  0.00  0.00    +0.000 N 
ATOM     24  C   UNL     1       1.966  13.235  20.341  0.00  0.00    +0.000 C 
ENDBRANCH   8  19
TORSDOF 3
ENDMDL
MODEL 7
REMARK VINA RESULT:      -7.7      4.245      6.395
REMARK  Name = 
REMARK  5 active torsions:
REMARK  status: ('A' for Active; 'I' for Inactive)
REMARK    1  A    between atoms: C_1  and  O_2
REMARK    2  A    between atoms: O_2  and  C_3
REMARK    3  A    between atoms: C_8  and  C_9
REMARK    4  A    between atoms: C_16  and  C_17
REMARK    5  A    between atoms: N_21  and  C_22
REMARK                            x       y       z     vdW  Elec       q    Type
REMARK                         _______ _______ _______ _____ _____    ______ ____
ROOT
ATOM      1  C   UNL     1       2.672   7.479  18.415  0.00  0.00    +0.000 C 
ATOM      2  O   UNL     1       2.620   8.497  17.729  0.00  0.00    +0.000 OA
ATOM      3  N   UNL     1       2.172   7.358  19.698  0.00  0.00    +0.000 N 
ATOM      4  C   UNL     1       1.450   8.373  20.354  0.00  0.00    +0.000 A 
ATOM      5  C   UNL     1       1.018   8.162  21.657  0.00  0.00    +0.000 A 
ATOM      6  C   UNL     1       0.274   9.161  22.289  0.00  0.00    +0.000 A 
ATOM      7  C   UNL     1      -0.018  10.339  21.605  0.00  0.00    +0.000 A 
ATOM      8  C   UNL     1       0.453  10.480  20.309  0.00  0.00    +0.000 A 
ATOM      9  N   UNL     1       1.171   9.514  19.701  0.00  0.00    +0.000 NA
ATOM     10  H   UNL     1       2.327   6.483  20.183  0.00  0.00    +0.000 HD
ENDROOT
BRANCH   1  16
ATOM     11  C   UNL     1       2.903   4.961  17.869  0.00  0.00    +0.000 A 
ATOM     12  C   UNL     1       3.658   3.963  17.226  0.00  0.00    +0.000 A 
ATOM     13  C   UNL     1       4.798   4.281  16.483  0.00  0.00    +0.000 A 
ATOM     14  C   UNL     1       5.215   5.597  16.377  0.00  0.00    +0.000 A 
ATOM     15  C   UNL     1       4.491   6.591  17.024  0.00  0.00    +0.000 A 
ATOM     16  C   UNL     1       3.335   6.294  17.784  0.00  0.00    +0.000 A 
BRANCH  11  18
ATOM     17  C   UNL     1       1.309   3.335  18.551  0.00  0.00    +0.000 C 
ATOM     18  O   UNL     1       1.774   4.684  18.602  0.00  0.00    +0.000 OA
ENDBRANCH  11  18
ENDBRANCH   1  16
BRANCH   8  19
ATOM     19  C   UNL     1       0.196  11.687  19.516  0.00  0.00    +0.000 A 
ATOM     20  N   UNL     1       0.925  12.795  19.527  0.00  0.00    +0.000 NA
ATOM     21  N   UNL     1       0.374  13.700  18.652  0.00  0.00    +0.000 NA
ATOM     22  C   UNL     1      -0.684  13.139  18.121  0.00  0.00    +0.000 A 
ATOM     23  N   UNL     1      -0.841  11.887  18.630  0.00  0.00    +0.000 N 
ATOM     24  C   UNL     1      -1.906  10.989  18.271  0.00  0.00    +0.000 C 
ENDBRANCH   8  19
TORSDOF 3
ENDMDL
MODEL 8
REMARK VINA RESULT:      -7.7      3.493      7.170
REMARK  Name = 
REMARK  5 active torsions:
REMARK  status: ('A' for Active; 'I' for Inactive)
REMARK    1  A    between atoms: C_1  and  O_2
REMARK    2  A    between atoms: O_2  and  C_3
REMARK    3  A    between atoms: C_8  and  C_9
REMARK    4  A    between atoms: C_16  and  C_17
REMARK    5  A    between atoms: N_21  and  C_22
REMARK                            x       y       z     vdW  Elec       q    Type
REMARK                         _______ _______ _______ _____ _____    ______ ____
ROOT
ATOM      1  C   UNL     1       1.616   7.956  20.339  0.00  0.00    +0.000 C 
ATOM      2  O   UNL     1       1.734   6.920  20.988  0.00  0.00    +0.000 OA
ATOM      3  N   UNL     1       2.254   8.223  19.142  0.00  0.00    +0.000 N 
ATOM      4  C   UNL     1       3.058   7.289  18.461  0.00  0.00    +0.000 A 
ATOM      5  C   UNL     1       3.680   7.668  17.279  0.00  0.00    +0.000 A 
ATOM      6  C   UNL     1       4.449   6.725  16.592  0.00  0.00    +0.000 A 
ATOM      7  C   UNL     1       4.574   5.435  17.102  0.00  0.00    +0.000 A 
ATOM      8  C   UNL     1       3.929   5.133  18.291  0.00  0.00    +0.000 A 
ATOM      9  N   UNL     1       3.187   6.044  18.952  0.00  0.00    +0.000 NA
ATOM     10  H   UNL     1       2.122   9.139  18.732  0.00  0.00    +0.000 HD
ENDROOT
BRANCH   1  16
ATOM     11  C   UNL     1      -0.034   9.943  20.194  0.00  0.00    +0.000 A 
ATOM     12  C   UNL     1      -0.832  10.861  20.901  0.00  0.00    +0.000 A 
ATOM     13  C   UNL     1      -0.926  10.820  22.294  0.00  0.00    +0.000 A 
ATOM     14  C   UNL     1      -0.217   9.871  23.012  0.00  0.00    +0.000 A 
ATOM     15  C   UNL     1       0.592   8.971  22.328  0.00  0.00    +0.000 A 
ATOM     16  C   UNL     1       0.705   8.994  20.918  0.00  0.00    +0.000 A 
BRANCH  11  18
ATOM     17  C   UNL     1      -1.102  10.317  18.104  0.00  0.00    +0.000 C 
ATOM     18  O   UNL     1       0.076   9.952  18.824  0.00  0.00    +0.000 OA
ENDBRANCH  11  18
ENDBRANCH   1  16
BRANCH   8  19
ATOM     19  C   UNL     1       4.008   3.802  18.901  0.00  0.00    +0.000 A 
ATOM     20  N   UNL     1       5.013   3.341  19.634  0.00  0.00    +0.000 NA
ATOM     21  N   UNL     1       4.723   2.058  20.032  0.00  0.00    +0.000 NA
ATOM     22  C   UNL     1       3.550   1.749  19.538  0.00  0.00    +0.000 A 
ATOM     23  N   UNL     1       3.065   2.799  18.821  0.00  0.00    +0.000 N 
ATOM     24  C   UNL     1       1.801   2.804  18.136  0.00  0.00    +0.000 C 
ENDBRANCH   8  19
TORSDOF 3
ENDMDL
MODEL 9
REMARK VINA RESULT:      -7.6      4.117      7.769
REMARK  Name = 
REMARK  5 active torsions:
REMARK  status: ('A' for Active; 'I' for Inactive)
REMARK    1  A    between atoms: C_1  and  O_2
REMARK    2  A    between atoms: O_2  and  C_3
REMARK    3  A    between atoms: C_8  and  C_9
REMARK    4  A    between atoms: C_16  and  C_17
REMARK    5  A    between atoms: N_21  and  C_22
REMARK                            x       y       z     vdW  Elec       q    Type
REMARK                         _______ _______ _______ _____ _____    ______ ____
ROOT
ATOM      1  C   UNL     1       0.508   9.160  20.704  0.00  0.00    +0.000 C 
ATOM      2  O   UNL     1       0.336   8.252  21.514  0.00  0.00    +0.000 OA
ATOM      3  N   UNL     1       1.339   9.096  19.601  0.00  0.00    +0.000 N 
ATOM      4  C   UNL     1       2.031   7.933  19.211  0.00  0.00    +0.000 A 
ATOM      5  C   UNL     1       2.867   7.983  18.103  0.00  0.00    +0.000 A 
ATOM      6  C   UNL     1       3.524   6.818  17.703  0.00  0.00    +0.000 A 
ATOM      7  C   UNL     1       3.329   5.638  18.419  0.00  0.00    +0.000 A 
ATOM      8  C   UNL     1       2.486   5.668  19.517  0.00  0.00    +0.000 A 
ATOM      9  N   UNL     1       1.852   6.794  19.901  0.00  0.00    +0.000 NA
ATOM     10  H   UNL     1       1.441   9.932  19.039  0.00  0.00    +0.000 HD
ENDROOT
BRANCH   1  16
ATOM     11  C   UNL     1      -0.823  11.259  19.985  0.00  0.00    +0.000 A 
ATOM     12  C   UNL     1      -1.496  12.422  20.401  0.00  0.00    +0.000 A 
ATOM     13  C   UNL     1      -1.637  12.734  21.756  0.00  0.00    +0.000 A 
ATOM     14  C   UNL     1      -1.098  11.901  22.722  0.00  0.00    +0.000 A 
ATOM     15  C   UNL     1      -0.412  10.760  22.325  0.00  0.00    +0.000 A 
ATOM     16  C   UNL     1      -0.255  10.423  20.960  0.00  0.00    +0.000 A 
BRANCH  11  18
ATOM     17  C   UNL     1      -1.864  10.540  17.973  0.00  0.00    +0.000 C 
ATOM     18  O   UNL     1      -0.672  10.919  18.662  0.00  0.00    +0.000 OA
ENDBRANCH  11  18
ENDBRANCH   1  16
BRANCH   8  19
ATOM     19  C   UNL     1       2.226   4.474  20.329  0.00  0.00    +0.000 A 
ATOM     20  N   UNL     1       2.522   4.327  21.613  0.00  0.00    +0.000 NA
ATOM     21  N   UNL     1       2.122   3.077  22.023  0.00  0.00    +0.000 NA
ATOM     22  C   UNL     1       1.590   2.476  20.988  0.00  0.00    +0.000 A 
ATOM     23  N   UNL     1       1.636   3.301  19.907  0.00  0.00    +0.000 N 
ATOM     24  C   UNL     1       1.143   2.960  18.600  0.00  0.00    +0.000 C 
ENDBRANCH   8  19
TORSDOF 3
ENDMDL
