MODEL 1
REMARK VINA RESULT:      -8.9      0.000      0.000
REMARK  Name = 
REMARK  6 active torsions:
REMARK  status: ('A' for Active; 'I' for Inactive)
REMARK    1  A    between atoms: N_10  and  C_11
REMARK    2  A    between atoms: C_11  and  C_12
REMARK    3  A    between atoms: C_16  and  C_17
REMARK    4  A    between atoms: C_17  and  N_18
REMARK    5  A    between atoms: N_18  and  C_19
REMARK    6  A    between atoms: C_19  and  C_20
REMARK                            x       y       z     vdW  Elec       q    Type
REMARK                         _______ _______ _______ _____ _____    ______ ____
ROOT
ATOM      1  C   UNL     1       4.651   4.318  17.384  0.00  0.00    +0.000 A 
ATOM      2  C   UNL     1       6.015   4.577  17.215  0.00  0.00    +0.000 A 
ATOM      3  C   UNL     1       6.490   5.890  17.177  0.00  0.00    +0.000 A 
ATOM      4  C   UNL     1       5.607   6.961  17.320  0.00  0.00    +0.000 A 
ATOM      5  C   UNL     1       4.240   6.726  17.527  0.00  0.00    +0.000 A 
ATOM      6  C   UNL     1       3.780   5.402  17.575  0.00  0.00    +0.000 A 
ENDROOT
BRANCH   1   7
ATOM      7  C   UNL     1       4.123   2.895  17.384  0.00  0.00    +0.000 C 
BRANCH   7  17
ATOM      8  O   UNL     1       4.865   2.381  20.177  0.00  0.00    +0.000 OA
ATOM      9  C   UNL     1       3.717   2.514  19.799  0.00  0.00    +0.000 C 
ATOM     10  C   UNL     1       2.501   2.573  20.725  0.00  0.00    +0.000 C 
ATOM     11  C   UNL     1       2.529   3.712  21.729  0.00  0.00    +0.000 C 
ATOM     12  C   UNL     1       1.898   4.869  20.956  0.00  0.00    +0.000 C 
ATOM     13  C   UNL     1       0.810   4.163  20.153  0.00  0.00    +0.000 C 
ATOM     14  N   UNL     1       1.437   2.903  19.789  0.00  0.00    +0.000 N 
ATOM     15  C   UNL     1       1.926   2.857  18.480  0.00  0.00    +0.000 C 
ATOM     16  O   UNL     1       1.256   3.107  17.486  0.00  0.00    +0.000 OA
ATOM     17  N   UNL     1       3.270   2.648  18.520  0.00  0.00    +0.000 N 
ENDBRANCH   7  17
ENDBRANCH   1   7
BRANCH   5  18
ATOM     18  C   UNL     1       3.257   7.872  17.624  0.00  0.00    +0.000 C 
BRANCH  18  19
ATOM     19  N   UNL     1       2.105   7.579  18.481  0.00  0.00    +0.000 NA
ATOM     20  H   UNL     1       2.306   6.729  19.005  0.00  0.00    +0.000 HD
BRANCH  19  21
ATOM     21  C   UNL     1       1.788   8.655  19.437  0.00  0.00    +0.000 C 
BRANCH  21  22
ATOM     22  C   UNL     1       1.081   9.922  18.887  0.00  0.00    +0.000 C 
ATOM     23  C   UNL     1       0.494  10.724  20.055  0.00  0.00    +0.000 C 
ATOM     24  C   UNL     1      -0.173  11.937  19.463  0.00  0.00    +0.000 C 
ATOM     25  C   UNL     1      -1.308  11.357  18.689  0.00  0.00    +0.000 A 
ATOM     26  C   UNL     1      -2.624  11.760  18.921  0.00  0.00    +0.000 A 
ATOM     27  C   UNL     1      -3.662  11.184  18.196  0.00  0.00    +0.000 A 
ATOM     28  C   UNL     1      -3.374  10.268  17.185  0.00  0.00    +0.000 A 
ATOM     29  C   UNL     1      -2.061   9.829  16.985  0.00  0.00    +0.000 A 
ATOM     30  C   UNL     1      -1.041  10.306  17.807  0.00  0.00    +0.000 A 
ATOM     31  O   UNL     1       0.164   9.640  17.798  0.00  0.00    +0.000 OA
ENDBRANCH  21  22
ENDBRANCH  19  21
ENDBRANCH  18  19
ENDBRANCH   5  18
TORSDOF 6
ENDMDL
MODEL 2
REMARK VINA RESULT:      -8.8      2.003      3.335
REMARK  Name = 
REMARK  6 active torsions:
REMARK  status: ('A' for Active; 'I' for Inactive)
REMARK    1  A    between atoms: N_10  and  C_11
REMARK    2  A    between atoms: C_11  and  C_12
REMARK    3  A    between atoms: C_16  and  C_17
REMARK    4  A    between atoms: C_17  and  N_18
REMARK    5  A    between atoms: N_18  and  C_19
REMARK    6  A    between atoms: C_19  and  C_20
REMARK                            x       y       z     vdW  Elec       q    Type
REMARK                         _______ _______ _______ _____ _____    ______ ____
ROOT
ATOM      1  C   UNL     1       3.325   6.323  18.015  0.00  0.00    +0.000 A 
ATOM      2  C   UNL     1       3.213   7.468  17.218  0.00  0.00    +0.000 A 
ATOM      3  C   UNL     1       2.531   8.594  17.684  0.00  0.00    +0.000 A 
ATOM      4  C   UNL     1       1.962   8.594  18.958  0.00  0.00    +0.000 A 
ATOM      5  C   UNL     1       2.091   7.472  19.789  0.00  0.00    +0.000 A 
ATOM      6  C   UNL     1       2.790   6.353  19.312  0.00  0.00    +0.000 A 
ENDROOT
BRANCH   1   7
ATOM      7  C   UNL     1       4.027   5.082  17.498  0.00  0.00    +0.000 C 
BRANCH   7  17
ATOM      8  O   UNL     1       5.216   3.652  19.768  0.00  0.00    +0.000 OA
ATOM      9  C   UNL     1       4.142   3.362  19.280  0.00  0.00    +0.000 C 
ATOM     10  C   UNL     1       3.185   2.312  19.846  0.00  0.00    +0.000 C 
ATOM     11  C   UNL     1       2.707   2.594  21.260  0.00  0.00    +0.000 C 
ATOM     12  C   UNL     1       1.481   3.478  21.040  0.00  0.00    +0.000 C 
ATOM     13  C   UNL     1       0.858   2.859  19.792  0.00  0.00    +0.000 C 
ATOM     14  N   UNL     1       2.018   2.491  18.996  0.00  0.00    +0.000 N 
ATOM     15  C   UNL     1       2.317   3.384  17.962  0.00  0.00    +0.000 C 
ATOM     16  O   UNL     1       1.516   3.734  17.104  0.00  0.00    +0.000 OA
ATOM     17  N   UNL     1       3.561   3.894  18.168  0.00  0.00    +0.000 N 
ENDBRANCH   7  17
ENDBRANCH   1   7
BRANCH   5  18
ATOM     18  C   UNL     1       1.431   7.428  21.149  0.00  0.00    +0.000 C 
BRANCH  18  19
ATOM     19  N   UNL     1       1.590   8.668  21.914  0.00  0.00    +0.000 NA
ATOM     20  H   UNL     1       2.063   9.348  21.322  0.00  0.00    +0.000 HD
BRANCH  19  21
ATOM     21  C   UNL     1       0.315   9.250  22.371  0.00  0.00    +0.000 C 
BRANCH  21  22
ATOM     22  C   UNL     1      -0.122  10.603  21.753  0.00  0.00    +0.000 C 
ATOM     23  C   UNL     1      -0.744  10.354  20.372  0.00  0.00    +0.000 C 
ATOM     24  C   UNL     1      -1.150  11.697  19.826  0.00  0.00    +0.000 C 
ATOM     25  C   UNL     1       0.155  12.391  19.623  0.00  0.00    +0.000 A 
ATOM     26  C   UNL     1       0.514  12.908  18.378  0.00  0.00    +0.000 A 
ATOM     27  C   UNL     1       1.748  13.531  18.217  0.00  0.00    +0.000 A 
ATOM     28  C   UNL     1       2.582  13.708  19.321  0.00  0.00    +0.000 A 
ATOM     29  C   UNL     1       2.242  13.147  20.558  0.00  0.00    +0.000 A 
ATOM     30  C   UNL     1       1.070  12.404  20.680  0.00  0.00    +0.000 A 
ATOM     31  O   UNL     1       0.915  11.617  21.798  0.00  0.00    +0.000 OA
ENDBRANCH  21  22
ENDBRANCH  19  21
ENDBRANCH  18  19
ENDBRANCH   5  18
TORSDOF 6
ENDMDL
MODEL 3
REMARK VINA RESULT:      -8.6      2.247      7.982
REMARK  Name = 
REMARK  6 active torsions:
REMARK  status: ('A' for Active; 'I' for Inactive)
REMARK    1  A    between atoms: N_10  and  C_11
REMARK    2  A    between atoms: C_11  and  C_12
REMARK    3  A    between atoms: C_16  and  C_17
REMARK    4  A    between atoms: C_17  and  N_18
REMARK    5  A    between atoms: N_18  and  C_19
REMARK    6  A    between atoms: C_19  and  C_20
REMARK                            x       y       z     vdW  Elec       q    Type
REMARK                         _______ _______ _______ _____ _____    ______ ____
ROOT
ATOM      1  C   UNL     1       2.019   8.343  18.318  0.00  0.00    +0.000 A 
ATOM      2  C   UNL     1       1.748   7.628  19.490  0.00  0.00    +0.000 A 
ATOM      3  C   UNL     1       2.562   6.561  19.876  0.00  0.00    +0.000 A 
ATOM      4  C   UNL     1       3.666   6.203  19.101  0.00  0.00    +0.000 A 
ATOM      5  C   UNL     1       3.979   6.926  17.942  0.00  0.00    +0.000 A 
ATOM      6  C   UNL     1       3.159   8.003  17.573  0.00  0.00    +0.000 A 
ENDROOT
BRANCH   1   7
ATOM      7  C   UNL     1       1.114   9.475  17.871  0.00  0.00    +0.000 C 
BRANCH   7  17
ATOM      8  O   UNL     1       2.818  11.865  17.890  0.00  0.00    +0.000 OA
ATOM      9  C   UNL     1       1.905  11.684  18.672  0.00  0.00    +0.000 C 
ATOM     10  C   UNL     1       1.414  12.717  19.687  0.00  0.00    +0.000 C 
ATOM     11  C   UNL     1       0.915  14.014  19.074  0.00  0.00    +0.000 C 
ATOM     12  C   UNL     1      -0.555  13.716  18.785  0.00  0.00    +0.000 C 
ATOM     13  C   UNL     1      -0.953  12.866  19.988  0.00  0.00    +0.000 C 
ATOM     14  N   UNL     1       0.233  12.059  20.225  0.00  0.00    +0.000 N 
ATOM     15  C   UNL     1       0.152  10.752  19.734  0.00  0.00    +0.000 C 
ATOM     16  O   UNL     1      -0.750   9.970  20.006  0.00  0.00    +0.000 OA
ATOM     17  N   UNL     1       1.134  10.569  18.809  0.00  0.00    +0.000 N 
ENDBRANCH   7  17
ENDBRANCH   1   7
BRANCH   5  18
ATOM     18  C   UNL     1       5.134   6.518  17.055  0.00  0.00    +0.000 C 
BRANCH  18  19
ATOM     19  N   UNL     1       4.855   5.327  16.247  0.00  0.00    +0.000 NA
ATOM     20  H   UNL     1       5.294   5.452  15.336  0.00  0.00    +0.000 HD
BRANCH  19  21
ATOM     21  C   UNL     1       5.356   4.075  16.842  0.00  0.00    +0.000 C 
BRANCH  21  22
ATOM     22  C   UNL     1       4.309   3.065  17.381  0.00  0.00    +0.000 C 
ATOM     23  C   UNL     1       2.906   3.508  16.949  0.00  0.00    +0.000 C 
ATOM     24  C   UNL     1       1.938   2.493  17.496  0.00  0.00    +0.000 C 
ATOM     25  C   UNL     1       2.045   2.681  18.972  0.00  0.00    +0.000 A 
ATOM     26  C   UNL     1       0.920   2.961  19.749  0.00  0.00    +0.000 A 
ATOM     27  C   UNL     1       1.057   3.152  21.121  0.00  0.00    +0.000 A 
ATOM     28  C   UNL     1       2.304   2.980  21.721  0.00  0.00    +0.000 A 
ATOM     29  C   UNL     1       3.439   2.747  20.936  0.00  0.00    +0.000 A 
ATOM     30  C   UNL     1       3.318   2.694  19.548  0.00  0.00    +0.000 A 
ATOM     31  O   UNL     1       4.467   2.775  18.794  0.00  0.00    +0.000 OA
ENDBRANCH  21  22
ENDBRANCH  19  21
ENDBRANCH  18  19
ENDBRANCH   5  18
TORSDOF 6
ENDMDL
MODEL 4
REMARK VINA RESULT:      -8.6      5.365      7.493
REMARK  Name = 
REMARK  6 active torsions:
REMARK  status: ('A' for Active; 'I' for Inactive)
REMARK    1  A    between atoms: N_10  and  C_11
REMARK    2  A    between atoms: C_11  and  C_12
REMARK    3  A    between atoms: C_16  and  C_17
REMARK    4  A    between atoms: C_17  and  N_18
REMARK    5  A    between atoms: N_18  and  C_19
REMARK    6  A    between atoms: C_19  and  C_20
REMARK                            x       y       z     vdW  Elec       q    Type
REMARK                         _______ _______ _______ _____ _____    ______ ____
ROOT
ATOM      1  C   UNL     1       5.951   4.784  18.167  0.00  0.00    +0.000 A 
ATOM      2  C   UNL     1       5.809   4.780  16.775  0.00  0.00    +0.000 A 
ATOM      3  C   UNL     1       6.495   5.709  15.989  0.00  0.00    +0.000 A 
ATOM      4  C   UNL     1       7.342   6.645  16.584  0.00  0.00    +0.000 A 
ATOM      5  C   UNL     1       7.529   6.645  17.974  0.00  0.00    +0.000 A 
ATOM      6  C   UNL     1       6.842   5.699  18.750  0.00  0.00    +0.000 A 
ENDROOT
BRANCH   1   7
ATOM      7  C   UNL     1       5.176   3.806  19.031  0.00  0.00    +0.000 C 
BRANCH   7  17
ATOM      8  O   UNL     1       3.389   1.776  17.892  0.00  0.00    +0.000 OA
ATOM      9  C   UNL     1       3.003   2.843  18.329  0.00  0.00    +0.000 C 
ATOM     10  C   UNL     1       1.533   3.238  18.482  0.00  0.00    +0.000 C 
ATOM     11  C   UNL     1       0.730   2.329  19.397  0.00  0.00    +0.000 C 
ATOM     12  C   UNL     1       0.956   2.943  20.777  0.00  0.00    +0.000 C 
ATOM     13  C   UNL     1       0.959   4.437  20.469  0.00  0.00    +0.000 C 
ATOM     14  N   UNL     1       1.643   4.505  19.188  0.00  0.00    +0.000 N 
ATOM     15  C   UNL     1       2.986   4.889  19.268  0.00  0.00    +0.000 C 
ATOM     16  O   UNL     1       3.377   5.907  19.823  0.00  0.00    +0.000 OA
ATOM     17  N   UNL     1       3.760   3.884  18.775  0.00  0.00    +0.000 N 
ENDBRANCH   7  17
ENDBRANCH   1   7
BRANCH   5  18
ATOM     18  C   UNL     1       8.394   7.688  18.645  0.00  0.00    +0.000 C 
BRANCH  18  19
ATOM     19  N   UNL     1       8.225   9.033  18.086  0.00  0.00    +0.000 NA
ATOM     20  H   UNL     1       7.233   9.261  18.103  0.00  0.00    +0.000 HD
BRANCH  19  21
ATOM     21  C   UNL     1       8.961  10.077  18.821  0.00  0.00    +0.000 C 
BRANCH  21  22
ATOM     22  C   UNL     1       9.669  11.179  17.991  0.00  0.00    +0.000 C 
ATOM     23  C   UNL     1      11.076  11.415  18.555  0.00  0.00    +0.000 C 
ATOM     24  C   UNL     1      11.712  12.487  17.711  0.00  0.00    +0.000 C 
ATOM     25  C   UNL     1      10.888  13.693  18.014  0.00  0.00    +0.000 A 
ATOM     26  C   UNL     1      11.471  14.868  18.490  0.00  0.00    +0.000 A 
ATOM     27  C   UNL     1      10.672  15.968  18.782  0.00  0.00    +0.000 A 
ATOM     28  C   UNL     1       9.303  15.917  18.519  0.00  0.00    +0.000 A 
ATOM     29  C   UNL     1       8.712  14.724  18.087  0.00  0.00    +0.000 A 
ATOM     30  C   UNL     1       9.497  13.584  17.928  0.00  0.00    +0.000 A 
ATOM     31  O   UNL     1       8.860  12.370  17.809  0.00  0.00    +0.000 OA
ENDBRANCH  21  22
ENDBRANCH  19  21
ENDBRANCH  18  19
ENDBRANCH   5  18
TORSDOF 6
ENDMDL
MODEL 5
REMARK VINA RESULT:      -8.6      1.477      2.203
REMARK  Name = 
REMARK  6 active torsions:
REMARK  status: ('A' for Active; 'I' for Inactive)
REMARK    1  A    between atoms: N_10  and  C_11
REMARK    2  A    between atoms: C_11  and  C_12
REMARK    3  A    between atoms: C_16  and  C_17
REMARK    4  A    between atoms: C_17  and  N_18
REMARK    5  A    between atoms: N_18  and  C_19
REMARK    6  A    between atoms: C_19  and  C_20
REMARK                            x       y       z     vdW  Elec       q    Type
REMARK                         _______ _______ _______ _____ _____    ______ ____
ROOT
ATOM      1  C   UNL     1       4.388   3.924  17.105  0.00  0.00    +0.000 A 
ATOM      2  C   UNL     1       5.166   4.202  15.976  0.00  0.00    +0.000 A 
ATOM      3  C   UNL     1       5.419   5.521  15.594  0.00  0.00    +0.000 A 
ATOM      4  C   UNL     1       4.907   6.580  16.344  0.00  0.00    +0.000 A 
ATOM      5  C   UNL     1       4.155   6.328  17.500  0.00  0.00    +0.000 A 
ATOM      6  C   UNL     1       3.919   4.998  17.878  0.00  0.00    +0.000 A 
ENDROOT
BRANCH   1   7
ATOM      7  C   UNL     1       4.074   2.494  17.501  0.00  0.00    +0.000 C 
BRANCH   7  17
ATOM      8  O   UNL     1       4.869   2.342  20.322  0.00  0.00    +0.000 OA
ATOM      9  C   UNL     1       3.718   2.468  19.954  0.00  0.00    +0.000 C 
ATOM     10  C   UNL     1       2.528   2.704  20.887  0.00  0.00    +0.000 C 
ATOM     11  C   UNL     1       2.626   3.970  21.721  0.00  0.00    +0.000 C 
ATOM     12  C   UNL     1       2.018   5.033  20.807  0.00  0.00    +0.000 C 
ATOM     13  C   UNL     1       0.884   4.267  20.133  0.00  0.00    +0.000 C 
ATOM     14  N   UNL     1       1.454   2.944  19.936  0.00  0.00    +0.000 N 
ATOM     15  C   UNL     1       1.907   2.697  18.636  0.00  0.00    +0.000 C 
ATOM     16  O   UNL     1       1.220   2.834  17.631  0.00  0.00    +0.000 OA
ATOM     17  N   UNL     1       3.243   2.441  18.677  0.00  0.00    +0.000 N 
ENDBRANCH   7  17
ENDBRANCH   1   7
BRANCH   5  18
ATOM     18  C   UNL     1       3.540   7.459  18.294  0.00  0.00    +0.000 C 
BRANCH  18  19
ATOM     19  N   UNL     1       2.263   7.928  17.746  0.00  0.00    +0.000 NA
ATOM     20  H   UNL     1       1.511   7.455  18.245  0.00  0.00    +0.000 HD
BRANCH  19  21
ATOM     21  C   UNL     1       2.065   9.384  17.867  0.00  0.00    +0.000 C 
BRANCH  21  22
ATOM     22  C   UNL     1       0.723   9.881  18.465  0.00  0.00    +0.000 C 
ATOM     23  C   UNL     1       0.822  11.384  18.755  0.00  0.00    +0.000 C 
ATOM     24  C   UNL     1      -0.504  11.808  19.328  0.00  0.00    +0.000 C 
ATOM     25  C   UNL     1      -0.555  11.091  20.635  0.00  0.00    +0.000 A 
ATOM     26  C   UNL     1      -0.744  11.783  21.833  0.00  0.00    +0.000 A 
ATOM     27  C   UNL     1      -0.765  11.087  23.037  0.00  0.00    +0.000 A 
ATOM     28  C   UNL     1      -0.681   9.694  23.032  0.00  0.00    +0.000 A 
ATOM     29  C   UNL     1      -0.445   9.007  21.837  0.00  0.00    +0.000 A 
ATOM     30  C   UNL     1      -0.285   9.720  20.650  0.00  0.00    +0.000 A 
ATOM     31  O   UNL     1       0.246   9.062  19.564  0.00  0.00    +0.000 OA
ENDBRANCH  21  22
ENDBRANCH  19  21
ENDBRANCH  18  19
ENDBRANCH   5  18
TORSDOF 6
ENDMDL
MODEL 6
REMARK VINA RESULT:      -8.5      4.675      6.749
REMARK  Name = 
REMARK  6 active torsions:
REMARK  status: ('A' for Active; 'I' for Inactive)
REMARK    1  A    between atoms: N_10  and  C_11
REMARK    2  A    between atoms: C_11  and  C_12
REMARK    3  A    between atoms: C_16  and  C_17
REMARK    4  A    between atoms: C_17  and  N_18
REMARK    5  A    between atoms: N_18  and  C_19
REMARK    6  A    between atoms: C_19  and  C_20
REMARK                            x       y       z     vdW  Elec       q    Type
REMARK                         _______ _______ _______ _____ _____    ______ ____
ROOT
ATOM      1  C   UNL     1       5.437   4.220  16.980  0.00  0.00    +0.000 A 
ATOM      2  C   UNL     1       5.543   4.361  15.592  0.00  0.00    +0.000 A 
ATOM      3  C   UNL     1       6.384   5.330  15.039  0.00  0.00    +0.000 A 
ATOM      4  C   UNL     1       7.140   6.160  15.867  0.00  0.00    +0.000 A 
ATOM      5  C   UNL     1       7.078   6.014  17.260  0.00  0.00    +0.000 A 
ATOM      6  C   UNL     1       6.237   5.029  17.801  0.00  0.00    +0.000 A 
ENDROOT
BRANCH   1   7
ATOM      7  C   UNL     1       4.492   3.200  17.588  0.00  0.00    +0.000 C 
BRANCH   7  17
ATOM      8  O   UNL     1       2.406   5.242  17.884  0.00  0.00    +0.000 OA
ATOM      9  C   UNL     1       2.842   4.587  18.811  0.00  0.00    +0.000 C 
ATOM     10  C   UNL     1       2.288   4.622  20.236  0.00  0.00    +0.000 C 
ATOM     11  C   UNL     1       0.830   4.211  20.353  0.00  0.00    +0.000 C 
ATOM     12  C   UNL     1       0.911   2.694  20.506  0.00  0.00    +0.000 C 
ATOM     13  C   UNL     1       2.154   2.523  21.373  0.00  0.00    +0.000 C 
ATOM     14  N   UNL     1       3.047   3.555  20.871  0.00  0.00    +0.000 N 
ATOM     15  C   UNL     1       4.035   3.092  19.997  0.00  0.00    +0.000 C 
ATOM     16  O   UNL     1       4.814   2.184  20.260  0.00  0.00    +0.000 OA
ATOM     17  N   UNL     1       3.876   3.701  18.791  0.00  0.00    +0.000 N 
ENDBRANCH   7  17
ENDBRANCH   1   7
BRANCH   5  18
ATOM     18  C   UNL     1       7.842   6.942  18.178  0.00  0.00    +0.000 C 
BRANCH  18  19
ATOM     19  N   UNL     1       7.941   8.313  17.667  0.00  0.00    +0.000 NA
ATOM     20  H   UNL     1       7.001   8.642  17.454  0.00  0.00    +0.000 HD
BRANCH  19  21
ATOM     21  C   UNL     1       8.566   9.254  18.614  0.00  0.00    +0.000 C 
BRANCH  21  22
ATOM     22  C   UNL     1       9.233  10.527  18.030  0.00  0.00    +0.000 C 
ATOM     23  C   UNL     1      10.212  11.105  19.060  0.00  0.00    +0.000 C 
ATOM     24  C   UNL     1      10.828  12.330  18.438  0.00  0.00    +0.000 C 
ATOM     25  C   UNL     1       9.676  13.270  18.323  0.00  0.00    +0.000 A 
ATOM     26  C   UNL     1       9.718  14.542  18.895  0.00  0.00    +0.000 A 
ATOM     27  C   UNL     1       8.618  15.386  18.788  0.00  0.00    +0.000 A 
ATOM     28  C   UNL     1       7.512  14.987  18.037  0.00  0.00    +0.000 A 
ATOM     29  C   UNL     1       7.450  13.695  17.504  0.00  0.00    +0.000 A 
ATOM     30  C   UNL     1       8.497  12.804  17.733  0.00  0.00    +0.000 A 
ATOM     31  O   UNL     1       8.282  11.470  17.473  0.00  0.00    +0.000 OA
ENDBRANCH  21  22
ENDBRANCH  19  21
ENDBRANCH  18  19
ENDBRANCH   5  18
TORSDOF 6
ENDMDL
MODEL 7
REMARK VINA RESULT:      -8.5      4.851      7.279
REMARK  Name = 
REMARK  6 active torsions:
REMARK  status: ('A' for Active; 'I' for Inactive)
REMARK    1  A    between atoms: N_10  and  C_11
REMARK    2  A    between atoms: C_11  and  C_12
REMARK    3  A    between atoms: C_16  and  C_17
REMARK    4  A    between atoms: C_17  and  N_18
REMARK    5  A    between atoms: N_18  and  C_19
REMARK    6  A    between atoms: C_19  and  C_20
REMARK                            x       y       z     vdW  Elec       q    Type
REMARK                         _______ _______ _______ _____ _____    ______ ____
ROOT
ATOM      1  C   UNL     1       4.736   4.651  17.373  0.00  0.00    +0.000 A 
ATOM      2  C   UNL     1       3.640   5.479  17.641  0.00  0.00    +0.000 A 
ATOM      3  C   UNL     1       3.799   6.865  17.716  0.00  0.00    +0.000 A 
ATOM      4  C   UNL     1       5.054   7.440  17.511  0.00  0.00    +0.000 A 
ATOM      5  C   UNL     1       6.159   6.634  17.205  0.00  0.00    +0.000 A 
ATOM      6  C   UNL     1       5.982   5.245  17.121  0.00  0.00    +0.000 A 
ENDROOT
BRANCH   1   7
ATOM      7  C   UNL     1       4.578   3.142  17.332  0.00  0.00    +0.000 C 
BRANCH   7  17
ATOM      8  O   UNL     1       5.203   2.929  20.192  0.00  0.00    +0.000 OA
ATOM      9  C   UNL     1       4.105   2.700  19.725  0.00  0.00    +0.000 C 
ATOM     10  C   UNL     1       2.853   2.404  20.554  0.00  0.00    +0.000 C 
ATOM     11  C   UNL     1       2.453   3.517  21.508  0.00  0.00    +0.000 C 
ATOM     12  C   UNL     1       1.570   4.413  20.641  0.00  0.00    +0.000 C 
ATOM     13  C   UNL     1       0.816   3.395  19.790  0.00  0.00    +0.000 C 
ATOM     14  N   UNL     1       1.822   2.379  19.528  0.00  0.00    +0.000 N 
ATOM     15  C   UNL     1       2.411   2.459  18.262  0.00  0.00    +0.000 C 
ATOM     16  O   UNL     1       1.782   2.475  17.212  0.00  0.00    +0.000 OA
ATOM     17  N   UNL     1       3.747   2.668  18.411  0.00  0.00    +0.000 N 
ENDBRANCH   7  17
ENDBRANCH   1   7
BRANCH   5  18
ATOM     18  C   UNL     1       7.539   7.231  17.039  0.00  0.00    +0.000 C 
BRANCH  18  19
ATOM     19  N   UNL     1       8.016   7.937  18.232  0.00  0.00    +0.000 NA
ATOM     20  H   UNL     1       8.921   7.549  18.490  0.00  0.00    +0.000 HD
BRANCH  19  21
ATOM     21  C   UNL     1       8.165   9.391  18.041  0.00  0.00    +0.000 C 
BRANCH  21  22
ATOM     22  C   UNL     1       9.431  10.068  18.625  0.00  0.00    +0.000 C 
ATOM     23  C   UNL     1       9.075  10.755  19.950  0.00  0.00    +0.000 C 
ATOM     24  C   UNL     1      10.338  11.389  20.468  0.00  0.00    +0.000 C 
ATOM     25  C   UNL     1      10.624  12.453  19.462  0.00  0.00    +0.000 A 
ATOM     26  C   UNL     1      10.771  13.787  19.841  0.00  0.00    +0.000 A 
ATOM     27  C   UNL     1      11.015  14.758  18.875  0.00  0.00    +0.000 A 
ATOM     28  C   UNL     1      11.194  14.379  17.545  0.00  0.00    +0.000 A 
ATOM     29  C   UNL     1      10.999  13.049  17.159  0.00  0.00    +0.000 A 
ATOM     30  C   UNL     1      10.618  12.103  18.108  0.00  0.00    +0.000 A 
ATOM     31  O   UNL     1      10.137  10.893  17.662  0.00  0.00    +0.000 OA
ENDBRANCH  21  22
ENDBRANCH  19  21
ENDBRANCH  18  19
ENDBRANCH   5  18
TORSDOF 6
ENDMDL
MODEL 8
REMARK VINA RESULT:      -8.5      1.918      3.528
REMARK  Name = 
REMARK  6 active torsions:
REMARK  status: ('A' for Active; 'I' for Inactive)
REMARK    1  A    between atoms: N_10  and  C_11
REMARK    2  A    between atoms: C_11  and  C_12
REMARK    3  A    between atoms: C_16  and  C_17
REMARK    4  A    between atoms: C_17  and  N_18
REMARK    5  A    between atoms: N_18  and  C_19
REMARK    6  A    between atoms: C_19  and  C_20
REMARK                            x       y       z     vdW  Elec       q    Type
REMARK                         _______ _______ _______ _____ _____    ______ ____
ROOT
ATOM      1  C   UNL     1       2.590   6.999  18.635  0.00  0.00    +0.000 A 
ATOM      2  C   UNL     1       2.213   6.665  19.940  0.00  0.00    +0.000 A 
ATOM      3  C   UNL     1       1.528   7.583  20.739  0.00  0.00    +0.000 A 
ATOM      4  C   UNL     1       1.199   8.843  20.237  0.00  0.00    +0.000 A 
ATOM      5  C   UNL     1       1.534   9.188  18.921  0.00  0.00    +0.000 A 
ATOM      6  C   UNL     1       2.212   8.251  18.126  0.00  0.00    +0.000 A 
ENDROOT
BRANCH   1   7
ATOM      7  C   UNL     1       3.373   6.023  17.777  0.00  0.00    +0.000 C 
BRANCH   7  17
ATOM      8  O   UNL     1       4.992   4.441  19.645  0.00  0.00    +0.000 OA
ATOM      9  C   UNL     1       3.945   4.051  19.167  0.00  0.00    +0.000 C 
ATOM     10  C   UNL     1       3.240   2.752  19.560  0.00  0.00    +0.000 C 
ATOM     11  C   UNL     1       2.850   2.667  21.026  0.00  0.00    +0.000 C 
ATOM     12  C   UNL     1       1.473   3.329  21.054  0.00  0.00    +0.000 C 
ATOM     13  C   UNL     1       0.859   2.850  19.743  0.00  0.00    +0.000 C 
ATOM     14  N   UNL     1       1.989   2.864  18.828  0.00  0.00    +0.000 N 
ATOM     15  C   UNL     1       2.033   3.975  17.980  0.00  0.00    +0.000 C 
ATOM     16  O   UNL     1       1.110   4.324  17.255  0.00  0.00    +0.000 OA
ATOM     17  N   UNL     1       3.183   4.663  18.217  0.00  0.00    +0.000 N 
ENDBRANCH   7  17
ENDBRANCH   1   7
BRANCH   5  18
ATOM     18  C   UNL     1       1.241  10.569  18.377  0.00  0.00    +0.000 C 
BRANCH  18  19
ATOM     19  N   UNL     1       0.744  11.502  19.393  0.00  0.00    +0.000 NA
ATOM     20  H   UNL     1       1.491  12.159  19.612  0.00  0.00    +0.000 HD
BRANCH  19  21
ATOM     21  C   UNL     1      -0.444  12.264  18.967  0.00  0.00    +0.000 C 
BRANCH  21  22
ATOM     22  C   UNL     1      -1.778  11.489  18.810  0.00  0.00    +0.000 C 
ATOM     23  C   UNL     1      -2.116  11.357  17.319  0.00  0.00    +0.000 C 
ATOM     24  C   UNL     1      -3.413  10.598  17.230  0.00  0.00    +0.000 C 
ATOM     25  C   UNL     1      -4.399  11.534  17.842  0.00  0.00    +0.000 A 
ATOM     26  C   UNL     1      -5.538  11.943  17.147  0.00  0.00    +0.000 A 
ATOM     27  C   UNL     1      -6.427  12.834  17.739  0.00  0.00    +0.000 A 
ATOM     28  C   UNL     1      -6.217  13.247  19.055  0.00  0.00    +0.000 A 
ATOM     29  C   UNL     1      -5.052  12.875  19.733  0.00  0.00    +0.000 A 
ATOM     30  C   UNL     1      -4.096  12.095  19.086  0.00  0.00    +0.000 A 
ATOM     31  O   UNL     1      -2.843  12.004  19.649  0.00  0.00    +0.000 OA
ENDBRANCH  21  22
ENDBRANCH  19  21
ENDBRANCH  18  19
ENDBRANCH   5  18
TORSDOF 6
ENDMDL
MODEL 9
REMARK VINA RESULT:      -8.4      1.756      3.918
REMARK  Name = 
REMARK  6 active torsions:
REMARK  status: ('A' for Active; 'I' for Inactive)
REMARK    1  A    between atoms: N_10  and  C_11
REMARK    2  A    between atoms: C_11  and  C_12
REMARK    3  A    between atoms: C_16  and  C_17
REMARK    4  A    between atoms: C_17  and  N_18
REMARK    5  A    between atoms: N_18  and  C_19
REMARK    6  A    between atoms: C_19  and  C_20
REMARK                            x       y       z     vdW  Elec       q    Type
REMARK                         _______ _______ _______ _____ _____    ______ ____
ROOT
ATOM      1  C   UNL     1       3.493   3.948  19.811  0.00  0.00    +0.000 A 
ATOM      2  C   UNL     1       2.364   3.178  20.115  0.00  0.00    +0.000 A 
ATOM      3  C   UNL     1       1.150   3.793  20.431  0.00  0.00    +0.000 A 
ATOM      4  C   UNL     1       1.047   5.184  20.435  0.00  0.00    +0.000 A 
ATOM      5  C   UNL     1       2.154   5.976  20.099  0.00  0.00    +0.000 A 
ATOM      6  C   UNL     1       3.363   5.344  19.772  0.00  0.00    +0.000 A 
ENDROOT
BRANCH   1   7
ATOM      7  C   UNL     1       4.825   3.288  19.509  0.00  0.00    +0.000 C 
BRANCH   7  17
ATOM      8  O   UNL     1       4.257   3.278  16.630  0.00  0.00    +0.000 OA
ATOM      9  C   UNL     1       5.114   3.970  17.144  0.00  0.00    +0.000 C 
ATOM     10  C   UNL     1       5.929   5.033  16.406  0.00  0.00    +0.000 C 
ATOM     11  C   UNL     1       5.099   6.146  15.788  0.00  0.00    +0.000 C 
ATOM     12  C   UNL     1       4.968   7.152  16.930  0.00  0.00    +0.000 C 
ATOM     13  C   UNL     1       6.340   7.068  17.593  0.00  0.00    +0.000 C 
ATOM     14  N   UNL     1       6.661   5.652  17.500  0.00  0.00    +0.000 N 
ATOM     15  C   UNL     1       6.449   4.932  18.680  0.00  0.00    +0.000 C 
ATOM     16  O   UNL     1       6.928   5.234  19.765  0.00  0.00    +0.000 OA
ATOM     17  N   UNL     1       5.521   3.965  18.444  0.00  0.00    +0.000 N 
ENDBRANCH   7  17
ENDBRANCH   1   7
BRANCH   5  18
ATOM     18  C   UNL     1       2.080   7.485  20.156  0.00  0.00    +0.000 C 
BRANCH  18  19
ATOM     19  N   UNL     1       0.881   7.985  20.835  0.00  0.00    +0.000 NA
ATOM     20  H   UNL     1       0.704   7.392  21.643  0.00  0.00    +0.000 HD
BRANCH  19  21
ATOM     21  C   UNL     1       0.997   9.381  21.293  0.00  0.00    +0.000 C 
BRANCH  21  22
ATOM     22  C   UNL     1       0.421  10.491  20.375  0.00  0.00    +0.000 C 
ATOM     23  C   UNL     1      -0.724  11.208  21.101  0.00  0.00    +0.000 C 
ATOM     24  C   UNL     1      -1.238  12.270  20.166  0.00  0.00    +0.000 C 
ATOM     25  C   UNL     1      -1.828  11.482  19.046  0.00  0.00    +0.000 A 
ATOM     26  C   UNL     1      -3.157  11.656  18.660  0.00  0.00    +0.000 A 
ATOM     27  C   UNL     1      -3.683  10.890  17.624  0.00  0.00    +0.000 A 
ATOM     28  C   UNL     1      -2.854  10.013  16.924  0.00  0.00    +0.000 A 
ATOM     29  C   UNL     1      -1.535   9.804  17.342  0.00  0.00    +0.000 A 
ATOM     30  C   UNL     1      -1.054  10.472  18.467  0.00  0.00    +0.000 A 
ATOM     31  O   UNL     1       0.118  10.026  19.034  0.00  0.00    +0.000 OA
ENDBRANCH  21  22
ENDBRANCH  19  21
ENDBRANCH  18  19
ENDBRANCH   5  18
TORSDOF 6
ENDMDL
