MODEL 1
REMARK VINA RESULT:      -8.6      0.000      0.000
REMARK  Name = 
REMARK  8 active torsions:
REMARK  status: ('A' for Active; 'I' for Inactive)
REMARK    1  A    between atoms: C_1  and  O_2
REMARK    2  A    between atoms: O_2  and  C_3
REMARK    3  A    between atoms: C_6  and  C_7
REMARK    4  A    between atoms: C_7  and  N_8
REMARK    5  A    between atoms: N_8  and  C_9
REMARK    6  A    between atoms: C_15  and  C_16
REMARK    7  A    between atoms: C_22  and  O_23
REMARK    8  A    between atoms: O_23  and  C_24
REMARK                            x       y       z     vdW  Elec       q    Type
REMARK                         _______ _______ _______ _____ _____    ______ ____
ROOT
ATOM      1  C   UNL     1       5.687   4.327  17.259  0.00  0.00    +0.000 A 
ATOM      2  N   UNL     1       6.280   5.249  18.057  0.00  0.00    +0.000 NA
ATOM      3  C   UNL     1       7.178   6.101  17.525  0.00  0.00    +0.000 A 
ATOM      4  N   UNL     1       7.582   6.187  16.249  0.00  0.00    +0.000 NA
ATOM      5  C   UNL     1       6.980   5.262  15.490  0.00  0.00    +0.000 A 
ATOM      6  N   UNL     1       7.197   5.109  14.150  0.00  0.00    +0.000 N 
ATOM      7  C   UNL     1       6.432   4.076  13.664  0.00  0.00    +0.000 A 
ATOM      8  C   UNL     1       5.724   3.554  14.737  0.00  0.00    +0.000 A 
ATOM      9  C   UNL     1       6.054   4.316  15.897  0.00  0.00    +0.000 A 
ATOM     10  H   UNL     1       7.831   5.688  13.613  0.00  0.00    +0.000 HD
ENDROOT
BRANCH   7  11
ATOM     11  C   UNL     1       6.461   3.711  12.229  0.00  0.00    +0.000 C 
ATOM     12  F   UNL     1       6.952   2.458  12.044  0.00  0.00    +0.000 F 
ATOM     13  F   UNL     1       5.228   3.741  11.674  0.00  0.00    +0.000 F 
ATOM     14  F   UNL     1       7.247   4.553  11.516  0.00  0.00    +0.000 F 
ENDBRANCH   7  11
BRANCH   1  15
ATOM     15  N   UNL     1       4.789   3.411  17.789  0.00  0.00    +0.000 N 
ATOM     16  H   UNL     1       5.066   2.447  17.666  0.00  0.00    +0.000 HD
BRANCH  15  17
ATOM     17  C   UNL     1       3.359   3.653  17.612  0.00  0.00    +0.000 C 
BRANCH  17  21
ATOM     18  C   UNL     1       1.879   6.740  20.296  0.00  0.00    +0.000 A 
ATOM     19  C   UNL     1       2.168   7.041  18.970  0.00  0.00    +0.000 A 
ATOM     20  C   UNL     1       2.644   6.056  18.104  0.00  0.00    +0.000 A 
ATOM     21  C   UNL     1       2.846   4.738  18.549  0.00  0.00    +0.000 A 
ATOM     22  C   UNL     1       2.529   4.428  19.887  0.00  0.00    +0.000 A 
ATOM     23  C   UNL     1       2.057   5.432  20.752  0.00  0.00    +0.000 A 
BRANCH  18  25
ATOM     24  C   UNL     1       1.085   8.983  20.326  0.00  0.00    +0.000 C 
ATOM     25  O   UNL     1       1.418   7.793  21.033  0.00  0.00    +0.000 OA
ENDBRANCH  18  25
BRANCH  22  26
ATOM     26  O   UNL     1       2.701   3.117  20.268  0.00  0.00    +0.000 OA
ATOM     27  C   UNL     1       2.237   2.749  21.566  0.00  0.00    +0.000 C 
ENDBRANCH  22  26
ENDBRANCH  17  21
ENDBRANCH  15  17
ENDBRANCH   1  15
TORSDOF 6
ENDMDL
MODEL 2
REMARK VINA RESULT:      -7.7      1.054      2.062
REMARK  Name = 
REMARK  8 active torsions:
REMARK  status: ('A' for Active; 'I' for Inactive)
REMARK    1  A    between atoms: C_1  and  O_2
REMARK    2  A    between atoms: O_2  and  C_3
REMARK    3  A    between atoms: C_6  and  C_7
REMARK    4  A    between atoms: C_7  and  N_8
REMARK    5  A    between atoms: N_8  and  C_9
REMARK    6  A    between atoms: C_15  and  C_16
REMARK    7  A    between atoms: C_22  and  O_23
REMARK    8  A    between atoms: O_23  and  C_24
REMARK                            x       y       z     vdW  Elec       q    Type
REMARK                         _______ _______ _______ _____ _____    ______ ____
ROOT
ATOM      1  C   UNL     1       5.844   4.303  17.496  0.00  0.00    +0.000 A 
ATOM      2  N   UNL     1       6.483   5.232  18.249  0.00  0.00    +0.000 NA
ATOM      3  C   UNL     1       7.343   6.083  17.656  0.00  0.00    +0.000 A 
ATOM      4  N   UNL     1       7.667   6.161  16.357  0.00  0.00    +0.000 NA
ATOM      5  C   UNL     1       7.022   5.229  15.643  0.00  0.00    +0.000 A 
ATOM      6  N   UNL     1       7.156   5.067  14.293  0.00  0.00    +0.000 N 
ATOM      7  C   UNL     1       6.365   4.027  13.863  0.00  0.00    +0.000 A 
ATOM      8  C   UNL     1       5.728   3.512  14.982  0.00  0.00    +0.000 A 
ATOM      9  C   UNL     1       6.126   4.283  16.114  0.00  0.00    +0.000 A 
ATOM     10  H   UNL     1       7.753   5.643  13.714  0.00  0.00    +0.000 HD
ENDROOT
BRANCH   7  11
ATOM     11  C   UNL     1       6.307   3.652  12.432  0.00  0.00    +0.000 C 
ATOM     12  F   UNL     1       5.040   3.733  11.948  0.00  0.00    +0.000 F 
ATOM     13  F   UNL     1       7.078   4.458  11.666  0.00  0.00    +0.000 F 
ATOM     14  F   UNL     1       6.727   2.380  12.231  0.00  0.00    +0.000 F 
ENDBRANCH   7  11
BRANCH   1  15
ATOM     15  N   UNL     1       4.984   3.388  18.087  0.00  0.00    +0.000 N 
ATOM     16  H   UNL     1       5.318   2.434  18.060  0.00  0.00    +0.000 HD
BRANCH  15  17
ATOM     17  C   UNL     1       3.549   3.530  17.855  0.00  0.00    +0.000 C 
BRANCH  17  21
ATOM     18  C   UNL     1       1.772   6.482  20.511  0.00  0.00    +0.000 A 
ATOM     19  C   UNL     1       1.811   5.142  20.876  0.00  0.00    +0.000 A 
ATOM     20  C   UNL     1       2.379   4.189  20.029  0.00  0.00    +0.000 A 
ATOM     21  C   UNL     1       2.922   4.559  18.786  0.00  0.00    +0.000 A 
ATOM     22  C   UNL     1       2.904   5.923  18.427  0.00  0.00    +0.000 A 
ATOM     23  C   UNL     1       2.322   6.871  19.287  0.00  0.00    +0.000 A 
BRANCH  18  25
ATOM     24  C   UNL     1       0.948   8.652  21.034  0.00  0.00    +0.000 C 
ATOM     25  O   UNL     1       1.194   7.308  21.432  0.00  0.00    +0.000 OA
ENDBRANCH  18  25
BRANCH  22  26
ATOM     26  O   UNL     1       3.483   6.245  17.222  0.00  0.00    +0.000 OA
ATOM     27  C   UNL     1       4.013   7.562  17.084  0.00  0.00    +0.000 C 
ENDBRANCH  22  26
ENDBRANCH  17  21
ENDBRANCH  15  17
ENDBRANCH   1  15
TORSDOF 6
ENDMDL
MODEL 3
REMARK VINA RESULT:      -7.6      1.346      2.889
REMARK  Name = 
REMARK  8 active torsions:
REMARK  status: ('A' for Active; 'I' for Inactive)
REMARK    1  A    between atoms: C_1  and  O_2
REMARK    2  A    between atoms: O_2  and  C_3
REMARK    3  A    between atoms: C_6  and  C_7
REMARK    4  A    between atoms: C_7  and  N_8
REMARK    5  A    between atoms: N_8  and  C_9
REMARK    6  A    between atoms: C_15  and  C_16
REMARK    7  A    between atoms: C_22  and  O_23
REMARK    8  A    between atoms: O_23  and  C_24
REMARK                            x       y       z     vdW  Elec       q    Type
REMARK                         _______ _______ _______ _____ _____    ______ ____
ROOT
ATOM      1  C   UNL     1       5.725   6.293  17.529  0.00  0.00    +0.000 A 
ATOM      2  N   UNL     1       6.569   6.128  18.577  0.00  0.00    +0.000 NA
ATOM      3  C   UNL     1       7.572   5.234  18.482  0.00  0.00    +0.000 A 
ATOM      4  N   UNL     1       7.886   4.451  17.439  0.00  0.00    +0.000 NA
ATOM      5  C   UNL     1       7.033   4.637  16.423  0.00  0.00    +0.000 A 
ATOM      6  N   UNL     1       7.103   3.975  15.231  0.00  0.00    +0.000 N 
ATOM      7  C   UNL     1       6.087   4.387  14.402  0.00  0.00    +0.000 A 
ATOM      8  C   UNL     1       5.346   5.326  15.104  0.00  0.00    +0.000 A 
ATOM      9  C   UNL     1       5.953   5.503  16.383  0.00  0.00    +0.000 A 
ATOM     10  H   UNL     1       7.813   3.287  15.010  0.00  0.00    +0.000 HD
ENDROOT
BRANCH   7  11
ATOM     11  C   UNL     1       5.945   3.839  13.034  0.00  0.00    +0.000 C 
ATOM     12  F   UNL     1       6.788   4.453  12.163  0.00  0.00    +0.000 F 
ATOM     13  F   UNL     1       6.221   2.515  12.988  0.00  0.00    +0.000 F 
ATOM     14  F   UNL     1       4.689   4.007  12.555  0.00  0.00    +0.000 F 
ENDBRANCH   7  11
BRANCH   1  15
ATOM     15  N   UNL     1       4.659   7.178  17.616  0.00  0.00    +0.000 N 
ATOM     16  H   UNL     1       4.639   7.712  18.474  0.00  0.00    +0.000 HD
BRANCH  15  17
ATOM     17  C   UNL     1       3.346   6.735  17.152  0.00  0.00    +0.000 C 
BRANCH  17  21
ATOM     18  C   UNL     1       1.563   3.856  19.883  0.00  0.00    +0.000 A 
ATOM     19  C   UNL     1       2.000   3.455  18.626  0.00  0.00    +0.000 A 
ATOM     20  C   UNL     1       2.572   4.373  17.744  0.00  0.00    +0.000 A 
ATOM     21  C   UNL     1       2.718   5.725  18.103  0.00  0.00    +0.000 A 
ATOM     22  C   UNL     1       2.297   6.125  19.388  0.00  0.00    +0.000 A 
ATOM     23  C   UNL     1       1.715   5.191  20.263  0.00  0.00    +0.000 A 
BRANCH  18  25
ATOM     24  C   UNL     1       1.716   2.517  21.844  0.00  0.00    +0.000 C 
ATOM     25  O   UNL     1       1.027   2.858  20.646  0.00  0.00    +0.000 OA
ENDBRANCH  18  25
BRANCH  22  26
ATOM     26  O   UNL     1       2.498   7.448  19.712  0.00  0.00    +0.000 OA
ATOM     27  C   UNL     1       1.607   8.029  20.661  0.00  0.00    +0.000 C 
ENDBRANCH  22  26
ENDBRANCH  17  21
ENDBRANCH  15  17
ENDBRANCH   1  15
TORSDOF 6
ENDMDL
MODEL 4
REMARK VINA RESULT:      -7.6      3.010      5.234
REMARK  Name = 
REMARK  8 active torsions:
REMARK  status: ('A' for Active; 'I' for Inactive)
REMARK    1  A    between atoms: C_1  and  O_2
REMARK    2  A    between atoms: O_2  and  C_3
REMARK    3  A    between atoms: C_6  and  C_7
REMARK    4  A    between atoms: C_7  and  N_8
REMARK    5  A    between atoms: N_8  and  C_9
REMARK    6  A    between atoms: C_15  and  C_16
REMARK    7  A    between atoms: C_22  and  O_23
REMARK    8  A    between atoms: O_23  and  C_24
REMARK                            x       y       z     vdW  Elec       q    Type
REMARK                         _______ _______ _______ _____ _____    ______ ____
ROOT
ATOM      1  C   UNL     1       2.708   5.519  19.353  0.00  0.00    +0.000 A 
ATOM      2  N   UNL     1       1.656   4.665  19.353  0.00  0.00    +0.000 NA
ATOM      3  C   UNL     1       1.732   3.523  18.643  0.00  0.00    +0.000 A 
ATOM      4  N   UNL     1       2.760   3.073  17.906  0.00  0.00    +0.000 NA
ATOM      5  C   UNL     1       3.781   3.940  17.926  0.00  0.00    +0.000 A 
ATOM      6  N   UNL     1       4.961   3.751  17.265  0.00  0.00    +0.000 N 
ATOM      7  C   UNL     1       5.800   4.818  17.482  0.00  0.00    +0.000 A 
ATOM      8  C   UNL     1       5.117   5.713  18.293  0.00  0.00    +0.000 A 
ATOM      9  C   UNL     1       3.840   5.152  18.594  0.00  0.00    +0.000 A 
ATOM     10  H   UNL     1       5.167   2.932  16.705  0.00  0.00    +0.000 HD
ENDROOT
BRANCH   7  11
ATOM     11  C   UNL     1       7.158   4.855  16.895  0.00  0.00    +0.000 C 
ATOM     12  F   UNL     1       7.599   6.131  16.743  0.00  0.00    +0.000 F 
ATOM     13  F   UNL     1       8.062   4.211  17.669  0.00  0.00    +0.000 F 
ATOM     14  F   UNL     1       7.189   4.277  15.670  0.00  0.00    +0.000 F 
ENDBRANCH   7  11
BRANCH   1  15
ATOM     15  N   UNL     1       2.640   6.721  20.043  0.00  0.00    +0.000 N 
ATOM     16  H   UNL     1       2.425   6.618  21.025  0.00  0.00    +0.000 HD
BRANCH  15  17
ATOM     17  C   UNL     1       1.986   7.858  19.399  0.00  0.00    +0.000 C 
BRANCH  17  21
ATOM     18  C   UNL     1      -0.179  10.331  22.249  0.00  0.00    +0.000 A 
ATOM     19  C   UNL     1       0.655   9.312  22.694  0.00  0.00    +0.000 A 
ATOM     20  C   UNL     1       1.352   8.514  21.786  0.00  0.00    +0.000 A 
ATOM     21  C   UNL     1       1.227   8.718  20.400  0.00  0.00    +0.000 A 
ATOM     22  C   UNL     1       0.400   9.768  19.951  0.00  0.00    +0.000 A 
ATOM     23  C   UNL     1      -0.303  10.559  20.877  0.00  0.00    +0.000 A 
BRANCH  18  25
ATOM     24  C   UNL     1      -1.304  12.323  22.902  0.00  0.00    +0.000 C 
ATOM     25  O   UNL     1      -0.797  11.038  23.241  0.00  0.00    +0.000 OA
ENDBRANCH  18  25
BRANCH  22  26
ATOM     26  O   UNL     1       0.340   9.958  18.589  0.00  0.00    +0.000 OA
ATOM     27  C   UNL     1      -0.935  10.268  18.030  0.00  0.00    +0.000 C 
ENDBRANCH  22  26
ENDBRANCH  17  21
ENDBRANCH  15  17
ENDBRANCH   1  15
TORSDOF 6
ENDMDL
MODEL 5
REMARK VINA RESULT:      -7.5      1.476      2.085
REMARK  Name = 
REMARK  8 active torsions:
REMARK  status: ('A' for Active; 'I' for Inactive)
REMARK    1  A    between atoms: C_1  and  O_2
REMARK    2  A    between atoms: O_2  and  C_3
REMARK    3  A    between atoms: C_6  and  C_7
REMARK    4  A    between atoms: C_7  and  N_8
REMARK    5  A    between atoms: N_8  and  C_9
REMARK    6  A    between atoms: C_15  and  C_16
REMARK    7  A    between atoms: C_22  and  O_23
REMARK    8  A    between atoms: O_23  and  C_24
REMARK                            x       y       z     vdW  Elec       q    Type
REMARK                         _______ _______ _______ _____ _____    ______ ____
ROOT
ATOM      1  C   UNL     1       5.485   5.949  17.010  0.00  0.00    +0.000 A 
ATOM      2  N   UNL     1       6.383   5.893  18.023  0.00  0.00    +0.000 NA
ATOM      3  C   UNL     1       7.487   5.133  17.885  0.00  0.00    +0.000 A 
ATOM      4  N   UNL     1       7.856   4.395  16.828  0.00  0.00    +0.000 NA
ATOM      5  C   UNL     1       6.947   4.470  15.847  0.00  0.00    +0.000 A 
ATOM      6  N   UNL     1       7.054   3.821  14.650  0.00  0.00    +0.000 N 
ATOM      7  C   UNL     1       5.962   4.101  13.863  0.00  0.00    +0.000 A 
ATOM      8  C   UNL     1       5.136   4.939  14.597  0.00  0.00    +0.000 A 
ATOM      9  C   UNL     1       5.766   5.193  15.852  0.00  0.00    +0.000 A 
ATOM     10  H   UNL     1       7.836   3.229  14.399  0.00  0.00    +0.000 HD
ENDROOT
BRANCH   7  11
ATOM     11  C   UNL     1       5.838   3.538  12.499  0.00  0.00    +0.000 C 
ATOM     12  F   UNL     1       6.744   4.087  11.650  0.00  0.00    +0.000 F 
ATOM     13  F   UNL     1       6.038   2.200  12.484  0.00  0.00    +0.000 F 
ATOM     14  F   UNL     1       4.611   3.770  11.973  0.00  0.00    +0.000 F 
ENDBRANCH   7  11
BRANCH   1  15
ATOM     15  N   UNL     1       4.320   6.692  17.142  0.00  0.00    +0.000 N 
ATOM     16  H   UNL     1       4.478   7.675  17.316  0.00  0.00    +0.000 HD
BRANCH  15  17
ATOM     17  C   UNL     1       3.209   6.118  17.898  0.00  0.00    +0.000 C 
BRANCH  17  21
ATOM     18  C   UNL     1       1.060   9.122  20.196  0.00  0.00    +0.000 A 
ATOM     19  C   UNL     1       1.421   9.371  18.877  0.00  0.00    +0.000 A 
ATOM     20  C   UNL     1       2.111   8.413  18.134  0.00  0.00    +0.000 A 
ATOM     21  C   UNL     1       2.461   7.174  18.700  0.00  0.00    +0.000 A 
ATOM     22  C   UNL     1       2.073   6.912  20.030  0.00  0.00    +0.000 A 
ATOM     23  C   UNL     1       1.384   7.891  20.770  0.00  0.00    +0.000 A 
BRANCH  18  25
ATOM     24  C   UNL     1       0.832  11.465  20.538  0.00  0.00    +0.000 C 
ATOM     25  O   UNL     1       0.386  10.141  20.806  0.00  0.00    +0.000 OA
ENDBRANCH  18  25
BRANCH  22  26
ATOM     26  O   UNL     1       2.399   5.672  20.529  0.00  0.00    +0.000 OA
ATOM     27  C   UNL     1       1.350   4.710  20.620  0.00  0.00    +0.000 C 
ENDBRANCH  22  26
ENDBRANCH  17  21
ENDBRANCH  15  17
ENDBRANCH   1  15
TORSDOF 6
ENDMDL
MODEL 6
REMARK VINA RESULT:      -7.5      4.198      5.958
REMARK  Name = 
REMARK  8 active torsions:
REMARK  status: ('A' for Active; 'I' for Inactive)
REMARK    1  A    between atoms: C_1  and  O_2
REMARK    2  A    between atoms: O_2  and  C_3
REMARK    3  A    between atoms: C_6  and  C_7
REMARK    4  A    between atoms: C_7  and  N_8
REMARK    5  A    between atoms: N_8  and  C_9
REMARK    6  A    between atoms: C_15  and  C_16
REMARK    7  A    between atoms: C_22  and  O_23
REMARK    8  A    between atoms: O_23  and  C_24
REMARK                            x       y       z     vdW  Elec       q    Type
REMARK                         _______ _______ _______ _____ _____    ______ ____
ROOT
ATOM      1  C   UNL     1       3.704   6.763  17.540  0.00  0.00    +0.000 A 
ATOM      2  N   UNL     1       4.719   6.760  16.641  0.00  0.00    +0.000 NA
ATOM      3  C   UNL     1       5.152   5.588  16.138  0.00  0.00    +0.000 A 
ATOM      4  N   UNL     1       4.692   4.355  16.399  0.00  0.00    +0.000 NA
ATOM      5  C   UNL     1       3.693   4.393  17.290  0.00  0.00    +0.000 A 
ATOM      6  N   UNL     1       3.030   3.289  17.748  0.00  0.00    +0.000 N 
ATOM      7  C   UNL     1       2.064   3.661  18.653  0.00  0.00    +0.000 A 
ATOM      8  C   UNL     1       2.135   5.041  18.778  0.00  0.00    +0.000 A 
ATOM      9  C   UNL     1       3.155   5.514  17.900  0.00  0.00    +0.000 A 
ATOM     10  H   UNL     1       3.235   2.345  17.447  0.00  0.00    +0.000 HD
ENDROOT
BRANCH   7  11
ATOM     11  C   UNL     1       1.183   2.655  19.288  0.00  0.00    +0.000 C 
ATOM     12  F   UNL     1       0.650   3.122  20.446  0.00  0.00    +0.000 F 
ATOM     13  F   UNL     1       0.150   2.310  18.485  0.00  0.00    +0.000 F 
ATOM     14  F   UNL     1       1.857   1.520  19.591  0.00  0.00    +0.000 F 
ENDBRANCH   7  11
BRANCH   1  15
ATOM     15  N   UNL     1       3.266   7.953  18.104  0.00  0.00    +0.000 N 
ATOM     16  H   UNL     1       3.705   8.174  18.986  0.00  0.00    +0.000 HD
BRANCH  15  17
ATOM     17  C   UNL     1       1.841   8.269  18.044  0.00  0.00    +0.000 C 
BRANCH  17  21
ATOM     18  C   UNL     1       0.365   9.842  21.822  0.00  0.00    +0.000 A 
ATOM     19  C   UNL     1       1.277   8.793  21.806  0.00  0.00    +0.000 A 
ATOM     20  C   UNL     1       1.754   8.283  20.597  0.00  0.00    +0.000 A 
ATOM     21  C   UNL     1       1.323   8.813  19.369  0.00  0.00    +0.000 A 
ATOM     22  C   UNL     1       0.417   9.894  19.387  0.00  0.00    +0.000 A 
ATOM     23  C   UNL     1      -0.061  10.393  20.611  0.00  0.00    +0.000 A 
BRANCH  18  25
ATOM     24  C   UNL     1      -1.237  10.971  23.170  0.00  0.00    +0.000 C 
ATOM     25  O   UNL     1      -0.016  10.248  23.069  0.00  0.00    +0.000 OA
ENDBRANCH  18  25
BRANCH  22  26
ATOM     26  O   UNL     1       0.056  10.408  18.163  0.00  0.00    +0.000 OA
ATOM     27  C   UNL     1      -1.333  10.399  17.837  0.00  0.00    +0.000 C 
ENDBRANCH  22  26
ENDBRANCH  17  21
ENDBRANCH  15  17
ENDBRANCH   1  15
TORSDOF 6
ENDMDL
MODEL 7
REMARK VINA RESULT:      -7.5      0.949      1.259
REMARK  Name = 
REMARK  8 active torsions:
REMARK  status: ('A' for Active; 'I' for Inactive)
REMARK    1  A    between atoms: C_1  and  O_2
REMARK    2  A    between atoms: O_2  and  C_3
REMARK    3  A    between atoms: C_6  and  C_7
REMARK    4  A    between atoms: C_7  and  N_8
REMARK    5  A    between atoms: N_8  and  C_9
REMARK    6  A    between atoms: C_15  and  C_16
REMARK    7  A    between atoms: C_22  and  O_23
REMARK    8  A    between atoms: O_23  and  C_24
REMARK                            x       y       z     vdW  Elec       q    Type
REMARK                         _______ _______ _______ _____ _____    ______ ____
ROOT
ATOM      1  C   UNL     1       5.619   4.274  17.104  0.00  0.00    +0.000 A 
ATOM      2  N   UNL     1       6.248   5.151  17.922  0.00  0.00    +0.000 NA
ATOM      3  C   UNL     1       7.202   5.958  17.417  0.00  0.00    +0.000 A 
ATOM      4  N   UNL     1       7.634   6.035  16.149  0.00  0.00    +0.000 NA
ATOM      5  C   UNL     1       6.994   5.154  15.368  0.00  0.00    +0.000 A 
ATOM      6  N   UNL     1       7.226   5.004  14.031  0.00  0.00    +0.000 N 
ATOM      7  C   UNL     1       6.413   4.021  13.519  0.00  0.00    +0.000 A 
ATOM      8  C   UNL     1       5.658   3.528  14.573  0.00  0.00    +0.000 A 
ATOM      9  C   UNL     1       6.009   4.257  15.748  0.00  0.00    +0.000 A 
ATOM     10  H   UNL     1       7.901   5.551  13.512  0.00  0.00    +0.000 HD
ENDROOT
BRANCH   7  11
ATOM     11  C   UNL     1       6.448   3.671  12.081  0.00  0.00    +0.000 C 
ATOM     12  F   UNL     1       7.208   4.548  11.374  0.00  0.00    +0.000 F 
ATOM     13  F   UNL     1       6.966   2.438  11.873  0.00  0.00    +0.000 F 
ATOM     14  F   UNL     1       5.210   3.688  11.532  0.00  0.00    +0.000 F 
ENDBRANCH   7  11
BRANCH   1  15
ATOM     15  N   UNL     1       4.661   3.404  17.607  0.00  0.00    +0.000 N 
ATOM     16  H   UNL     1       3.789   3.416  17.098  0.00  0.00    +0.000 HD
BRANCH  15  17
ATOM     17  C   UNL     1       4.511   3.296  19.057  0.00  0.00    +0.000 C 
BRANCH  17  21
ATOM     18  C   UNL     1       1.547   6.088  20.587  0.00  0.00    +0.000 A 
ATOM     19  C   UNL     1       2.779   6.547  20.136  0.00  0.00    +0.000 A 
ATOM     20  C   UNL     1       3.734   5.657  19.645  0.00  0.00    +0.000 A 
ATOM     21  C   UNL     1       3.478   4.276  19.596  0.00  0.00    +0.000 A 
ATOM     22  C   UNL     1       2.219   3.813  20.030  0.00  0.00    +0.000 A 
ATOM     23  C   UNL     1       1.268   4.720  20.531  0.00  0.00    +0.000 A 
BRANCH  18  25
ATOM     24  C   UNL     1       1.156   8.408  20.938  0.00  0.00    +0.000 C 
ATOM     25  O   UNL     1       0.703   7.062  21.037  0.00  0.00    +0.000 OA
ENDBRANCH  18  25
BRANCH  22  26
ATOM     26  O   UNL     1       1.997   2.459  19.926  0.00  0.00    +0.000 OA
ATOM     27  C   UNL     1       1.035   2.029  18.964  0.00  0.00    +0.000 C 
ENDBRANCH  22  26
ENDBRANCH  17  21
ENDBRANCH  15  17
ENDBRANCH   1  15
TORSDOF 6
ENDMDL
MODEL 8
REMARK VINA RESULT:      -7.5      3.670      5.551
REMARK  Name = 
REMARK  8 active torsions:
REMARK  status: ('A' for Active; 'I' for Inactive)
REMARK    1  A    between atoms: C_1  and  O_2
REMARK    2  A    between atoms: O_2  and  C_3
REMARK    3  A    between atoms: C_6  and  C_7
REMARK    4  A    between atoms: C_7  and  N_8
REMARK    5  A    between atoms: N_8  and  C_9
REMARK    6  A    between atoms: C_15  and  C_16
REMARK    7  A    between atoms: C_22  and  O_23
REMARK    8  A    between atoms: O_23  and  C_24
REMARK                            x       y       z     vdW  Elec       q    Type
REMARK                         _______ _______ _______ _____ _____    ______ ____
ROOT
ATOM      1  C   UNL     1       2.753   5.149  19.968  0.00  0.00    +0.000 A 
ATOM      2  N   UNL     1       1.867   4.136  19.808  0.00  0.00    +0.000 NA
ATOM      3  C   UNL     1       2.245   3.027  19.142  0.00  0.00    +0.000 A 
ATOM      4  N   UNL     1       3.441   2.757  18.597  0.00  0.00    +0.000 NA
ATOM      5  C   UNL     1       4.291   3.778  18.770  0.00  0.00    +0.000 A 
ATOM      6  N   UNL     1       5.580   3.788  18.320  0.00  0.00    +0.000 N 
ATOM      7  C   UNL     1       6.187   4.975  18.655  0.00  0.00    +0.000 A 
ATOM      8  C   UNL     1       5.242   5.740  19.323  0.00  0.00    +0.000 A 
ATOM      9  C   UNL     1       4.040   4.977  19.416  0.00  0.00    +0.000 A 
ATOM     10  H   UNL     1       6.007   3.019  17.819  0.00  0.00    +0.000 HD
ENDROOT
BRANCH   7  11
ATOM     11  C   UNL     1       7.601   5.238  18.303  0.00  0.00    +0.000 C 
ATOM     12  F   UNL     1       8.371   5.383  19.412  0.00  0.00    +0.000 F 
ATOM     13  F   UNL     1       8.136   4.231  17.575  0.00  0.00    +0.000 F 
ATOM     14  F   UNL     1       7.732   6.375  17.579  0.00  0.00    +0.000 F 
ENDBRANCH   7  11
BRANCH   1  15
ATOM     15  N   UNL     1       2.376   6.318  20.614  0.00  0.00    +0.000 N 
ATOM     16  H   UNL     1       1.790   6.168  21.424  0.00  0.00    +0.000 HD
BRANCH  15  17
ATOM     17  C   UNL     1       1.998   7.473  19.802  0.00  0.00    +0.000 C 
BRANCH  17  21
ATOM     18  C   UNL     1      -0.008  10.538  22.148  0.00  0.00    +0.000 A 
ATOM     19  C   UNL     1       0.590   9.452  22.776  0.00  0.00    +0.000 A 
ATOM     20  C   UNL     1       1.234   8.464  22.029  0.00  0.00    +0.000 A 
ATOM     21  C   UNL     1       1.293   8.541  20.627  0.00  0.00    +0.000 A 
ATOM     22  C   UNL     1       0.708   9.656  19.993  0.00  0.00    +0.000 A 
ATOM     23  C   UNL     1       0.055  10.640  20.756  0.00  0.00    +0.000 A 
BRANCH  18  25
ATOM     24  C   UNL     1      -1.836  12.000  22.576  0.00  0.00    +0.000 C 
ATOM     25  O   UNL     1      -0.600  11.432  22.994  0.00  0.00    +0.000 OA
ENDBRANCH  18  25
BRANCH  22  26
ATOM     26  O   UNL     1       0.826   9.711  18.623  0.00  0.00    +0.000 OA
ATOM     27  C   UNL     1      -0.369   9.923  17.874  0.00  0.00    +0.000 C 
ENDBRANCH  22  26
ENDBRANCH  17  21
ENDBRANCH  15  17
ENDBRANCH   1  15
TORSDOF 6
ENDMDL
MODEL 9
REMARK VINA RESULT:      -7.4      3.113      5.126
REMARK  Name = 
REMARK  8 active torsions:
REMARK  status: ('A' for Active; 'I' for Inactive)
REMARK    1  A    between atoms: C_1  and  O_2
REMARK    2  A    between atoms: O_2  and  C_3
REMARK    3  A    between atoms: C_6  and  C_7
REMARK    4  A    between atoms: C_7  and  N_8
REMARK    5  A    between atoms: N_8  and  C_9
REMARK    6  A    between atoms: C_15  and  C_16
REMARK    7  A    between atoms: C_22  and  O_23
REMARK    8  A    between atoms: O_23  and  C_24
REMARK                            x       y       z     vdW  Elec       q    Type
REMARK                         _______ _______ _______ _____ _____    ______ ____
ROOT
ATOM      1  C   UNL     1       3.027   5.426  20.082  0.00  0.00    +0.000 A 
ATOM      2  N   UNL     1       2.339   4.461  20.740  0.00  0.00    +0.000 NA
ATOM      3  C   UNL     1       2.771   3.186  20.681  0.00  0.00    +0.000 A 
ATOM      4  N   UNL     1       3.850   2.706  20.044  0.00  0.00    +0.000 NA
ATOM      5  C   UNL     1       4.505   3.684  19.404  0.00  0.00    +0.000 A 
ATOM      6  N   UNL     1       5.640   3.493  18.668  0.00  0.00    +0.000 N 
ATOM      7  C   UNL     1       6.065   4.689  18.139  0.00  0.00    +0.000 A 
ATOM      8  C   UNL     1       5.157   5.657  18.542  0.00  0.00    +0.000 A 
ATOM      9  C   UNL     1       4.173   5.028  19.362  0.00  0.00    +0.000 A 
ATOM     10  H   UNL     1       6.089   2.593  18.549  0.00  0.00    +0.000 HD
ENDROOT
BRANCH   7  11
ATOM     11  C   UNL     1       7.292   4.767  17.314  0.00  0.00    +0.000 C 
ATOM     12  F   UNL     1       7.652   6.055  17.080  0.00  0.00    +0.000 F 
ATOM     13  F   UNL     1       8.343   4.162  17.912  0.00  0.00    +0.000 F 
ATOM     14  F   UNL     1       7.120   4.179  16.106  0.00  0.00    +0.000 F 
ENDBRANCH   7  11
BRANCH   1  15
ATOM     15  N   UNL     1       2.581   6.740  20.093  0.00  0.00    +0.000 N 
ATOM     16  H   UNL     1       2.146   7.018  20.962  0.00  0.00    +0.000 HD
BRANCH  15  17
ATOM     17  C   UNL     1       1.926   7.264  18.897  0.00  0.00    +0.000 C 
BRANCH  17  21
ATOM     18  C   UNL     1       1.180  11.539  19.190  0.00  0.00    +0.000 A 
ATOM     19  C   UNL     1       1.861  11.018  18.096  0.00  0.00    +0.000 A 
ATOM     20  C   UNL     1       2.105   9.648  17.996  0.00  0.00    +0.000 A 
ATOM     21  C   UNL     1       1.671   8.761  18.998  0.00  0.00    +0.000 A 
ATOM     22  C   UNL     1       0.959   9.288  20.095  0.00  0.00    +0.000 A 
ATOM     23  C   UNL     1       0.727  10.672  20.187  0.00  0.00    +0.000 A 
BRANCH  18  25
ATOM     24  C   UNL     1      -0.131  13.386  18.462  0.00  0.00    +0.000 C 
ATOM     25  O   UNL     1       1.006  12.893  19.162  0.00  0.00    +0.000 OA
ENDBRANCH  18  25
BRANCH  22  26
ATOM     26  O   UNL     1       0.518   8.380  21.029  0.00  0.00    +0.000 OA
ATOM     27  C   UNL     1      -0.266   8.884  22.109  0.00  0.00    +0.000 C 
ENDBRANCH  22  26
ENDBRANCH  17  21
ENDBRANCH  15  17
ENDBRANCH   1  15
TORSDOF 6
ENDMDL
