MODEL 1
REMARK VINA RESULT:      -7.9      0.000      0.000
REMARK  Name = 
REMARK  6 active torsions:
REMARK  status: ('A' for Active; 'I' for Inactive)
REMARK    1  A    between atoms: C_2  and  C_3
REMARK    2  A    between atoms: C_6  and  N_7
REMARK    3  A    between atoms: C_8  and  S_9
REMARK    4  A    between atoms: S_9  and  C_10
REMARK    5  A    between atoms: C_10  and  C_11
REMARK    6  A    between atoms: C_11  and  O_13
REMARK                            x       y       z     vdW  Elec       q    Type
REMARK                         _______ _______ _______ _____ _____    ______ ____
ROOT
ATOM      1  N   UNL     1       2.719   6.565  18.842  0.00  0.00    +0.000 N 
ATOM      2  C   UNL     1       3.793   6.074  18.066  0.00  0.00    +0.000 A 
ATOM      3  N   UNL     1       4.028   4.796  18.277  0.00  0.00    +0.000 NA
ATOM      4  C   UNL     1       3.160   4.421  19.272  0.00  0.00    +0.000 A 
ATOM      5  C   UNL     1       3.054   3.213  19.976  0.00  0.00    +0.000 A 
ATOM      6  N   UNL     1       2.074   3.029  20.901  0.00  0.00    +0.000 NA
ATOM      7  C   UNL     1       1.137   3.983  21.047  0.00  0.00    +0.000 A 
ATOM      8  C   UNL     1       1.121   5.169  20.337  0.00  0.00    +0.000 A 
ATOM      9  C   UNL     1       2.245   5.437  19.538  0.00  0.00    +0.000 A 
ENDROOT
BRANCH   1  13
ATOM     10  C   UNL     1       0.218   9.958  18.659  0.00  0.00    +0.000 A 
ATOM     11  C   UNL     1       0.893   9.516  17.525  0.00  0.00    +0.000 A 
ATOM     12  C   UNL     1       1.786   8.455  17.611  0.00  0.00    +0.000 A 
ATOM     13  C   UNL     1       2.087   7.873  18.850  0.00  0.00    +0.000 A 
ATOM     14  C   UNL     1       1.550   8.462  20.051  0.00  0.00    +0.000 A 
ATOM     15  C   UNL     1       1.969   8.165  21.380  0.00  0.00    +0.000 A 
ATOM     16  C   UNL     1       1.194   8.498  22.501  0.00  0.00    +0.000 A 
ATOM     17  C   UNL     1       0.052   9.262  22.343  0.00  0.00    +0.000 A 
ATOM     18  C   UNL     1      -0.240   9.779  21.084  0.00  0.00    +0.000 A 
ATOM     19  C   UNL     1       0.504   9.421  19.927  0.00  0.00    +0.000 A 
BRANCH  10  21
ATOM     20  N   UNL     1      -1.570  11.815  18.337  0.00  0.00    +0.000 NA
ATOM     21  C   UNL     1      -0.777  10.978  18.474  0.00  0.00    +0.000 C 
ENDBRANCH  10  21
ENDBRANCH   1  13
BRANCH   2  22
ATOM     22  S   UNL     1       4.911   7.029  17.119  0.00  0.00    +0.000 S 
BRANCH  22  23
ATOM     23  C   UNL     1       6.598   6.253  17.407  0.00  0.00    +0.000 C 
ATOM     24  C   UNL     1       7.633   7.425  17.602  0.00  0.00    +0.000 C 
ATOM     25  C   UNL     1       8.227   6.649  18.786  0.00  0.00    +0.000 C 
ATOM     26  C   UNL     1       6.889   5.885  18.892  0.00  0.00    +0.000 C 
BRANCH  23  27
ATOM     27  C   UNL     1       6.966   5.211  16.285  0.00  0.00    +0.000 C 
ATOM     28  O   UNL     1       7.565   5.455  15.240  0.00  0.00    +0.000 OA
BRANCH  27  29
ATOM     29  O   UNL     1       6.569   3.939  16.544  0.00  0.00    +0.000 OA
ATOM     30  H   UNL     1       6.301   3.797  17.481  0.00  0.00    +0.000 HD
ENDBRANCH  27  29
ENDBRANCH  23  27
ENDBRANCH  22  23
ENDBRANCH   2  22
TORSDOF 6
ENDMDL
MODEL 2
REMARK VINA RESULT:      -7.6      7.293     11.244
REMARK  Name = 
REMARK  6 active torsions:
REMARK  status: ('A' for Active; 'I' for Inactive)
REMARK    1  A    between atoms: C_2  and  C_3
REMARK    2  A    between atoms: C_6  and  N_7
REMARK    3  A    between atoms: C_8  and  S_9
REMARK    4  A    between atoms: S_9  and  C_10
REMARK    5  A    between atoms: C_10  and  C_11
REMARK    6  A    between atoms: C_11  and  O_13
REMARK                            x       y       z     vdW  Elec       q    Type
REMARK                         _______ _______ _______ _____ _____    ______ ____
ROOT
ATOM      1  N   UNL     1      -1.994  13.452  22.942  0.00  0.00    +0.000 N 
ATOM      2  C   UNL     1      -2.952  13.676  23.956  0.00  0.00    +0.000 A 
ATOM      3  N   UNL     1      -2.672  14.730  24.694  0.00  0.00    +0.000 NA
ATOM      4  C   UNL     1      -1.462  15.189  24.236  0.00  0.00    +0.000 A 
ATOM      5  C   UNL     1      -0.630  16.203  24.731  0.00  0.00    +0.000 A 
ATOM      6  N   UNL     1       0.520  16.538  24.086  0.00  0.00    +0.000 NA
ATOM      7  C   UNL     1       0.788  15.960  22.902  0.00  0.00    +0.000 A 
ATOM      8  C   UNL     1      -0.018  15.008  22.304  0.00  0.00    +0.000 A 
ATOM      9  C   UNL     1      -1.090  14.522  23.071  0.00  0.00    +0.000 A 
ENDROOT
BRANCH   1  13
ATOM     10  C   UNL     1      -1.302  11.023  19.562  0.00  0.00    +0.000 A 
ATOM     11  C   UNL     1      -2.154  12.120  19.481  0.00  0.00    +0.000 A 
ATOM     12  C   UNL     1      -2.451  12.862  20.617  0.00  0.00    +0.000 A 
ATOM     13  C   UNL     1      -1.970  12.467  21.873  0.00  0.00    +0.000 A 
ATOM     14  C   UNL     1      -1.263  11.217  21.993  0.00  0.00    +0.000 A 
ATOM     15  C   UNL     1      -0.954  10.552  23.215  0.00  0.00    +0.000 A 
ATOM     16  C   UNL     1       0.018   9.542  23.292  0.00  0.00    +0.000 A 
ATOM     17  C   UNL     1       0.605   9.065  22.135  0.00  0.00    +0.000 A 
ATOM     18  C   UNL     1       0.134   9.522  20.907  0.00  0.00    +0.000 A 
ATOM     19  C   UNL     1      -0.816  10.575  20.803  0.00  0.00    +0.000 A 
BRANCH  10  21
ATOM     20  N   UNL     1      -0.675   9.861  17.325  0.00  0.00    +0.000 NA
ATOM     21  C   UNL     1      -0.946  10.376  18.329  0.00  0.00    +0.000 C 
ENDBRANCH  10  21
ENDBRANCH   1  13
BRANCH   2  22
ATOM     22  S   UNL     1      -4.238  12.589  24.429  0.00  0.00    +0.000 S 
BRANCH  22  23
ATOM     23  C   UNL     1      -5.741  13.133  23.442  0.00  0.00    +0.000 C 
ATOM     24  C   UNL     1      -5.669  14.700  23.290  0.00  0.00    +0.000 C 
ATOM     25  C   UNL     1      -6.053  14.533  21.813  0.00  0.00    +0.000 C 
ATOM     26  C   UNL     1      -5.549  13.076  21.897  0.00  0.00    +0.000 C 
BRANCH  23  27
ATOM     27  C   UNL     1      -7.081  12.580  24.056  0.00  0.00    +0.000 C 
ATOM     28  O   UNL     1      -7.533  11.447  23.903  0.00  0.00    +0.000 OA
BRANCH  27  29
ATOM     29  O   UNL     1      -7.762  13.471  24.821  0.00  0.00    +0.000 OA
ATOM     30  H   UNL     1      -7.799  13.221  25.772  0.00  0.00    +0.000 HD
ENDBRANCH  27  29
ENDBRANCH  23  27
ENDBRANCH  22  23
ENDBRANCH   2  22
TORSDOF 6
ENDMDL
MODEL 3
REMARK VINA RESULT:      -7.5      2.363      6.583
REMARK  Name = 
REMARK  6 active torsions:
REMARK  status: ('A' for Active; 'I' for Inactive)
REMARK    1  A    between atoms: C_2  and  C_3
REMARK    2  A    between atoms: C_6  and  N_7
REMARK    3  A    between atoms: C_8  and  S_9
REMARK    4  A    between atoms: S_9  and  C_10
REMARK    5  A    between atoms: C_10  and  C_11
REMARK    6  A    between atoms: C_11  and  O_13
REMARK                            x       y       z     vdW  Elec       q    Type
REMARK                         _______ _______ _______ _____ _____    ______ ____
ROOT
ATOM      1  N   UNL     1       3.164   6.312  18.856  0.00  0.00    +0.000 N 
ATOM      2  C   UNL     1       2.500   5.740  19.965  0.00  0.00    +0.000 A 
ATOM      3  N   UNL     1       1.614   6.554  20.500  0.00  0.00    +0.000 NA
ATOM      4  C   UNL     1       1.728   7.731  19.804  0.00  0.00    +0.000 A 
ATOM      5  C   UNL     1       1.121   8.976  20.023  0.00  0.00    +0.000 A 
ATOM      6  N   UNL     1       1.335  10.015  19.171  0.00  0.00    +0.000 NA
ATOM      7  C   UNL     1       2.045   9.795  18.050  0.00  0.00    +0.000 A 
ATOM      8  C   UNL     1       2.612   8.578  17.718  0.00  0.00    +0.000 A 
ATOM      9  C   UNL     1       2.560   7.573  18.698  0.00  0.00    +0.000 A 
ENDROOT
BRANCH   1  13
ATOM     10  C   UNL     1       6.041   5.385  15.913  0.00  0.00    +0.000 A 
ATOM     11  C   UNL     1       4.683   5.332  15.615  0.00  0.00    +0.000 A 
ATOM     12  C   UNL     1       3.739   5.548  16.610  0.00  0.00    +0.000 A 
ATOM     13  C   UNL     1       4.134   5.734  17.941  0.00  0.00    +0.000 A 
ATOM     14  C   UNL     1       5.525   5.582  18.289  0.00  0.00    +0.000 A 
ATOM     15  C   UNL     1       6.043   5.470  19.611  0.00  0.00    +0.000 A 
ATOM     16  C   UNL     1       7.401   5.671  19.903  0.00  0.00    +0.000 A 
ATOM     17  C   UNL     1       8.305   5.845  18.871  0.00  0.00    +0.000 A 
ATOM     18  C   UNL     1       7.861   5.703  17.559  0.00  0.00    +0.000 A 
ATOM     19  C   UNL     1       6.485   5.545  17.238  0.00  0.00    +0.000 A 
BRANCH  10  21
ATOM     20  N   UNL     1       7.687   5.170  13.914  0.00  0.00    +0.000 NA
ATOM     21  C   UNL     1       6.960   5.271  14.814  0.00  0.00    +0.000 C 
ENDBRANCH  10  21
ENDBRANCH   1  13
BRANCH   2  22
ATOM     22  S   UNL     1       2.924   4.248  20.772  0.00  0.00    +0.000 S 
BRANCH  22  23
ATOM     23  C   UNL     1       2.482   2.882  19.561  0.00  0.00    +0.000 C 
ATOM     24  C   UNL     1       1.260   2.090  20.162  0.00  0.00    +0.000 C 
ATOM     25  C   UNL     1       0.614   2.110  18.770  0.00  0.00    +0.000 C 
ATOM     26  C   UNL     1       1.509   3.320  18.427  0.00  0.00    +0.000 C 
BRANCH  23  27
ATOM     27  C   UNL     1       3.732   2.001  19.184  0.00  0.00    +0.000 C 
ATOM     28  O   UNL     1       3.750   1.084  18.367  0.00  0.00    +0.000 OA
BRANCH  27  29
ATOM     29  O   UNL     1       4.872   2.326  19.847  0.00  0.00    +0.000 OA
ATOM     30  H   UNL     1       5.602   1.681  19.708  0.00  0.00    +0.000 HD
ENDBRANCH  27  29
ENDBRANCH  23  27
ENDBRANCH  22  23
ENDBRANCH   2  22
TORSDOF 6
ENDMDL
MODEL 4
REMARK VINA RESULT:      -7.4      4.973      8.661
REMARK  Name = 
REMARK  6 active torsions:
REMARK  status: ('A' for Active; 'I' for Inactive)
REMARK    1  A    between atoms: C_2  and  C_3
REMARK    2  A    between atoms: C_6  and  N_7
REMARK    3  A    between atoms: C_8  and  S_9
REMARK    4  A    between atoms: S_9  and  C_10
REMARK    5  A    between atoms: C_10  and  C_11
REMARK    6  A    between atoms: C_11  and  O_13
REMARK                            x       y       z     vdW  Elec       q    Type
REMARK                         _______ _______ _______ _____ _____    ______ ____
ROOT
ATOM      1  N   UNL     1       0.265  12.148  18.971  0.00  0.00    +0.000 N 
ATOM      2  C   UNL     1      -0.954  12.862  18.979  0.00  0.00    +0.000 A 
ATOM      3  N   UNL     1      -0.787  14.150  18.761  0.00  0.00    +0.000 NA
ATOM      4  C   UNL     1       0.570  14.339  18.684  0.00  0.00    +0.000 A 
ATOM      5  C   UNL     1       1.318  15.521  18.588  0.00  0.00    +0.000 A 
ATOM      6  N   UNL     1       2.672  15.481  18.469  0.00  0.00    +0.000 NA
ATOM      7  C   UNL     1       3.273  14.286  18.328  0.00  0.00    +0.000 A 
ATOM      8  C   UNL     1       2.603  13.076  18.332  0.00  0.00    +0.000 A 
ATOM      9  C   UNL     1       1.237  13.116  18.660  0.00  0.00    +0.000 A 
ENDROOT
BRANCH   1  13
ATOM     10  C   UNL     1       1.774   8.226  19.348  0.00  0.00    +0.000 A 
ATOM     11  C   UNL     1       1.649   8.817  18.094  0.00  0.00    +0.000 A 
ATOM     12  C   UNL     1       1.067  10.072  17.967  0.00  0.00    +0.000 A 
ATOM     13  C   UNL     1       0.519  10.721  19.081  0.00  0.00    +0.000 A 
ATOM     14  C   UNL     1       0.459  10.024  20.341  0.00  0.00    +0.000 A 
ATOM     15  C   UNL     1      -0.297  10.428  21.479  0.00  0.00    +0.000 A 
ATOM     16  C   UNL     1      -0.051   9.916  22.762  0.00  0.00    +0.000 A 
ATOM     17  C   UNL     1       0.854   8.884  22.927  0.00  0.00    +0.000 A 
ATOM     18  C   UNL     1       1.417   8.300  21.795  0.00  0.00    +0.000 A 
ATOM     19  C   UNL     1       1.218   8.828  20.491  0.00  0.00    +0.000 A 
BRANCH  10  21
ATOM     20  N   UNL     1       3.088   5.988  19.465  0.00  0.00    +0.000 NA
ATOM     21  C   UNL     1       2.492   6.983  19.419  0.00  0.00    +0.000 C 
ENDBRANCH  10  21
ENDBRANCH   1  13
BRANCH   2  22
ATOM     22  S   UNL     1      -2.513  12.250  19.481  0.00  0.00    +0.000 S 
BRANCH  22  23
ATOM     23  C   UNL     1      -3.185  11.318  17.995  0.00  0.00    +0.000 C 
ATOM     24  C   UNL     1      -2.222  11.600  16.781  0.00  0.00    +0.000 C 
ATOM     25  C   UNL     1      -2.283  10.105  16.437  0.00  0.00    +0.000 C 
ATOM     26  C   UNL     1      -2.709   9.838  17.897  0.00  0.00    +0.000 C 
BRANCH  23  27
ATOM     27  C   UNL     1      -4.705  11.641  17.735  0.00  0.00    +0.000 C 
ATOM     28  O   UNL     1      -5.165  12.201  16.744  0.00  0.00    +0.000 OA
BRANCH  27  29
ATOM     29  O   UNL     1      -5.544  11.240  18.725  0.00  0.00    +0.000 OA
ATOM     30  H   UNL     1      -6.469  11.099  18.418  0.00  0.00    +0.000 HD
ENDBRANCH  27  29
ENDBRANCH  23  27
ENDBRANCH  22  23
ENDBRANCH   2  22
TORSDOF 6
ENDMDL
MODEL 5
REMARK VINA RESULT:      -7.3      1.064      1.624
REMARK  Name = 
REMARK  6 active torsions:
REMARK  status: ('A' for Active; 'I' for Inactive)
REMARK    1  A    between atoms: C_2  and  C_3
REMARK    2  A    between atoms: C_6  and  N_7
REMARK    3  A    between atoms: C_8  and  S_9
REMARK    4  A    between atoms: S_9  and  C_10
REMARK    5  A    between atoms: C_10  and  C_11
REMARK    6  A    between atoms: C_11  and  O_13
REMARK                            x       y       z     vdW  Elec       q    Type
REMARK                         _______ _______ _______ _____ _____    ______ ____
ROOT
ATOM      1  N   UNL     1       2.920   6.259  19.111  0.00  0.00    +0.000 N 
ATOM      2  C   UNL     1       4.095   5.744  18.519  0.00  0.00    +0.000 A 
ATOM      3  N   UNL     1       4.295   4.476  18.811  0.00  0.00    +0.000 NA
ATOM      4  C   UNL     1       3.291   4.136  19.683  0.00  0.00    +0.000 A 
ATOM      5  C   UNL     1       3.082   2.955  20.410  0.00  0.00    +0.000 A 
ATOM      6  N   UNL     1       1.978   2.803  21.190  0.00  0.00    +0.000 NA
ATOM      7  C   UNL     1       1.030   3.757  21.161  0.00  0.00    +0.000 A 
ATOM      8  C   UNL     1       1.120   4.916  20.411  0.00  0.00    +0.000 A 
ATOM      9  C   UNL     1       2.348   5.157  19.773  0.00  0.00    +0.000 A 
ENDROOT
BRANCH   1  13
ATOM     10  C   UNL     1       0.452   9.627  18.503  0.00  0.00    +0.000 A 
ATOM     11  C   UNL     1       1.197   9.099  17.453  0.00  0.00    +0.000 A 
ATOM     12  C   UNL     1       2.078   8.048  17.679  0.00  0.00    +0.000 A 
ATOM     13  C   UNL     1       2.295   7.564  18.976  0.00  0.00    +0.000 A 
ATOM     14  C   UNL     1       1.685   8.245  20.091  0.00  0.00    +0.000 A 
ATOM     15  C   UNL     1       2.016   8.053  21.463  0.00  0.00    +0.000 A 
ATOM     16  C   UNL     1       1.172   8.472  22.503  0.00  0.00    +0.000 A 
ATOM     17  C   UNL     1       0.047   9.222  22.212  0.00  0.00    +0.000 A 
ATOM     18  C   UNL     1      -0.161   9.639  20.900  0.00  0.00    +0.000 A 
ATOM     19  C   UNL     1       0.654   9.191  19.825  0.00  0.00    +0.000 A 
BRANCH  10  21
ATOM     20  N   UNL     1      -1.325  11.425  17.903  0.00  0.00    +0.000 NA
ATOM     21  C   UNL     1      -0.524  10.630  18.176  0.00  0.00    +0.000 C 
ENDBRANCH  10  21
ENDBRANCH   1  13
BRANCH   2  22
ATOM     22  S   UNL     1       5.340   6.666  17.708  0.00  0.00    +0.000 S 
BRANCH  22  23
ATOM     23  C   UNL     1       6.474   5.391  16.923  0.00  0.00    +0.000 C 
ATOM     24  C   UNL     1       5.566   4.331  16.193  0.00  0.00    +0.000 C 
ATOM     25  C   UNL     1       6.523   4.396  14.995  0.00  0.00    +0.000 C 
ATOM     26  C   UNL     1       6.988   5.777  15.504  0.00  0.00    +0.000 C 
BRANCH  23  27
ATOM     27  C   UNL     1       7.499   4.796  17.961  0.00  0.00    +0.000 C 
ATOM     28  O   UNL     1       8.454   4.068  17.697  0.00  0.00    +0.000 OA
BRANCH  27  29
ATOM     29  O   UNL     1       7.267   5.151  19.250  0.00  0.00    +0.000 OA
ATOM     30  H   UNL     1       6.312   5.155  19.488  0.00  0.00    +0.000 HD
ENDBRANCH  27  29
ENDBRANCH  23  27
ENDBRANCH  22  23
ENDBRANCH   2  22
TORSDOF 6
ENDMDL
MODEL 6
REMARK VINA RESULT:      -7.1      6.668     10.928
REMARK  Name = 
REMARK  6 active torsions:
REMARK  status: ('A' for Active; 'I' for Inactive)
REMARK    1  A    between atoms: C_2  and  C_3
REMARK    2  A    between atoms: C_6  and  N_7
REMARK    3  A    between atoms: C_8  and  S_9
REMARK    4  A    between atoms: S_9  and  C_10
REMARK    5  A    between atoms: C_10  and  C_11
REMARK    6  A    between atoms: C_11  and  O_13
REMARK                            x       y       z     vdW  Elec       q    Type
REMARK                         _______ _______ _______ _____ _____    ______ ____
ROOT
ATOM      1  N   UNL     1      -1.894  13.671  21.403  0.00  0.00    +0.000 N 
ATOM      2  C   UNL     1      -3.191  14.158  21.680  0.00  0.00    +0.000 A 
ATOM      3  N   UNL     1      -3.174  15.300  22.335  0.00  0.00    +0.000 NA
ATOM      4  C   UNL     1      -1.850  15.561  22.585  0.00  0.00    +0.000 A 
ATOM      5  C   UNL     1      -1.254  16.573  23.352  0.00  0.00    +0.000 A 
ATOM      6  N   UNL     1       0.099  16.684  23.429  0.00  0.00    +0.000 NA
ATOM      7  C   UNL     1       0.858  15.879  22.664  0.00  0.00    +0.000 A 
ATOM      8  C   UNL     1       0.349  14.907  21.820  0.00  0.00    +0.000 A 
ATOM      9  C   UNL     1      -1.032  14.664  21.903  0.00  0.00    +0.000 A 
ENDROOT
BRANCH   1  13
ATOM     10  C   UNL     1       0.035  10.696  19.117  0.00  0.00    +0.000 A 
ATOM     11  C   UNL     1      -0.661  11.726  18.492  0.00  0.00    +0.000 A 
ATOM     12  C   UNL     1      -1.371  12.650  19.248  0.00  0.00    +0.000 A 
ATOM     13  C   UNL     1      -1.470  12.510  20.639  0.00  0.00    +0.000 A 
ATOM     14  C   UNL     1      -0.927  11.331  21.266  0.00  0.00    +0.000 A 
ATOM     15  C   UNL     1      -1.179  10.912  22.605  0.00  0.00    +0.000 A 
ATOM     16  C   UNL     1      -0.369   9.972  23.260  0.00  0.00    +0.000 A 
ATOM     17  C   UNL     1       0.624   9.315  22.557  0.00  0.00    +0.000 A 
ATOM     18  C   UNL     1       0.723   9.522  21.184  0.00  0.00    +0.000 A 
ATOM     19  C   UNL     1      -0.054  10.500  20.507  0.00  0.00    +0.000 A 
BRANCH  10  21
ATOM     20  N   UNL     1       1.505   9.182  17.600  0.00  0.00    +0.000 NA
ATOM     21  C   UNL     1       0.844   9.849  18.283  0.00  0.00    +0.000 C 
ENDBRANCH  10  21
ENDBRANCH   1  13
BRANCH   2  22
ATOM     22  S   UNL     1      -4.694  13.291  21.464  0.00  0.00    +0.000 S 
BRANCH  22  23
ATOM     23  C   UNL     1      -5.492  13.245  23.165  0.00  0.00    +0.000 C 
ATOM     24  C   UNL     1      -6.224  14.622  23.385  0.00  0.00    +0.000 C 
ATOM     25  C   UNL     1      -7.426  13.847  23.943  0.00  0.00    +0.000 C 
ATOM     26  C   UNL     1      -6.910  12.602  23.190  0.00  0.00    +0.000 C 
BRANCH  23  27
ATOM     27  C   UNL     1      -4.462  12.845  24.288  0.00  0.00    +0.000 C 
ATOM     28  O   UNL     1      -4.029  11.716  24.503  0.00  0.00    +0.000 OA
BRANCH  27  29
ATOM     29  O   UNL     1      -4.040  13.880  25.060  0.00  0.00    +0.000 OA
ATOM     30  H   UNL     1      -3.138  14.197  24.828  0.00  0.00    +0.000 HD
ENDBRANCH  27  29
ENDBRANCH  23  27
ENDBRANCH  22  23
ENDBRANCH   2  22
TORSDOF 6
ENDMDL
MODEL 7
REMARK VINA RESULT:      -7.1      6.686      9.972
REMARK  Name = 
REMARK  6 active torsions:
REMARK  status: ('A' for Active; 'I' for Inactive)
REMARK    1  A    between atoms: C_2  and  C_3
REMARK    2  A    between atoms: C_6  and  N_7
REMARK    3  A    between atoms: C_8  and  S_9
REMARK    4  A    between atoms: S_9  and  C_10
REMARK    5  A    between atoms: C_10  and  C_11
REMARK    6  A    between atoms: C_11  and  O_13
REMARK                            x       y       z     vdW  Elec       q    Type
REMARK                         _______ _______ _______ _____ _____    ______ ____
ROOT
ATOM      1  N   UNL     1      -0.423  12.812  20.947  0.00  0.00    +0.000 N 
ATOM      2  C   UNL     1      -0.771  13.135  22.278  0.00  0.00    +0.000 A 
ATOM      3  N   UNL     1      -0.017  14.089  22.781  0.00  0.00    +0.000 NA
ATOM      4  C   UNL     1       0.917  14.369  21.816  0.00  0.00    +0.000 A 
ATOM      5  C   UNL     1       2.040  15.208  21.855  0.00  0.00    +0.000 A 
ATOM      6  N   UNL     1       2.817  15.385  20.753  0.00  0.00    +0.000 NA
ATOM      7  C   UNL     1       2.425  14.834  19.590  0.00  0.00    +0.000 A 
ATOM      8  C   UNL     1       1.289  14.057  19.446  0.00  0.00    +0.000 A 
ATOM      9  C   UNL     1       0.609  13.712  20.626  0.00  0.00    +0.000 A 
ENDROOT
BRANCH   1  13
ATOM     10  C   UNL     1      -2.000  10.678  17.667  0.00  0.00    +0.000 A 
ATOM     11  C   UNL     1      -2.769  11.634  18.323  0.00  0.00    +0.000 A 
ATOM     12  C   UNL     1      -2.279  12.268  19.458  0.00  0.00    +0.000 A 
ATOM     13  C   UNL     1      -1.047  11.893  20.009  0.00  0.00    +0.000 A 
ATOM     14  C   UNL     1      -0.345  10.762  19.456  0.00  0.00    +0.000 A 
ATOM     15  C   UNL     1       0.761  10.096  20.059  0.00  0.00    +0.000 A 
ATOM     16  C   UNL     1       1.608   9.244  19.333  0.00  0.00    +0.000 A 
ATOM     17  C   UNL     1       1.295   8.917  18.026  0.00  0.00    +0.000 A 
ATOM     18  C   UNL     1       0.084   9.354  17.498  0.00  0.00    +0.000 A 
ATOM     19  C   UNL     1      -0.768  10.252  18.196  0.00  0.00    +0.000 A 
BRANCH  10  21
ATOM     20  N   UNL     1      -2.942   9.746  15.432  0.00  0.00    +0.000 NA
ATOM     21  C   UNL     1      -2.518  10.152  16.434  0.00  0.00    +0.000 C 
ENDBRANCH  10  21
ENDBRANCH   1  13
BRANCH   2  22
ATOM     22  S   UNL     1      -1.871  12.248  23.308  0.00  0.00    +0.000 S 
BRANCH  22  23
ATOM     23  C   UNL     1      -3.307  13.415  23.628  0.00  0.00    +0.000 C 
ATOM     24  C   UNL     1      -2.771  14.595  24.523  0.00  0.00    +0.000 C 
ATOM     25  C   UNL     1      -3.532  15.574  23.617  0.00  0.00    +0.000 C 
ATOM     26  C   UNL     1      -3.521  14.488  22.520  0.00  0.00    +0.000 C 
BRANCH  23  27
ATOM     27  C   UNL     1      -4.566  12.658  24.199  0.00  0.00    +0.000 C 
ATOM     28  O   UNL     1      -5.529  12.264  23.546  0.00  0.00    +0.000 OA
BRANCH  27  29
ATOM     29  O   UNL     1      -4.534  12.441  25.538  0.00  0.00    +0.000 OA
ATOM     30  H   UNL     1      -5.312  12.814  26.013  0.00  0.00    +0.000 HD
ENDBRANCH  27  29
ENDBRANCH  23  27
ENDBRANCH  22  23
ENDBRANCH   2  22
TORSDOF 6
ENDMDL
MODEL 8
REMARK VINA RESULT:      -7.0      6.101      8.929
REMARK  Name = 
REMARK  6 active torsions:
REMARK  status: ('A' for Active; 'I' for Inactive)
REMARK    1  A    between atoms: C_2  and  C_3
REMARK    2  A    between atoms: C_6  and  N_7
REMARK    3  A    between atoms: C_8  and  S_9
REMARK    4  A    between atoms: S_9  and  C_10
REMARK    5  A    between atoms: C_10  and  C_11
REMARK    6  A    between atoms: C_11  and  O_13
REMARK                            x       y       z     vdW  Elec       q    Type
REMARK                         _______ _______ _______ _____ _____    ______ ____
ROOT
ATOM      1  N   UNL     1      -2.027  13.212  20.998  0.00  0.00    +0.000 N 
ATOM      2  C   UNL     1      -1.127  14.300  20.951  0.00  0.00    +0.000 A 
ATOM      3  N   UNL     1      -1.100  14.983  22.077  0.00  0.00    +0.000 NA
ATOM      4  C   UNL     1      -2.053  14.409  22.880  0.00  0.00    +0.000 A 
ATOM      5  C   UNL     1      -2.539  14.802  24.135  0.00  0.00    +0.000 A 
ATOM      6  N   UNL     1      -3.463  14.051  24.791  0.00  0.00    +0.000 NA
ATOM      7  C   UNL     1      -3.819  12.863  24.270  0.00  0.00    +0.000 A 
ATOM      8  C   UNL     1      -3.329  12.363  23.076  0.00  0.00    +0.000 A 
ATOM      9  C   UNL     1      -2.536  13.233  22.309  0.00  0.00    +0.000 A 
ENDROOT
BRANCH   1  13
ATOM     10  C   UNL     1      -2.585  10.749  17.618  0.00  0.00    +0.000 A 
ATOM     11  C   UNL     1      -3.624  11.545  18.091  0.00  0.00    +0.000 A 
ATOM     12  C   UNL     1      -3.464  12.283  19.257  0.00  0.00    +0.000 A 
ATOM     13  C   UNL     1      -2.294  12.172  20.019  0.00  0.00    +0.000 A 
ATOM     14  C   UNL     1      -1.304  11.193  19.645  0.00  0.00    +0.000 A 
ATOM     15  C   UNL     1      -0.208  10.771  20.452  0.00  0.00    +0.000 A 
ATOM     16  C   UNL     1       0.898  10.092  19.917  0.00  0.00    +0.000 A 
ATOM     17  C   UNL     1       0.880   9.687  18.596  0.00  0.00    +0.000 A 
ATOM     18  C   UNL     1      -0.287   9.864  17.856  0.00  0.00    +0.000 A 
ATOM     19  C   UNL     1      -1.401  10.587  18.360  0.00  0.00    +0.000 A 
BRANCH  10  21
ATOM     20  N   UNL     1      -2.941   9.607  15.311  0.00  0.00    +0.000 NA
ATOM     21  C   UNL     1      -2.776  10.109  16.346  0.00  0.00    +0.000 C 
ENDBRANCH  10  21
ENDBRANCH   1  13
BRANCH   2  22
ATOM     22  S   UNL     1      -0.310  14.912  19.532  0.00  0.00    +0.000 S 
BRANCH  22  23
ATOM     23  C   UNL     1       1.437  15.312  20.094  0.00  0.00    +0.000 C 
ATOM     24  C   UNL     1       2.341  15.411  18.808  0.00  0.00    +0.000 C 
ATOM     25  C   UNL     1       2.973  16.678  19.399  0.00  0.00    +0.000 C 
ATOM     26  C   UNL     1       1.718  16.832  20.285  0.00  0.00    +0.000 C 
BRANCH  23  27
ATOM     27  C   UNL     1       1.946  14.307  21.196  0.00  0.00    +0.000 C 
ATOM     28  O   UNL     1       2.310  13.149  21.005  0.00  0.00    +0.000 OA
BRANCH  27  29
ATOM     29  O   UNL     1       1.969  14.814  22.455  0.00  0.00    +0.000 OA
ATOM     30  H   UNL     1       1.865  14.129  23.154  0.00  0.00    +0.000 HD
ENDBRANCH  27  29
ENDBRANCH  23  27
ENDBRANCH  22  23
ENDBRANCH   2  22
TORSDOF 6
ENDMDL
MODEL 9
REMARK VINA RESULT:      -7.0      5.952      8.497
REMARK  Name = 
REMARK  6 active torsions:
REMARK  status: ('A' for Active; 'I' for Inactive)
REMARK    1  A    between atoms: C_2  and  C_3
REMARK    2  A    between atoms: C_6  and  N_7
REMARK    3  A    between atoms: C_8  and  S_9
REMARK    4  A    between atoms: S_9  and  C_10
REMARK    5  A    between atoms: C_10  and  C_11
REMARK    6  A    between atoms: C_11  and  O_13
REMARK                            x       y       z     vdW  Elec       q    Type
REMARK                         _______ _______ _______ _____ _____    ______ ____
ROOT
ATOM      1  N   UNL     1      -1.987  13.189  20.954  0.00  0.00    +0.000 N 
ATOM      2  C   UNL     1      -1.086  14.276  20.911  0.00  0.00    +0.000 A 
ATOM      3  N   UNL     1      -1.053  14.951  22.041  0.00  0.00    +0.000 NA
ATOM      4  C   UNL     1      -2.004  14.373  22.844  0.00  0.00    +0.000 A 
ATOM      5  C   UNL     1      -2.484  14.758  24.104  0.00  0.00    +0.000 A 
ATOM      6  N   UNL     1      -3.407  14.004  24.759  0.00  0.00    +0.000 NA
ATOM      7  C   UNL     1      -3.765  12.820  24.231  0.00  0.00    +0.000 A 
ATOM      8  C   UNL     1      -3.281  12.327  23.032  0.00  0.00    +0.000 A 
ATOM      9  C   UNL     1      -2.491  13.202  22.268  0.00  0.00    +0.000 A 
ENDROOT
BRANCH   1  13
ATOM     10  C   UNL     1      -2.549  10.744  17.561  0.00  0.00    +0.000 A 
ATOM     11  C   UNL     1      -3.581  11.552  18.028  0.00  0.00    +0.000 A 
ATOM     12  C   UNL     1      -3.422  12.285  19.198  0.00  0.00    +0.000 A 
ATOM     13  C   UNL     1      -2.260  12.155  19.970  0.00  0.00    +0.000 A 
ATOM     14  C   UNL     1      -1.279  11.165  19.601  0.00  0.00    +0.000 A 
ATOM     15  C   UNL     1      -0.196  10.725  20.416  0.00  0.00    +0.000 A 
ATOM     16  C   UNL     1       0.905  10.034  19.888  0.00  0.00    +0.000 A 
ATOM     17  C   UNL     1       0.893   9.633  18.565  0.00  0.00    +0.000 A 
ATOM     18  C   UNL     1      -0.264   9.827  17.816  0.00  0.00    +0.000 A 
ATOM     19  C   UNL     1      -1.374  10.564  18.314  0.00  0.00    +0.000 A 
BRANCH  10  21
ATOM     20  N   UNL     1      -2.876   9.612  15.246  0.00  0.00    +0.000 NA
ATOM     21  C   UNL     1      -2.737  10.110  16.286  0.00  0.00    +0.000 C 
ENDBRANCH  10  21
ENDBRANCH   1  13
BRANCH   2  22
ATOM     22  S   UNL     1      -0.274  14.896  19.492  0.00  0.00    +0.000 S 
BRANCH  22  23
ATOM     23  C   UNL     1       1.532  14.426  19.705  0.00  0.00    +0.000 C 
ATOM     24  C   UNL     1       2.231  15.576  20.523  0.00  0.00    +0.000 C 
ATOM     25  C   UNL     1       2.927  14.498  21.366  0.00  0.00    +0.000 C 
ATOM     26  C   UNL     1       1.817  13.515  20.935  0.00  0.00    +0.000 C 
BRANCH  23  27
ATOM     27  C   UNL     1       2.214  14.071  18.329  0.00  0.00    +0.000 C 
ATOM     28  O   UNL     1       3.053  14.750  17.743  0.00  0.00    +0.000 OA
BRANCH  27  29
ATOM     29  O   UNL     1       1.808  12.895  17.785  0.00  0.00    +0.000 OA
ATOM     30  H   UNL     1       0.927  12.950  17.351  0.00  0.00    +0.000 HD
ENDBRANCH  27  29
ENDBRANCH  23  27
ENDBRANCH  22  23
ENDBRANCH   2  22
TORSDOF 6
ENDMDL
