MODEL 1
REMARK VINA RESULT:      -8.5      0.000      0.000
REMARK  Name = 
REMARK  6 active torsions:
REMARK  status: ('A' for Active; 'I' for Inactive)
REMARK    1  A    between atoms: C_1  and  C_2
REMARK    2  A    between atoms: N_7  and  C_8
REMARK    3  A    between atoms: C_14  and  C_15
REMARK    4  A    between atoms: N_17  and  C_18
REMARK    5  A    between atoms: C_21  and  C_22
REMARK    6  A    between atoms: C_24  and  C_25
REMARK                            x       y       z     vdW  Elec       q    Type
REMARK                         _______ _______ _______ _____ _____    ______ ____
ROOT
ATOM      1  C   UNL     1       1.074   9.360  17.863  0.00  0.00    +0.000 C 
ATOM      2  C   UNL     1       1.093   9.605  19.374  0.00  0.00    +0.000 C 
ATOM      3  C   UNL     1      -0.350   9.981  19.804  0.00  0.00    +0.000 C 
ATOM      4  N   UNL     1      -0.456  10.289  21.247  0.00  0.00    +0.000 N 
ATOM      5  C   UNL     1      -1.105  11.476  21.550  0.00  0.00    +0.000 C 
ATOM      6  O   UNL     1      -1.563  12.171  20.640  0.00  0.00    +0.000 OA
ATOM      7  N   UNL     1      -1.155  11.867  22.861  0.00  0.00    +0.000 N 
ATOM      8  C   UNL     1       0.000   9.143  22.087  0.00  0.00    +0.000 C 
ATOM      9  C   UNL     1      -0.072   9.251  23.608  0.00  0.00    +0.000 C 
ATOM     10  C   UNL     1       1.453   8.746  21.684  0.00  0.00    +0.000 C 
ATOM     11  N   UNL     1       1.568   8.475  20.231  0.00  0.00    +0.000 N 
ATOM     12  H   UNL     1      -0.437  11.506  23.458  0.00  0.00    +0.000 HD
ENDROOT
BRANCH   7  13
ATOM     13  C   UNL     1      -1.763  13.060  23.333  0.00  0.00    +0.000 A 
ATOM     14  C   UNL     1      -1.082  14.265  23.494  0.00  0.00    +0.000 A 
ATOM     15  C   UNL     1      -1.721  15.362  24.065  0.00  0.00    +0.000 A 
ATOM     16  C   UNL     1      -3.045  15.229  24.439  0.00  0.00    +0.000 A 
ATOM     17  N   UNL     1      -3.763  14.101  24.255  0.00  0.00    +0.000 NA
ATOM     18  C   UNL     1      -3.107  13.049  23.703  0.00  0.00    +0.000 A 
ENDBRANCH   7  13
BRANCH  11  19
ATOM     19  C   UNL     1       2.048   7.264  19.780  0.00  0.00    +0.000 A 
ATOM     20  C   UNL     1       2.724   7.130  18.566  0.00  0.00    +0.000 A 
ATOM     21  C   UNL     1       3.078   5.907  18.012  0.00  0.00    +0.000 A 
ATOM     22  C   UNL     1       2.842   4.738  18.731  0.00  0.00    +0.000 A 
ATOM     23  C   UNL     1       2.272   4.818  20.007  0.00  0.00    +0.000 A 
ATOM     24  C   UNL     1       1.883   6.081  20.506  0.00  0.00    +0.000 A 
BRANCH  23  25
ATOM     25  C   UNL     1       2.047   3.608  20.868  0.00  0.00    +0.000 C 
ATOM     26  F   UNL     1       2.960   2.612  20.710  0.00  0.00    +0.000 F 
ATOM     27  F   UNL     1       2.069   3.920  22.194  0.00  0.00    +0.000 F 
ATOM     28  F   UNL     1       0.833   3.032  20.647  0.00  0.00    +0.000 F 
ENDBRANCH  23  25
BRANCH  22  29
ATOM     29  C   UNL     1       3.208   3.515  18.102  0.00  0.00    +0.000 C 
ATOM     30  N   UNL     1       3.539   2.563  17.560  0.00  0.00    +0.000 NA
ENDBRANCH  22  29
ENDBRANCH  11  19
TORSDOF 4
ENDMDL
MODEL 2
REMARK VINA RESULT:      -8.4      0.569      1.162
REMARK  Name = 
REMARK  6 active torsions:
REMARK  status: ('A' for Active; 'I' for Inactive)
REMARK    1  A    between atoms: C_1  and  C_2
REMARK    2  A    between atoms: N_7  and  C_8
REMARK    3  A    between atoms: C_14  and  C_15
REMARK    4  A    between atoms: N_17  and  C_18
REMARK    5  A    between atoms: C_21  and  C_22
REMARK    6  A    between atoms: C_24  and  C_25
REMARK                            x       y       z     vdW  Elec       q    Type
REMARK                         _______ _______ _______ _____ _____    ______ ____
ROOT
ATOM      1  C   UNL     1       1.049   9.372  17.766  0.00  0.00    +0.000 C 
ATOM      2  C   UNL     1       1.083   9.629  19.274  0.00  0.00    +0.000 C 
ATOM      3  C   UNL     1      -0.359   9.995  19.718  0.00  0.00    +0.000 C 
ATOM      4  N   UNL     1      -0.451  10.313  21.160  0.00  0.00    +0.000 N 
ATOM      5  C   UNL     1      -1.109  11.496  21.460  0.00  0.00    +0.000 C 
ATOM      6  O   UNL     1      -1.584  12.179  20.550  0.00  0.00    +0.000 OA
ATOM      7  N   UNL     1      -1.147  11.898  22.768  0.00  0.00    +0.000 N 
ATOM      8  C   UNL     1       0.026   9.179  22.004  0.00  0.00    +0.000 C 
ATOM      9  C   UNL     1      -0.029   9.299  23.524  0.00  0.00    +0.000 C 
ATOM     10  C   UNL     1       1.478   8.793  21.587  0.00  0.00    +0.000 C 
ATOM     11  N   UNL     1       1.579   8.511  20.135  0.00  0.00    +0.000 N 
ATOM     12  H   UNL     1      -0.419  11.549  23.360  0.00  0.00    +0.000 HD
ENDROOT
BRANCH   7  13
ATOM     13  C   UNL     1      -1.761  13.089  23.238  0.00  0.00    +0.000 A 
ATOM     14  C   UNL     1      -3.098  13.172  23.618  0.00  0.00    +0.000 A 
ATOM     15  C   UNL     1      -3.655  14.401  23.964  0.00  0.00    +0.000 A 
ATOM     16  C   UNL     1      -2.842  15.518  23.944  0.00  0.00    +0.000 A 
ATOM     17  N   UNL     1      -1.529  15.481  23.634  0.00  0.00    +0.000 NA
ATOM     18  C   UNL     1      -1.021  14.269  23.295  0.00  0.00    +0.000 A 
ENDBRANCH   7  13
BRANCH  11  19
ATOM     19  C   UNL     1       2.066   7.302  19.689  0.00  0.00    +0.000 A 
ATOM     20  C   UNL     1       2.724   7.163  18.465  0.00  0.00    +0.000 A 
ATOM     21  C   UNL     1       3.083   5.939  17.917  0.00  0.00    +0.000 A 
ATOM     22  C   UNL     1       2.873   4.775  18.652  0.00  0.00    +0.000 A 
ATOM     23  C   UNL     1       2.322   4.861  19.936  0.00  0.00    +0.000 A 
ATOM     24  C   UNL     1       1.926   6.124  20.428  0.00  0.00    +0.000 A 
BRANCH  23  25
ATOM     25  C   UNL     1       2.124   3.657  20.812  0.00  0.00    +0.000 C 
ATOM     26  F   UNL     1       1.963   3.929  22.135  0.00  0.00    +0.000 F 
ATOM     27  F   UNL     1       1.023   2.942  20.447  0.00  0.00    +0.000 F 
ATOM     28  F   UNL     1       3.168   2.785  20.741  0.00  0.00    +0.000 F 
ENDBRANCH  23  25
BRANCH  22  29
ATOM     29  C   UNL     1       3.243   3.549  18.029  0.00  0.00    +0.000 C 
ATOM     30  N   UNL     1       3.529   2.535  17.581  0.00  0.00    +0.000 NA
ENDBRANCH  22  29
ENDBRANCH  11  19
TORSDOF 4
ENDMDL
MODEL 3
REMARK VINA RESULT:      -8.3      1.932      2.480
REMARK  Name = 
REMARK  6 active torsions:
REMARK  status: ('A' for Active; 'I' for Inactive)
REMARK    1  A    between atoms: C_1  and  C_2
REMARK    2  A    between atoms: N_7  and  C_8
REMARK    3  A    between atoms: C_14  and  C_15
REMARK    4  A    between atoms: N_17  and  C_18
REMARK    5  A    between atoms: C_21  and  C_22
REMARK    6  A    between atoms: C_24  and  C_25
REMARK                            x       y       z     vdW  Elec       q    Type
REMARK                         _______ _______ _______ _____ _____    ______ ____
ROOT
ATOM      1  C   UNL     1       1.459   9.001  17.810  0.00  0.00    +0.000 C 
ATOM      2  C   UNL     1       1.386   9.354  19.297  0.00  0.00    +0.000 C 
ATOM      3  C   UNL     1      -0.032   9.921  19.574  0.00  0.00    +0.000 C 
ATOM      4  N   UNL     1      -0.216  10.345  20.979  0.00  0.00    +0.000 N 
ATOM      5  C   UNL     1      -0.743  11.617  21.145  0.00  0.00    +0.000 C 
ATOM      6  O   UNL     1      -1.043  12.288  20.155  0.00  0.00    +0.000 OA
ATOM      7  N   UNL     1      -0.850  12.108  22.419  0.00  0.00    +0.000 N 
ATOM      8  C   UNL     1       0.034   9.222  21.929  0.00  0.00    +0.000 C 
ATOM      9  C   UNL     1      -0.145   9.451  23.427  0.00  0.00    +0.000 C 
ATOM     10  C   UNL     1       1.457   8.636  21.681  0.00  0.00    +0.000 C 
ATOM     11  N   UNL     1       1.655   8.245  20.265  0.00  0.00    +0.000 N 
ATOM     12  H   UNL     1      -0.229  11.715  23.099  0.00  0.00    +0.000 HD
ENDROOT
BRANCH   7  13
ATOM     13  C   UNL     1      -1.349  13.394  22.757  0.00  0.00    +0.000 A 
ATOM     14  C   UNL     1      -2.679  13.647  23.084  0.00  0.00    +0.000 A 
ATOM     15  C   UNL     1      -3.114  14.952  23.298  0.00  0.00    +0.000 A 
ATOM     16  C   UNL     1      -2.190  15.975  23.202  0.00  0.00    +0.000 A 
ATOM     17  N   UNL     1      -0.880  15.778  22.939  0.00  0.00    +0.000 NA
ATOM     18  C   UNL     1      -0.493  14.494  22.730  0.00  0.00    +0.000 A 
ENDBRANCH   7  13
BRANCH  11  19
ATOM     19  C   UNL     1       2.024   6.959  19.938  0.00  0.00    +0.000 A 
ATOM     20  C   UNL     1       1.573   5.845  20.648  0.00  0.00    +0.000 A 
ATOM     21  C   UNL     1       2.049   4.556  20.445  0.00  0.00    +0.000 A 
ATOM     22  C   UNL     1       2.959   4.319  19.418  0.00  0.00    +0.000 A 
ATOM     23  C   UNL     1       3.361   5.378  18.596  0.00  0.00    +0.000 A 
ATOM     24  C   UNL     1       2.888   6.680  18.875  0.00  0.00    +0.000 A 
BRANCH  23  25
ATOM     25  C   UNL     1       4.289   5.188  17.431  0.00  0.00    +0.000 C 
ATOM     26  F   UNL     1       3.919   4.216  16.554  0.00  0.00    +0.000 F 
ATOM     27  F   UNL     1       4.409   6.325  16.689  0.00  0.00    +0.000 F 
ATOM     28  F   UNL     1       5.554   4.870  17.819  0.00  0.00    +0.000 F 
ENDBRANCH  23  25
BRANCH  22  29
ATOM     29  C   UNL     1       3.426   2.982  19.273  0.00  0.00    +0.000 C 
ATOM     30  N   UNL     1       3.841   1.927  19.114  0.00  0.00    +0.000 NA
ENDBRANCH  22  29
ENDBRANCH  11  19
TORSDOF 4
ENDMDL
MODEL 4
REMARK VINA RESULT:      -8.3      1.821      2.283
REMARK  Name = 
REMARK  6 active torsions:
REMARK  status: ('A' for Active; 'I' for Inactive)
REMARK    1  A    between atoms: C_1  and  C_2
REMARK    2  A    between atoms: N_7  and  C_8
REMARK    3  A    between atoms: C_14  and  C_15
REMARK    4  A    between atoms: N_17  and  C_18
REMARK    5  A    between atoms: C_21  and  C_22
REMARK    6  A    between atoms: C_24  and  C_25
REMARK                            x       y       z     vdW  Elec       q    Type
REMARK                         _______ _______ _______ _____ _____    ______ ____
ROOT
ATOM      1  C   UNL     1       1.507   9.003  17.814  0.00  0.00    +0.000 C 
ATOM      2  C   UNL     1       1.416   9.350  19.301  0.00  0.00    +0.000 C 
ATOM      3  C   UNL     1      -0.004   9.920  19.561  0.00  0.00    +0.000 C 
ATOM      4  N   UNL     1      -0.204  10.340  20.966  0.00  0.00    +0.000 N 
ATOM      5  C   UNL     1      -0.730  11.612  21.131  0.00  0.00    +0.000 C 
ATOM      6  O   UNL     1      -1.014  12.288  20.139  0.00  0.00    +0.000 OA
ATOM      7  N   UNL     1      -0.852  12.098  22.404  0.00  0.00    +0.000 N 
ATOM      8  C   UNL     1       0.030   9.211  21.914  0.00  0.00    +0.000 C 
ATOM      9  C   UNL     1      -0.169   9.435  23.411  0.00  0.00    +0.000 C 
ATOM     10  C   UNL     1       1.454   8.622  21.683  0.00  0.00    +0.000 C 
ATOM     11  N   UNL     1       1.669   8.237  20.268  0.00  0.00    +0.000 N 
ATOM     12  H   UNL     1      -0.242  11.700  23.091  0.00  0.00    +0.000 HD
ENDROOT
BRANCH   7  13
ATOM     13  C   UNL     1      -1.352  13.384  22.741  0.00  0.00    +0.000 A 
ATOM     14  C   UNL     1      -0.556  14.523  22.836  0.00  0.00    +0.000 A 
ATOM     15  C   UNL     1      -1.101  15.727  23.277  0.00  0.00    +0.000 A 
ATOM     16  C   UNL     1      -2.447  15.761  23.590  0.00  0.00    +0.000 A 
ATOM     17  N   UNL     1      -3.271  14.699  23.465  0.00  0.00    +0.000 NA
ATOM     18  C   UNL     1      -2.705  13.541  23.039  0.00  0.00    +0.000 A 
ENDBRANCH   7  13
BRANCH  11  19
ATOM     19  C   UNL     1       2.039   6.950  19.940  0.00  0.00    +0.000 A 
ATOM     20  C   UNL     1       1.580   5.835  20.645  0.00  0.00    +0.000 A 
ATOM     21  C   UNL     1       2.056   4.547  20.442  0.00  0.00    +0.000 A 
ATOM     22  C   UNL     1       2.973   4.310  19.421  0.00  0.00    +0.000 A 
ATOM     23  C   UNL     1       3.383   5.371  18.605  0.00  0.00    +0.000 A 
ATOM     24  C   UNL     1       2.910   6.673  18.883  0.00  0.00    +0.000 A 
BRANCH  23  25
ATOM     25  C   UNL     1       4.319   5.182  17.445  0.00  0.00    +0.000 C 
ATOM     26  F   UNL     1       5.584   4.815  17.782  0.00  0.00    +0.000 F 
ATOM     27  F   UNL     1       3.873   4.222  16.587  0.00  0.00    +0.000 F 
ATOM     28  F   UNL     1       4.451   6.311  16.695  0.00  0.00    +0.000 F 
ENDBRANCH  23  25
BRANCH  22  29
ATOM     29  C   UNL     1       3.439   2.973  19.276  0.00  0.00    +0.000 C 
ATOM     30  N   UNL     1       3.802   1.902  19.099  0.00  0.00    +0.000 NA
ENDBRANCH  22  29
ENDBRANCH  11  19
TORSDOF 4
ENDMDL
MODEL 5
REMARK VINA RESULT:      -7.7      4.261      9.726
REMARK  Name = 
REMARK  6 active torsions:
REMARK  status: ('A' for Active; 'I' for Inactive)
REMARK    1  A    between atoms: C_1  and  C_2
REMARK    2  A    between atoms: N_7  and  C_8
REMARK    3  A    between atoms: C_14  and  C_15
REMARK    4  A    between atoms: N_17  and  C_18
REMARK    5  A    between atoms: C_21  and  C_22
REMARK    6  A    between atoms: C_24  and  C_25
REMARK                            x       y       z     vdW  Elec       q    Type
REMARK                         _______ _______ _______ _____ _____    ______ ____
ROOT
ATOM      1  C   UNL     1      -1.076  12.418  18.479  0.00  0.00    +0.000 C 
ATOM      2  C   UNL     1      -0.713  11.109  19.184  0.00  0.00    +0.000 C 
ATOM      3  C   UNL     1       0.765  10.787  18.839  0.00  0.00    +0.000 C 
ATOM      4  N   UNL     1       1.226   9.511  19.429  0.00  0.00    +0.000 N 
ATOM      5  C   UNL     1       1.856   8.647  18.545  0.00  0.00    +0.000 C 
ATOM      6  O   UNL     1       2.015   8.986  17.370  0.00  0.00    +0.000 OA
ATOM      7  N   UNL     1       2.223   7.411  19.004  0.00  0.00    +0.000 N 
ATOM      8  C   UNL     1       1.080   9.508  20.914  0.00  0.00    +0.000 C 
ATOM      9  C   UNL     1       1.541   8.292  21.712  0.00  0.00    +0.000 C 
ATOM     10  C   UNL     1      -0.400   9.822  21.293  0.00  0.00    +0.000 C 
ATOM     11  N   UNL     1      -0.874  11.081  20.671  0.00  0.00    +0.000 N 
ATOM     12  H   UNL     1       1.711   7.060  19.790  0.00  0.00    +0.000 HD
ENDROOT
BRANCH   7  13
ATOM     13  C   UNL     1       2.857   6.407  18.225  0.00  0.00    +0.000 A 
ATOM     14  C   UNL     1       2.315   5.144  18.001  0.00  0.00    +0.000 A 
ATOM     15  C   UNL     1       3.047   4.177  17.316  0.00  0.00    +0.000 A 
ATOM     16  C   UNL     1       4.302   4.515  16.848  0.00  0.00    +0.000 A 
ATOM     17  N   UNL     1       4.850   5.740  16.993  0.00  0.00    +0.000 NA
ATOM     18  C   UNL     1       4.112   6.655  17.671  0.00  0.00    +0.000 A 
ENDBRANCH   7  13
BRANCH  11  19
ATOM     19  C   UNL     1      -1.379  12.100  21.449  0.00  0.00    +0.000 A 
ATOM     20  C   UNL     1      -0.561  13.048  22.067  0.00  0.00    +0.000 A 
ATOM     21  C   UNL     1      -1.023  13.985  22.981  0.00  0.00    +0.000 A 
ATOM     22  C   UNL     1      -2.388  14.069  23.242  0.00  0.00    +0.000 A 
ATOM     23  C   UNL     1      -3.272  13.221  22.565  0.00  0.00    +0.000 A 
ATOM     24  C   UNL     1      -2.749  12.249  21.683  0.00  0.00    +0.000 A 
BRANCH  23  25
ATOM     25  C   UNL     1      -4.761  13.295  22.747  0.00  0.00    +0.000 C 
ATOM     26  F   UNL     1      -5.315  14.504  22.462  0.00  0.00    +0.000 F 
ATOM     27  F   UNL     1      -5.412  12.396  21.956  0.00  0.00    +0.000 F 
ATOM     28  F   UNL     1      -5.144  13.007  24.021  0.00  0.00    +0.000 F 
ENDBRANCH  23  25
BRANCH  22  29
ATOM     29  C   UNL     1      -2.798  15.036  24.204  0.00  0.00    +0.000 C 
ATOM     30  N   UNL     1      -3.133  15.768  25.018  0.00  0.00    +0.000 NA
ENDBRANCH  22  29
ENDBRANCH  11  19
TORSDOF 4
ENDMDL
MODEL 6
REMARK VINA RESULT:      -7.6      4.154      9.706
REMARK  Name = 
REMARK  6 active torsions:
REMARK  status: ('A' for Active; 'I' for Inactive)
REMARK    1  A    between atoms: C_1  and  C_2
REMARK    2  A    between atoms: N_7  and  C_8
REMARK    3  A    between atoms: C_14  and  C_15
REMARK    4  A    between atoms: N_17  and  C_18
REMARK    5  A    between atoms: C_21  and  C_22
REMARK    6  A    between atoms: C_24  and  C_25
REMARK                            x       y       z     vdW  Elec       q    Type
REMARK                         _______ _______ _______ _____ _____    ______ ____
ROOT
ATOM      1  C   UNL     1      -0.346   9.793  23.296  0.00  0.00    +0.000 C 
ATOM      2  C   UNL     1       0.571   9.819  22.071  0.00  0.00    +0.000 C 
ATOM      3  C   UNL     1       0.323   8.510  21.275  0.00  0.00    +0.000 C 
ATOM      4  N   UNL     1       1.190   8.392  20.082  0.00  0.00    +0.000 N 
ATOM      5  C   UNL     1       1.859   7.184  19.958  0.00  0.00    +0.000 C 
ATOM      6  O   UNL     1       1.684   6.300  20.799  0.00  0.00    +0.000 OA
ATOM      7  N   UNL     1       2.750   7.044  18.927  0.00  0.00    +0.000 N 
ATOM      8  C   UNL     1       1.007   9.547  19.155  0.00  0.00    +0.000 C 
ATOM      9  C   UNL     1       1.785   9.587  17.842  0.00  0.00    +0.000 C 
ATOM     10  C   UNL     1       1.257  10.879  19.925  0.00  0.00    +0.000 C 
ATOM     11  N   UNL     1       0.417  10.980  21.141  0.00  0.00    +0.000 N 
ATOM     12  H   UNL     1       3.142   7.891  18.563  0.00  0.00    +0.000 HD
ENDROOT
BRANCH   7  13
ATOM     13  C   UNL     1       3.527   5.883  18.674  0.00  0.00    +0.000 A 
ATOM     14  C   UNL     1       3.141   4.869  17.801  0.00  0.00    +0.000 A 
ATOM     15  C   UNL     1       3.906   3.711  17.687  0.00  0.00    +0.000 A 
ATOM     16  C   UNL     1       5.061   3.611  18.441  0.00  0.00    +0.000 A 
ATOM     17  N   UNL     1       5.505   4.587  19.261  0.00  0.00    +0.000 NA
ATOM     18  C   UNL     1       4.731   5.699  19.352  0.00  0.00    +0.000 A 
ENDBRANCH   7  13
BRANCH  11  19
ATOM     19  C   UNL     1      -0.426  12.055  21.323  0.00  0.00    +0.000 A 
ATOM     20  C   UNL     1      -0.018  13.230  21.957  0.00  0.00    +0.000 A 
ATOM     21  C   UNL     1      -0.882  14.263  22.295  0.00  0.00    +0.000 A 
ATOM     22  C   UNL     1      -2.218  14.190  21.908  0.00  0.00    +0.000 A 
ATOM     23  C   UNL     1      -2.661  13.088  21.168  0.00  0.00    +0.000 A 
ATOM     24  C   UNL     1      -1.756  12.039  20.893  0.00  0.00    +0.000 A 
BRANCH  23  25
ATOM     25  C   UNL     1      -4.070  12.969  20.662  0.00  0.00    +0.000 C 
ATOM     26  F   UNL     1      -4.589  14.111  20.135  0.00  0.00    +0.000 F 
ATOM     27  F   UNL     1      -4.176  12.030  19.680  0.00  0.00    +0.000 F 
ATOM     28  F   UNL     1      -4.941  12.583  21.634  0.00  0.00    +0.000 F 
ENDBRANCH  23  25
BRANCH  22  29
ATOM     29  C   UNL     1      -3.059  15.270  22.302  0.00  0.00    +0.000 C 
ATOM     30  N   UNL     1      -3.704  16.173  22.580  0.00  0.00    +0.000 NA
ENDBRANCH  22  29
ENDBRANCH  11  19
TORSDOF 4
ENDMDL
MODEL 7
REMARK VINA RESULT:      -7.6      1.647      1.824
REMARK  Name = 
REMARK  6 active torsions:
REMARK  status: ('A' for Active; 'I' for Inactive)
REMARK    1  A    between atoms: C_1  and  C_2
REMARK    2  A    between atoms: N_7  and  C_8
REMARK    3  A    between atoms: C_14  and  C_15
REMARK    4  A    between atoms: N_17  and  C_18
REMARK    5  A    between atoms: C_21  and  C_22
REMARK    6  A    between atoms: C_24  and  C_25
REMARK                            x       y       z     vdW  Elec       q    Type
REMARK                         _______ _______ _______ _____ _____    ______ ____
ROOT
ATOM      1  C   UNL     1       2.309   8.433  17.605  0.00  0.00    +0.000 C 
ATOM      2  C   UNL     1       1.901   8.876  19.012  0.00  0.00    +0.000 C 
ATOM      3  C   UNL     1       0.447   9.410  18.930  0.00  0.00    +0.000 C 
ATOM      4  N   UNL     1      -0.053   9.916  20.228  0.00  0.00    +0.000 N 
ATOM      5  C   UNL     1      -0.628  11.177  20.186  0.00  0.00    +0.000 C 
ATOM      6  O   UNL     1      -0.712  11.774  19.110  0.00  0.00    +0.000 OA
ATOM      7  N   UNL     1      -1.024  11.743  21.367  0.00  0.00    +0.000 N 
ATOM      8  C   UNL     1       0.001   8.863  21.284  0.00  0.00    +0.000 C 
ATOM      9  C   UNL     1      -0.511   9.179  22.686  0.00  0.00    +0.000 C 
ATOM     10  C   UNL     1       1.455   8.311  21.396  0.00  0.00    +0.000 C 
ATOM     11  N   UNL     1       1.970   7.839  20.089  0.00  0.00    +0.000 N 
ATOM     12  H   UNL     1      -0.563  11.414  22.193  0.00  0.00    +0.000 HD
ENDROOT
BRANCH   7  13
ATOM     13  C   UNL     1      -1.610  13.030  21.498  0.00  0.00    +0.000 A 
ATOM     14  C   UNL     1      -2.976  13.274  21.381  0.00  0.00    +0.000 A 
ATOM     15  C   UNL     1      -3.462  14.579  21.414  0.00  0.00    +0.000 A 
ATOM     16  C   UNL     1      -2.560  15.610  21.591  0.00  0.00    +0.000 A 
ATOM     17  N   UNL     1      -1.234  15.422  21.762  0.00  0.00    +0.000 NA
ATOM     18  C   UNL     1      -0.795  14.139  21.717  0.00  0.00    +0.000 A 
ENDBRANCH   7  13
BRANCH  11  19
ATOM     19  C   UNL     1       2.427   6.548  19.940  0.00  0.00    +0.000 A 
ATOM     20  C   UNL     1       3.697   6.254  19.441  0.00  0.00    +0.000 A 
ATOM     21  C   UNL     1       4.125   4.970  19.132  0.00  0.00    +0.000 A 
ATOM     22  C   UNL     1       3.296   3.887  19.413  0.00  0.00    +0.000 A 
ATOM     23  C   UNL     1       2.055   4.111  20.021  0.00  0.00    +0.000 A 
ATOM     24  C   UNL     1       1.643   5.439  20.270  0.00  0.00    +0.000 A 
BRANCH  23  25
ATOM     25  C   UNL     1       1.134   2.991  20.412  0.00  0.00    +0.000 C 
ATOM     26  F   UNL     1       1.376   1.805  19.791  0.00  0.00    +0.000 F 
ATOM     27  F   UNL     1       1.199   2.726  21.748  0.00  0.00    +0.000 F 
ATOM     28  F   UNL     1      -0.172   3.278  20.159  0.00  0.00    +0.000 F 
ENDBRANCH  23  25
BRANCH  22  29
ATOM     29  C   UNL     1       3.781   2.598  19.054  0.00  0.00    +0.000 C 
ATOM     30  N   UNL     1       4.126   1.537  18.798  0.00  0.00    +0.000 NA
ENDBRANCH  22  29
ENDBRANCH  11  19
TORSDOF 4
ENDMDL
MODEL 8
REMARK VINA RESULT:      -7.4      2.089      3.043
REMARK  Name = 
REMARK  6 active torsions:
REMARK  status: ('A' for Active; 'I' for Inactive)
REMARK    1  A    between atoms: C_1  and  C_2
REMARK    2  A    between atoms: N_7  and  C_8
REMARK    3  A    between atoms: C_14  and  C_15
REMARK    4  A    between atoms: N_17  and  C_18
REMARK    5  A    between atoms: C_21  and  C_22
REMARK    6  A    between atoms: C_24  and  C_25
REMARK                            x       y       z     vdW  Elec       q    Type
REMARK                         _______ _______ _______ _____ _____    ______ ____
ROOT
ATOM      1  C   UNL     1       1.346   9.248  22.517  0.00  0.00    +0.000 C 
ATOM      2  C   UNL     1       0.127   9.692  21.705  0.00  0.00    +0.000 C 
ATOM      3  C   UNL     1      -0.085  11.206  21.971  0.00  0.00    +0.000 C 
ATOM      4  N   UNL     1      -1.271  11.750  21.273  0.00  0.00    +0.000 N 
ATOM      5  C   UNL     1      -2.133  12.489  22.068  0.00  0.00    +0.000 C 
ATOM      6  O   UNL     1      -1.864  12.669  23.258  0.00  0.00    +0.000 OA
ATOM      7  N   UNL     1      -3.297  12.942  21.507  0.00  0.00    +0.000 N 
ATOM      8  C   UNL     1      -1.184  11.540  19.799  0.00  0.00    +0.000 C 
ATOM      9  C   UNL     1      -2.296  12.070  18.897  0.00  0.00    +0.000 C 
ATOM     10  C   UNL     1      -0.978  10.024  19.498  0.00  0.00    +0.000 C 
ATOM     11  N   UNL     1       0.187   9.469  20.227  0.00  0.00    +0.000 N 
ATOM     12  H   UNL     1      -3.637  12.429  20.717  0.00  0.00    +0.000 HD
ENDROOT
BRANCH   7  13
ATOM     13  C   UNL     1      -4.291  13.693  22.188  0.00  0.00    +0.000 A 
ATOM     14  C   UNL     1      -4.265  15.080  22.310  0.00  0.00    +0.000 A 
ATOM     15  C   UNL     1      -5.218  15.736  23.085  0.00  0.00    +0.000 A 
ATOM     16  C   UNL     1      -6.196  14.978  23.702  0.00  0.00    +0.000 A 
ATOM     17  N   UNL     1      -6.295  13.638  23.572  0.00  0.00    +0.000 NA
ATOM     18  C   UNL     1      -5.346  13.032  22.815  0.00  0.00    +0.000 A 
ENDBRANCH   7  13
BRANCH  11  19
ATOM     19  C   UNL     1       1.208   8.845  19.544  0.00  0.00    +0.000 A 
ATOM     20  C   UNL     1       1.808   9.406  18.415  0.00  0.00    +0.000 A 
ATOM     21  C   UNL     1       2.724   8.734  17.616  0.00  0.00    +0.000 A 
ATOM     22  C   UNL     1       3.157   7.465  17.992  0.00  0.00    +0.000 A 
ATOM     23  C   UNL     1       2.677   6.897  19.177  0.00  0.00    +0.000 A 
ATOM     24  C   UNL     1       1.708   7.598  19.930  0.00  0.00    +0.000 A 
BRANCH  23  25
ATOM     25  C   UNL     1       3.144   5.562  19.680  0.00  0.00    +0.000 C 
ATOM     26  F   UNL     1       4.481   5.471  19.912  0.00  0.00    +0.000 F 
ATOM     27  F   UNL     1       2.543   5.225  20.855  0.00  0.00    +0.000 F 
ATOM     28  F   UNL     1       2.852   4.550  18.816  0.00  0.00    +0.000 F 
ENDBRANCH  23  25
BRANCH  22  29
ATOM     29  C   UNL     1       4.080   6.820  17.121  0.00  0.00    +0.000 C 
ATOM     30  N   UNL     1       4.863   6.345  16.433  0.00  0.00    +0.000 NA
ENDBRANCH  22  29
ENDBRANCH  11  19
TORSDOF 4
ENDMDL
MODEL 9
REMARK VINA RESULT:      -7.3      3.943      9.666
REMARK  Name = 
REMARK  6 active torsions:
REMARK  status: ('A' for Active; 'I' for Inactive)
REMARK    1  A    between atoms: C_1  and  C_2
REMARK    2  A    between atoms: N_7  and  C_8
REMARK    3  A    between atoms: C_14  and  C_15
REMARK    4  A    between atoms: N_17  and  C_18
REMARK    5  A    between atoms: C_21  and  C_22
REMARK    6  A    between atoms: C_24  and  C_25
REMARK                            x       y       z     vdW  Elec       q    Type
REMARK                         _______ _______ _______ _____ _____    ______ ____
ROOT
ATOM      1  C   UNL     1      -0.146   9.635  23.450  0.00  0.00    +0.000 C 
ATOM      2  C   UNL     1       0.726   9.673  22.193  0.00  0.00    +0.000 C 
ATOM      3  C   UNL     1       0.433   8.382  21.383  0.00  0.00    +0.000 C 
ATOM      4  N   UNL     1       1.254   8.277  20.156  0.00  0.00    +0.000 N 
ATOM      5  C   UNL     1       1.903   7.063  19.985  0.00  0.00    +0.000 C 
ATOM      6  O   UNL     1       1.747   6.165  20.816  0.00  0.00    +0.000 OA
ATOM      7  N   UNL     1       2.753   6.932  18.921  0.00  0.00    +0.000 N 
ATOM      8  C   UNL     1       1.052   9.451  19.258  0.00  0.00    +0.000 C 
ATOM      9  C   UNL     1       1.782   9.507  17.919  0.00  0.00    +0.000 C 
ATOM     10  C   UNL     1       1.348  10.765  20.043  0.00  0.00    +0.000 C 
ATOM     11  N   UNL     1       0.554  10.854  21.291  0.00  0.00    +0.000 N 
ATOM     12  H   UNL     1       3.143   7.780  18.558  0.00  0.00    +0.000 HD
ENDROOT
BRANCH   7  13
ATOM     13  C   UNL     1       3.505   5.767  18.617  0.00  0.00    +0.000 A 
ATOM     14  C   UNL     1       3.079   4.779  17.732  0.00  0.00    +0.000 A 
ATOM     15  C   UNL     1       3.823   3.614  17.569  0.00  0.00    +0.000 A 
ATOM     16  C   UNL     1       4.997   3.479  18.286  0.00  0.00    +0.000 A 
ATOM     17  N   UNL     1       5.479   4.429  19.115  0.00  0.00    +0.000 NA
ATOM     18  C   UNL     1       4.725   5.549  19.255  0.00  0.00    +0.000 A 
ENDBRANCH   7  13
BRANCH  11  19
ATOM     19  C   UNL     1      -0.268  11.936  21.524  0.00  0.00    +0.000 A 
ATOM     20  C   UNL     1      -0.034  13.191  20.960  0.00  0.00    +0.000 A 
ATOM     21  C   UNL     1      -0.747  14.333  21.299  0.00  0.00    +0.000 A 
ATOM     22  C   UNL     1      -1.823  14.231  22.177  0.00  0.00    +0.000 A 
ATOM     23  C   UNL     1      -2.179  12.977  22.686  0.00  0.00    +0.000 A 
ATOM     24  C   UNL     1      -1.391  11.852  22.352  0.00  0.00    +0.000 A 
BRANCH  23  25
ATOM     25  C   UNL     1      -3.364  12.778  23.587  0.00  0.00    +0.000 C 
ATOM     26  F   UNL     1      -3.422  13.619  24.654  0.00  0.00    +0.000 F 
ATOM     27  F   UNL     1      -4.540  12.948  22.920  0.00  0.00    +0.000 F 
ATOM     28  F   UNL     1      -3.416  11.521  24.107  0.00  0.00    +0.000 F 
ENDBRANCH  23  25
BRANCH  22  29
ATOM     29  C   UNL     1      -2.501  15.439  22.502  0.00  0.00    +0.000 C 
ATOM     30  N   UNL     1      -3.054  16.390  22.820  0.00  0.00    +0.000 NA
ENDBRANCH  22  29
ENDBRANCH  11  19
TORSDOF 4
ENDMDL
