MODEL 1
REMARK VINA RESULT:      -8.6      0.000      0.000
REMARK  Name = 
REMARK  5 active torsions:
REMARK  status: ('A' for Active; 'I' for Inactive)
REMARK    1  A    between atoms: C_2  and  C_4
REMARK    2  A    between atoms: C_7  and  N_8
REMARK    3  A    between atoms: C_14  and  O_15
REMARK    4  A    between atoms: O_15  and  C_16
REMARK    5  A    between atoms: C_16  and  C_17
REMARK                            x       y       z     vdW  Elec       q    Type
REMARK                         _______ _______ _______ _____ _____    ______ ____
ROOT
ATOM      1  N   UNL     1       3.709   7.710  17.046  0.00  0.00    +0.000 N 
ATOM      2  C   UNL     1       4.413   6.516  16.862  0.00  0.00    +0.000 A 
ATOM      3  N   UNL     1       5.581   6.608  16.207  0.00  0.00    +0.000 NA
ATOM      4  C   UNL     1       6.312   5.488  16.095  0.00  0.00    +0.000 A 
ATOM      5  N   UNL     1       7.517   5.593  15.396  0.00  0.00    +0.000 N 
ATOM      6  C   UNL     1       5.899   4.274  16.587  0.00  0.00    +0.000 A 
ATOM      7  C   UNL     1       4.685   4.276  17.213  0.00  0.00    +0.000 A 
ATOM      8  N   UNL     1       3.941   5.373  17.363  0.00  0.00    +0.000 NA
ATOM      9  H   UNL     1       4.262   8.464  16.667  0.00  0.00    +0.000 HD
ATOM     10  H   UNL     1       7.681   6.575  15.188  0.00  0.00    +0.000 HD
ATOM     11  H   UNL     1       8.293   5.170  15.891  0.00  0.00    +0.000 HD
ENDROOT
BRANCH   1  15
ATOM     12  C   UNL     1       0.982   8.876  20.060  0.00  0.00    +0.000 A 
ATOM     13  C   UNL     1       1.113   9.617  18.880  0.00  0.00    +0.000 A 
ATOM     14  C   UNL     1       1.999   9.198  17.882  0.00  0.00    +0.000 A 
ATOM     15  C   UNL     1       2.789   8.053  18.050  0.00  0.00    +0.000 A 
ATOM     16  C   UNL     1       2.606   7.307  19.224  0.00  0.00    +0.000 A 
ATOM     17  C   UNL     1       1.733   7.720  20.235  0.00  0.00    +0.000 A 
BRANCH  12  19
ATOM     18  N   UNL     1      -0.183  10.641  21.241  0.00  0.00    +0.000 N 
ATOM     19  C   UNL     1       0.061   9.300  21.145  0.00  0.00    +0.000 C 
ATOM     20  O   UNL     1      -0.481   8.495  21.885  0.00  0.00    +0.000 OA
ATOM     21  H   UNL     1      -0.895  10.920  21.909  0.00  0.00    +0.000 HD
ATOM     22  H   UNL     1       0.034  11.280  20.492  0.00  0.00    +0.000 HD
ENDBRANCH  12  19
ENDBRANCH   1  15
BRANCH   7  23
ATOM     23  O   UNL     1       4.243   3.093  17.773  0.00  0.00    +0.000 OA
BRANCH  23  24
ATOM     24  C   UNL     1       4.344   3.069  19.208  0.00  0.00    +0.000 C 
BRANCH  24  25
ATOM     25  C   UNL     1       3.162   2.261  19.774  0.00  0.00    +0.000 C 
ATOM     26  C   UNL     1       2.796   2.704  21.201  0.00  0.00    +0.000 C 
ATOM     27  C   UNL     1       2.108   4.068  21.243  0.00  0.00    +0.000 C 
ATOM     28  C   UNL     1       0.874   4.110  20.349  0.00  0.00    +0.000 C 
ATOM     29  C   UNL     1       1.156   3.639  18.925  0.00  0.00    +0.000 C 
ATOM     30  C   UNL     1       1.919   2.314  18.873  0.00  0.00    +0.000 C 
ENDBRANCH  24  25
ENDBRANCH  23  24
ENDBRANCH   7  23
TORSDOF 5
ENDMDL
MODEL 2
REMARK VINA RESULT:      -8.3      0.695      1.293
REMARK  Name = 
REMARK  5 active torsions:
REMARK  status: ('A' for Active; 'I' for Inactive)
REMARK    1  A    between atoms: C_2  and  C_4
REMARK    2  A    between atoms: C_7  and  N_8
REMARK    3  A    between atoms: C_14  and  O_15
REMARK    4  A    between atoms: O_15  and  C_16
REMARK    5  A    between atoms: C_16  and  C_17
REMARK                            x       y       z     vdW  Elec       q    Type
REMARK                         _______ _______ _______ _____ _____    ______ ____
ROOT
ATOM      1  N   UNL     1       3.578   7.464  16.989  0.00  0.00    +0.000 N 
ATOM      2  C   UNL     1       4.526   6.438  17.042  0.00  0.00    +0.000 A 
ATOM      3  N   UNL     1       5.523   6.500  16.144  0.00  0.00    +0.000 NA
ATOM      4  C   UNL     1       6.488   5.573  16.234  0.00  0.00    +0.000 A 
ATOM      5  N   UNL     1       7.510   5.637  15.284  0.00  0.00    +0.000 N 
ATOM      6  C   UNL     1       6.474   4.566  17.169  0.00  0.00    +0.000 A 
ATOM      7  C   UNL     1       5.405   4.570  18.020  0.00  0.00    +0.000 A 
ATOM      8  N   UNL     1       4.439   5.488  17.975  0.00  0.00    +0.000 NA
ATOM      9  H   UNL     1       3.860   8.117  16.274  0.00  0.00    +0.000 HD
ATOM     10  H   UNL     1       7.388   6.489  14.741  0.00  0.00    +0.000 HD
ATOM     11  H   UNL     1       8.433   5.576  15.698  0.00  0.00    +0.000 HD
ENDROOT
BRANCH   1  15
ATOM     12  C   UNL     1       1.064   8.865  20.086  0.00  0.00    +0.000 A 
ATOM     13  C   UNL     1       1.793   7.680  20.231  0.00  0.00    +0.000 A 
ATOM     14  C   UNL     1       2.643   7.248  19.206  0.00  0.00    +0.000 A 
ATOM     15  C   UNL     1       2.761   7.972  18.012  0.00  0.00    +0.000 A 
ATOM     16  C   UNL     1       2.050   9.177  17.912  0.00  0.00    +0.000 A 
ATOM     17  C   UNL     1       1.189   9.614  18.923  0.00  0.00    +0.000 A 
BRANCH  12  19
ATOM     18  N   UNL     1       0.080  10.697  21.329  0.00  0.00    +0.000 N 
ATOM     19  C   UNL     1       0.143   9.344  21.148  0.00  0.00    +0.000 C 
ATOM     20  O   UNL     1      -0.551   8.578  21.798  0.00  0.00    +0.000 OA
ATOM     21  H   UNL     1      -0.627  11.030  21.976  0.00  0.00    +0.000 HD
ATOM     22  H   UNL     1       0.430  11.346  20.642  0.00  0.00    +0.000 HD
ENDBRANCH  12  19
ENDBRANCH   1  15
BRANCH   7  23
ATOM     23  O   UNL     1       5.365   3.612  19.013  0.00  0.00    +0.000 OA
BRANCH  23  24
ATOM     24  C   UNL     1       4.304   3.820  19.963  0.00  0.00    +0.000 C 
BRANCH  24  25
ATOM     25  C   UNL     1       3.542   2.495  20.152  0.00  0.00    +0.000 C 
ATOM     26  C   UNL     1       2.277   2.678  21.008  0.00  0.00    +0.000 C 
ATOM     27  C   UNL     1       1.160   3.414  20.269  0.00  0.00    +0.000 C 
ATOM     28  C   UNL     1       0.807   2.736  18.950  0.00  0.00    +0.000 C 
ATOM     29  C   UNL     1       2.026   2.482  18.068  0.00  0.00    +0.000 C 
ATOM     30  C   UNL     1       3.181   1.820  18.819  0.00  0.00    +0.000 C 
ENDBRANCH  24  25
ENDBRANCH  23  24
ENDBRANCH   7  23
TORSDOF 5
ENDMDL
MODEL 3
REMARK VINA RESULT:      -8.1      0.557      1.304
REMARK  Name = 
REMARK  5 active torsions:
REMARK  status: ('A' for Active; 'I' for Inactive)
REMARK    1  A    between atoms: C_2  and  C_4
REMARK    2  A    between atoms: C_7  and  N_8
REMARK    3  A    between atoms: C_14  and  O_15
REMARK    4  A    between atoms: O_15  and  C_16
REMARK    5  A    between atoms: C_16  and  C_17
REMARK                            x       y       z     vdW  Elec       q    Type
REMARK                         _______ _______ _______ _____ _____    ______ ____
ROOT
ATOM      1  N   UNL     1       3.873   7.691  17.044  0.00  0.00    +0.000 N 
ATOM      2  C   UNL     1       4.469   6.458  16.762  0.00  0.00    +0.000 A 
ATOM      3  N   UNL     1       5.663   6.500  16.149  0.00  0.00    +0.000 NA
ATOM      4  C   UNL     1       6.289   5.331  15.946  0.00  0.00    +0.000 A 
ATOM      5  N   UNL     1       7.522   5.386  15.291  0.00  0.00    +0.000 N 
ATOM      6  C   UNL     1       5.749   4.120  16.305  0.00  0.00    +0.000 A 
ATOM      7  C   UNL     1       4.518   4.179  16.897  0.00  0.00    +0.000 A 
ATOM      8  N   UNL     1       3.876   5.323  17.135  0.00  0.00    +0.000 NA
ATOM      9  H   UNL     1       4.507   8.421  16.757  0.00  0.00    +0.000 HD
ATOM     10  H   UNL     1       7.784   6.363  15.186  0.00  0.00    +0.000 HD
ATOM     11  H   UNL     1       8.238   4.845  15.763  0.00  0.00    +0.000 HD
ENDROOT
BRANCH   1  15
ATOM     12  C   UNL     1       1.065   8.559  20.083  0.00  0.00    +0.000 A 
ATOM     13  C   UNL     1       1.878   7.423  20.157  0.00  0.00    +0.000 A 
ATOM     14  C   UNL     1       2.822   7.168  19.156  0.00  0.00    +0.000 A 
ATOM     15  C   UNL     1       2.955   8.023  18.054  0.00  0.00    +0.000 A 
ATOM     16  C   UNL     1       2.157   9.176  18.029  0.00  0.00    +0.000 A 
ATOM     17  C   UNL     1       1.201   9.437  19.015  0.00  0.00    +0.000 A 
BRANCH  12  19
ATOM     18  N   UNL     1      -0.250  10.169  21.328  0.00  0.00    +0.000 N 
ATOM     19  C   UNL     1       0.044   8.851  21.122  0.00  0.00    +0.000 C 
ATOM     20  O   UNL     1      -0.532   7.964  21.731  0.00  0.00    +0.000 OA
ATOM     21  H   UNL     1      -1.023  10.364  21.956  0.00  0.00    +0.000 HD
ATOM     22  H   UNL     1       0.008  10.885  20.666  0.00  0.00    +0.000 HD
ENDBRANCH  12  19
ENDBRANCH   1  15
BRANCH   7  23
ATOM     23  O   UNL     1       3.949   2.996  17.325  0.00  0.00    +0.000 OA
BRANCH  23  24
ATOM     24  C   UNL     1       2.528   3.091  17.534  0.00  0.00    +0.000 C 
BRANCH  24  25
ATOM     25  C   UNL     1       2.144   2.204  18.732  0.00  0.00    +0.000 C 
ATOM     26  C   UNL     1       3.219   2.229  19.833  0.00  0.00    +0.000 C 
ATOM     27  C   UNL     1       3.253   3.550  20.601  0.00  0.00    +0.000 C 
ATOM     28  C   UNL     1       1.891   3.900  21.190  0.00  0.00    +0.000 C 
ATOM     29  C   UNL     1       0.767   3.849  20.159  0.00  0.00    +0.000 C 
ATOM     30  C   UNL     1       0.775   2.566  19.327  0.00  0.00    +0.000 C 
ENDBRANCH  24  25
ENDBRANCH  23  24
ENDBRANCH   7  23
TORSDOF 5
ENDMDL
MODEL 4
REMARK VINA RESULT:      -8.0      2.462      4.724
REMARK  Name = 
REMARK  5 active torsions:
REMARK  status: ('A' for Active; 'I' for Inactive)
REMARK    1  A    between atoms: C_2  and  C_4
REMARK    2  A    between atoms: C_7  and  N_8
REMARK    3  A    between atoms: C_14  and  O_15
REMARK    4  A    between atoms: O_15  and  C_16
REMARK    5  A    between atoms: C_16  and  C_17
REMARK                            x       y       z     vdW  Elec       q    Type
REMARK                         _______ _______ _______ _____ _____    ______ ____
ROOT
ATOM      1  N   UNL     1       1.854   7.140  20.990  0.00  0.00    +0.000 N 
ATOM      2  C   UNL     1       2.205   5.892  20.466  0.00  0.00    +0.000 A 
ATOM      3  N   UNL     1       2.183   4.858  21.322  0.00  0.00    +0.000 NA
ATOM      4  C   UNL     1       2.433   3.640  20.820  0.00  0.00    +0.000 A 
ATOM      5  N   UNL     1       2.426   2.575  21.724  0.00  0.00    +0.000 N 
ATOM      6  C   UNL     1       2.738   3.424  19.497  0.00  0.00    +0.000 A 
ATOM      7  C   UNL     1       2.763   4.541  18.711  0.00  0.00    +0.000 A 
ATOM      8  N   UNL     1       2.497   5.765  19.170  0.00  0.00    +0.000 NA
ATOM      9  H   UNL     1       1.595   7.015  21.957  0.00  0.00    +0.000 HD
ATOM     10  H   UNL     1       2.102   2.922  22.623  0.00  0.00    +0.000 HD
ATOM     11  H   UNL     1       1.877   1.789  21.396  0.00  0.00    +0.000 HD
ENDROOT
BRANCH   1  15
ATOM     12  C   UNL     1       0.077  10.456  19.060  0.00  0.00    +0.000 A 
ATOM     13  C   UNL     1      -0.315  10.077  20.349  0.00  0.00    +0.000 A 
ATOM     14  C   UNL     1       0.306   8.995  20.982  0.00  0.00    +0.000 A 
ATOM     15  C   UNL     1       1.306   8.256  20.336  0.00  0.00    +0.000 A 
ATOM     16  C   UNL     1       1.707   8.685  19.063  0.00  0.00    +0.000 A 
ATOM     17  C   UNL     1       1.088   9.756  18.413  0.00  0.00    +0.000 A 
BRANCH  12  19
ATOM     18  N   UNL     1      -1.483  11.263  17.392  0.00  0.00    +0.000 N 
ATOM     19  C   UNL     1      -0.571  11.590  18.355  0.00  0.00    +0.000 C 
ATOM     20  O   UNL     1      -0.334  12.753  18.644  0.00  0.00    +0.000 OA
ATOM     21  H   UNL     1      -2.005  12.033  16.987  0.00  0.00    +0.000 HD
ATOM     22  H   UNL     1      -1.883  10.339  17.325  0.00  0.00    +0.000 HD
ENDBRANCH  12  19
ENDBRANCH   1  15
BRANCH   7  23
ATOM     23  O   UNL     1       3.013   4.378  17.362  0.00  0.00    +0.000 OA
BRANCH  23  24
ATOM     24  C   UNL     1       4.275   3.744  17.090  0.00  0.00    +0.000 C 
BRANCH  24  25
ATOM     25  C   UNL     1       5.028   4.574  16.035  0.00  0.00    +0.000 C 
ATOM     26  C   UNL     1       4.935   6.084  16.319  0.00  0.00    +0.000 C 
ATOM     27  C   UNL     1       5.781   6.518  17.514  0.00  0.00    +0.000 C 
ATOM     28  C   UNL     1       7.240   6.103  17.359  0.00  0.00    +0.000 C 
ATOM     29  C   UNL     1       7.405   4.622  17.029  0.00  0.00    +0.000 C 
ATOM     30  C   UNL     1       6.500   4.158  15.887  0.00  0.00    +0.000 C 
ENDBRANCH  24  25
ENDBRANCH  23  24
ENDBRANCH   7  23
TORSDOF 5
ENDMDL
MODEL 5
REMARK VINA RESULT:      -7.8      1.429      1.772
REMARK  Name = 
REMARK  5 active torsions:
REMARK  status: ('A' for Active; 'I' for Inactive)
REMARK    1  A    between atoms: C_2  and  C_4
REMARK    2  A    between atoms: C_7  and  N_8
REMARK    3  A    between atoms: C_14  and  O_15
REMARK    4  A    between atoms: O_15  and  C_16
REMARK    5  A    between atoms: C_16  and  C_17
REMARK                            x       y       z     vdW  Elec       q    Type
REMARK                         _______ _______ _______ _____ _____    ______ ____
ROOT
ATOM      1  N   UNL     1       2.423   8.065  17.882  0.00  0.00    +0.000 N 
ATOM      2  C   UNL     1       3.395   7.065  17.790  0.00  0.00    +0.000 A 
ATOM      3  N   UNL     1       4.240   7.149  16.750  0.00  0.00    +0.000 NA
ATOM      4  C   UNL     1       5.233   6.248  16.692  0.00  0.00    +0.000 A 
ATOM      5  N   UNL     1       6.095   6.335  15.596  0.00  0.00    +0.000 N 
ATOM      6  C   UNL     1       5.389   5.246  17.618  0.00  0.00    +0.000 A 
ATOM      7  C   UNL     1       4.464   5.226  18.624  0.00  0.00    +0.000 A 
ATOM      8  N   UNL     1       3.477   6.118  18.727  0.00  0.00    +0.000 NA
ATOM      9  H   UNL     1       2.574   8.722  17.132  0.00  0.00    +0.000 HD
ATOM     10  H   UNL     1       5.868   7.180  15.077  0.00  0.00    +0.000 HD
ATOM     11  H   UNL     1       7.071   6.300  15.864  0.00  0.00    +0.000 HD
ENDROOT
BRANCH   1  15
ATOM     12  C   UNL     1       0.469   9.671  21.270  0.00  0.00    +0.000 A 
ATOM     13  C   UNL     1       0.386  10.302  20.024  0.00  0.00    +0.000 A 
ATOM     14  C   UNL     1       1.015   9.739  18.908  0.00  0.00    +0.000 A 
ATOM     15  C   UNL     1       1.758   8.556  19.018  0.00  0.00    +0.000 A 
ATOM     16  C   UNL     1       1.788   7.924  20.269  0.00  0.00    +0.000 A 
ATOM     17  C   UNL     1       1.174   8.481  21.395  0.00  0.00    +0.000 A 
BRANCH  12  19
ATOM     18  N   UNL     1      -0.769   9.362  23.329  0.00  0.00    +0.000 N 
ATOM     19  C   UNL     1      -0.176  10.249  22.477  0.00  0.00    +0.000 C 
ATOM     20  O   UNL     1      -0.144  11.445  22.718  0.00  0.00    +0.000 OA
ATOM     21  H   UNL     1      -1.113   9.742  24.205  0.00  0.00    +0.000 HD
ATOM     22  H   UNL     1      -0.579   8.372  23.290  0.00  0.00    +0.000 HD
ENDBRANCH  12  19
ENDBRANCH   1  15
BRANCH   7  23
ATOM     23  O   UNL     1       4.602   4.272  19.612  0.00  0.00    +0.000 OA
BRANCH  23  24
ATOM     24  C   UNL     1       3.478   4.213  20.508  0.00  0.00    +0.000 C 
BRANCH  24  25
ATOM     25  C   UNL     1       2.984   2.757  20.587  0.00  0.00    +0.000 C 
ATOM     26  C   UNL     1       1.525   2.670  21.067  0.00  0.00    +0.000 C 
ATOM     27  C   UNL     1       0.523   3.134  20.011  0.00  0.00    +0.000 C 
ATOM     28  C   UNL     1       0.688   2.376  18.699  0.00  0.00    +0.000 C 
ATOM     29  C   UNL     1       2.125   2.382  18.186  0.00  0.00    +0.000 C 
ATOM     30  C   UNL     1       3.146   2.000  19.260  0.00  0.00    +0.000 C 
ENDBRANCH  24  25
ENDBRANCH  23  24
ENDBRANCH   7  23
TORSDOF 5
ENDMDL
MODEL 6
REMARK VINA RESULT:      -7.7      1.295      1.477
REMARK  Name = 
REMARK  5 active torsions:
REMARK  status: ('A' for Active; 'I' for Inactive)
REMARK    1  A    between atoms: C_2  and  C_4
REMARK    2  A    between atoms: C_7  and  N_8
REMARK    3  A    between atoms: C_14  and  O_15
REMARK    4  A    between atoms: O_15  and  C_16
REMARK    5  A    between atoms: C_16  and  C_17
REMARK                            x       y       z     vdW  Elec       q    Type
REMARK                         _______ _______ _______ _____ _____    ______ ____
ROOT
ATOM      1  N   UNL     1       2.556   8.106  17.942  0.00  0.00    +0.000 N 
ATOM      2  C   UNL     1       3.457   7.040  17.853  0.00  0.00    +0.000 A 
ATOM      3  N   UNL     1       4.393   7.129  16.895  0.00  0.00    +0.000 NA
ATOM      4  C   UNL     1       5.317   6.158  16.849  0.00  0.00    +0.000 A 
ATOM      5  N   UNL     1       6.275   6.252  15.836  0.00  0.00    +0.000 N 
ATOM      6  C   UNL     1       5.319   5.085  17.706  0.00  0.00    +0.000 A 
ATOM      7  C   UNL     1       4.310   5.069  18.628  0.00  0.00    +0.000 A 
ATOM      8  N   UNL     1       3.387   6.027  18.719  0.00  0.00    +0.000 NA
ATOM      9  H   UNL     1       2.820   8.800  17.259  0.00  0.00    +0.000 HD
ATOM     10  H   UNL     1       6.157   7.147  15.367  0.00  0.00    +0.000 HD
ATOM     11  H   UNL     1       7.220   6.121  16.179  0.00  0.00    +0.000 HD
ENDROOT
BRANCH   1  15
ATOM     12  C   UNL     1       0.430   9.626  21.266  0.00  0.00    +0.000 A 
ATOM     13  C   UNL     1       0.423  10.296  20.038  0.00  0.00    +0.000 A 
ATOM     14  C   UNL     1       1.108   9.762  18.942  0.00  0.00    +0.000 A 
ATOM     15  C   UNL     1       1.833   8.568  19.054  0.00  0.00    +0.000 A 
ATOM     16  C   UNL     1       1.788   7.897  20.284  0.00  0.00    +0.000 A 
ATOM     17  C   UNL     1       1.117   8.425  21.392  0.00  0.00    +0.000 A 
BRANCH  12  19
ATOM     18  N   UNL     1      -0.792   9.257  23.325  0.00  0.00    +0.000 N 
ATOM     19  C   UNL     1      -0.275  10.173  22.453  0.00  0.00    +0.000 C 
ATOM     20  O   UNL     1      -0.356  11.372  22.662  0.00  0.00    +0.000 OA
ATOM     21  H   UNL     1      -1.176   9.626  24.188  0.00  0.00    +0.000 HD
ATOM     22  H   UNL     1      -0.510   8.288  23.313  0.00  0.00    +0.000 HD
ENDBRANCH  12  19
ENDBRANCH   1  15
BRANCH   7  23
ATOM     23  O   UNL     1       4.292   4.040  19.549  0.00  0.00    +0.000 OA
BRANCH  23  24
ATOM     24  C   UNL     1       4.083   2.747  18.954  0.00  0.00    +0.000 C 
BRANCH  24  25
ATOM     25  C   UNL     1       2.936   2.039  19.697  0.00  0.00    +0.000 C 
ATOM     26  C   UNL     1       2.773   2.563  21.134  0.00  0.00    +0.000 C 
ATOM     27  C   UNL     1       2.174   3.968  21.191  0.00  0.00    +0.000 C 
ATOM     28  C   UNL     1       0.844   4.049  20.450  0.00  0.00    +0.000 C 
ATOM     29  C   UNL     1       0.922   3.501  19.028  0.00  0.00    +0.000 C 
ATOM     30  C   UNL     1       1.596   2.131  18.950  0.00  0.00    +0.000 C 
ENDBRANCH  24  25
ENDBRANCH  23  24
ENDBRANCH   7  23
TORSDOF 5
ENDMDL
MODEL 7
REMARK VINA RESULT:      -7.6      1.317      1.931
REMARK  Name = 
REMARK  5 active torsions:
REMARK  status: ('A' for Active; 'I' for Inactive)
REMARK    1  A    between atoms: C_2  and  C_4
REMARK    2  A    between atoms: C_7  and  N_8
REMARK    3  A    between atoms: C_14  and  O_15
REMARK    4  A    between atoms: O_15  and  C_16
REMARK    5  A    between atoms: C_16  and  C_17
REMARK                            x       y       z     vdW  Elec       q    Type
REMARK                         _______ _______ _______ _____ _____    ______ ____
ROOT
ATOM      1  N   UNL     1       2.365   8.132  17.863  0.00  0.00    +0.000 N 
ATOM      2  C   UNL     1       3.320   7.123  17.709  0.00  0.00    +0.000 A 
ATOM      3  N   UNL     1       4.075   7.181  16.600  0.00  0.00    +0.000 NA
ATOM      4  C   UNL     1       5.054   6.272  16.476  0.00  0.00    +0.000 A 
ATOM      5  N   UNL     1       5.820   6.331  15.309  0.00  0.00    +0.000 N 
ATOM      6  C   UNL     1       5.283   5.287  17.406  0.00  0.00    +0.000 A 
ATOM      7  C   UNL     1       4.446   5.294  18.486  0.00  0.00    +0.000 A 
ATOM      8  N   UNL     1       3.477   6.195  18.654  0.00  0.00    +0.000 NA
ATOM      9  H   UNL     1       2.455   8.773  17.089  0.00  0.00    +0.000 HD
ATOM     10  H   UNL     1       5.554   7.168  14.795  0.00  0.00    +0.000 HD
ATOM     11  H   UNL     1       6.816   6.294  15.494  0.00  0.00    +0.000 HD
ENDROOT
BRANCH   1  15
ATOM     12  C   UNL     1       0.608   9.568  21.430  0.00  0.00    +0.000 A 
ATOM     13  C   UNL     1       1.234   8.318  21.388  0.00  0.00    +0.000 A 
ATOM     14  C   UNL     1       1.835   7.873  20.206  0.00  0.00    +0.000 A 
ATOM     15  C   UNL     1       1.802   8.650  19.041  0.00  0.00    +0.000 A 
ATOM     16  C   UNL     1       1.205   9.917  19.124  0.00  0.00    +0.000 A 
ATOM     17  C   UNL     1       0.590  10.369  20.295  0.00  0.00    +0.000 A 
BRANCH  12  19
ATOM     18  N   UNL     1      -1.070  10.958  22.489  0.00  0.00    +0.000 N 
ATOM     19  C   UNL     1      -0.052  10.065  22.665  0.00  0.00    +0.000 C 
ATOM     20  O   UNL     1       0.268   9.668  23.774  0.00  0.00    +0.000 OA
ATOM     21  H   UNL     1      -1.592  11.213  23.321  0.00  0.00    +0.000 HD
ATOM     22  H   UNL     1      -1.518  11.091  21.595  0.00  0.00    +0.000 HD
ENDBRANCH  12  19
ENDBRANCH   1  15
BRANCH   7  23
ATOM     23  O   UNL     1       4.662   4.358  19.478  0.00  0.00    +0.000 OA
BRANCH  23  24
ATOM     24  C   UNL     1       3.561   4.238  20.397  0.00  0.00    +0.000 C 
BRANCH  24  25
ATOM     25  C   UNL     1       3.118   2.764  20.447  0.00  0.00    +0.000 C 
ATOM     26  C   UNL     1       1.712   2.608  21.052  0.00  0.00    +0.000 C 
ATOM     27  C   UNL     1       0.604   3.088  20.115  0.00  0.00    +0.000 C 
ATOM     28  C   UNL     1       0.670   2.399  18.757  0.00  0.00    +0.000 C 
ATOM     29  C   UNL     1       2.054   2.476  18.118  0.00  0.00    +0.000 C 
ATOM     30  C   UNL     1       3.178   2.077  19.074  0.00  0.00    +0.000 C 
ENDBRANCH  24  25
ENDBRANCH  23  24
ENDBRANCH   7  23
TORSDOF 5
ENDMDL
MODEL 8
REMARK VINA RESULT:      -7.6      3.745      6.819
REMARK  Name = 
REMARK  5 active torsions:
REMARK  status: ('A' for Active; 'I' for Inactive)
REMARK    1  A    between atoms: C_2  and  C_4
REMARK    2  A    between atoms: C_7  and  N_8
REMARK    3  A    between atoms: C_14  and  O_15
REMARK    4  A    between atoms: O_15  and  C_16
REMARK    5  A    between atoms: C_16  and  C_17
REMARK                            x       y       z     vdW  Elec       q    Type
REMARK                         _______ _______ _______ _____ _____    ______ ____
ROOT
ATOM      1  N   UNL     1       7.726   5.451  14.998  0.00  0.00    +0.000 N 
ATOM      2  C   UNL     1       7.497   5.567  16.372  0.00  0.00    +0.000 A 
ATOM      3  N   UNL     1       8.008   6.655  16.971  0.00  0.00    +0.000 NA
ATOM      4  C   UNL     1       7.727   6.827  18.272  0.00  0.00    +0.000 A 
ATOM      5  N   UNL     1       8.279   7.953  18.888  0.00  0.00    +0.000 N 
ATOM      6  C   UNL     1       6.981   5.933  19.001  0.00  0.00    +0.000 A 
ATOM      7  C   UNL     1       6.529   4.844  18.310  0.00  0.00    +0.000 A 
ATOM      8  N   UNL     1       6.769   4.651  17.013  0.00  0.00    +0.000 NA
ATOM      9  H   UNL     1       8.223   6.273  14.690  0.00  0.00    +0.000 HD
ATOM     10  H   UNL     1       8.721   8.525  18.172  0.00  0.00    +0.000 HD
ATOM     11  H   UNL     1       7.598   8.474  19.430  0.00  0.00    +0.000 HD
ENDROOT
BRANCH   1  15
ATOM     12  C   UNL     1       5.399   3.340  12.168  0.00  0.00    +0.000 A 
ATOM     13  C   UNL     1       4.864   3.713  13.406  0.00  0.00    +0.000 A 
ATOM     14  C   UNL     1       5.641   4.436  14.317  0.00  0.00    +0.000 A 
ATOM     15  C   UNL     1       6.968   4.778  14.025  0.00  0.00    +0.000 A 
ATOM     16  C   UNL     1       7.463   4.428  12.760  0.00  0.00    +0.000 A 
ATOM     17  C   UNL     1       6.703   3.695  11.845  0.00  0.00    +0.000 A 
BRANCH  12  19
ATOM     18  N   UNL     1       3.481   3.163  10.698  0.00  0.00    +0.000 N 
ATOM     19  C   UNL     1       4.606   2.559  11.184  0.00  0.00    +0.000 C 
ATOM     20  O   UNL     1       4.959   1.456  10.798  0.00  0.00    +0.000 OA
ATOM     21  H   UNL     1       3.001   2.678   9.947  0.00  0.00    +0.000 HD
ATOM     22  H   UNL     1       3.320   4.154  10.796  0.00  0.00    +0.000 HD
ENDBRANCH  12  19
ENDBRANCH   1  15
BRANCH   7  23
ATOM     23  O   UNL     1       5.731   3.938  18.981  0.00  0.00    +0.000 OA
BRANCH  23  24
ATOM     24  C   UNL     1       4.441   4.469  19.334  0.00  0.00    +0.000 C 
BRANCH  24  25
ATOM     25  C   UNL     1       3.499   4.325  18.125  0.00  0.00    +0.000 C 
ATOM     26  C   UNL     1       3.503   2.894  17.561  0.00  0.00    +0.000 C 
ATOM     27  C   UNL     1       2.778   1.896  18.463  0.00  0.00    +0.000 C 
ATOM     28  C   UNL     1       1.350   2.336  18.764  0.00  0.00    +0.000 C 
ATOM     29  C   UNL     1       1.267   3.767  19.286  0.00  0.00    +0.000 C 
ATOM     30  C   UNL     1       2.059   4.762  18.437  0.00  0.00    +0.000 C 
ENDBRANCH  24  25
ENDBRANCH  23  24
ENDBRANCH   7  23
TORSDOF 5
ENDMDL
MODEL 9
REMARK VINA RESULT:      -7.5      2.478      4.689
REMARK  Name = 
REMARK  5 active torsions:
REMARK  status: ('A' for Active; 'I' for Inactive)
REMARK    1  A    between atoms: C_2  and  C_4
REMARK    2  A    between atoms: C_7  and  N_8
REMARK    3  A    between atoms: C_14  and  O_15
REMARK    4  A    between atoms: O_15  and  C_16
REMARK    5  A    between atoms: C_16  and  C_17
REMARK                            x       y       z     vdW  Elec       q    Type
REMARK                         _______ _______ _______ _____ _____    ______ ____
ROOT
ATOM      1  N   UNL     1       1.873   7.099  21.079  0.00  0.00    +0.000 N 
ATOM      2  C   UNL     1       2.101   5.824  20.555  0.00  0.00    +0.000 A 
ATOM      3  N   UNL     1       2.128   4.813  21.438  0.00  0.00    +0.000 NA
ATOM      4  C   UNL     1       2.260   3.572  20.945  0.00  0.00    +0.000 A 
ATOM      5  N   UNL     1       2.304   2.529  21.875  0.00  0.00    +0.000 N 
ATOM      6  C   UNL     1       2.401   3.310  19.604  0.00  0.00    +0.000 A 
ATOM      7  C   UNL     1       2.389   4.406  18.788  0.00  0.00    +0.000 A 
ATOM      8  N   UNL     1       2.237   5.652  19.239  0.00  0.00    +0.000 NA
ATOM      9  H   UNL     1       1.721   7.010  22.073  0.00  0.00    +0.000 HD
ATOM     10  H   UNL     1       2.103   2.913  22.795  0.00  0.00    +0.000 HD
ATOM     11  H   UNL     1       1.684   1.765  21.633  0.00  0.00    +0.000 HD
ENDROOT
BRANCH   1  15
ATOM     12  C   UNL     1       0.301  10.532  19.177  0.00  0.00    +0.000 A 
ATOM     13  C   UNL     1       1.259   9.734  18.545  0.00  0.00    +0.000 A 
ATOM     14  C   UNL     1       1.746   8.585  19.178  0.00  0.00    +0.000 A 
ATOM     15  C   UNL     1       1.308   8.227  20.460  0.00  0.00    +0.000 A 
ATOM     16  C   UNL     1       0.316   9.022  21.052  0.00  0.00    +0.000 A 
ATOM     17  C   UNL     1      -0.170  10.179  20.436  0.00  0.00    +0.000 A 
BRANCH  12  19
ATOM     18  N   UNL     1       0.699  12.705  18.183  0.00  0.00    +0.000 N 
ATOM     19  C   UNL     1      -0.226  11.765  18.539  0.00  0.00    +0.000 C 
ATOM     20  O   UNL     1      -1.415  11.917  18.306  0.00  0.00    +0.000 OA
ATOM     21  H   UNL     1       0.353  13.496  17.649  0.00  0.00    +0.000 HD
ATOM     22  H   UNL     1       1.683  12.492  18.121  0.00  0.00    +0.000 HD
ENDBRANCH  12  19
ENDBRANCH   1  15
BRANCH   7  23
ATOM     23  O   UNL     1       2.475   4.199  17.425  0.00  0.00    +0.000 OA
BRANCH  23  24
ATOM     24  C   UNL     1       3.802   3.861  16.983  0.00  0.00    +0.000 C 
BRANCH  24  25
ATOM     25  C   UNL     1       4.566   5.161  16.672  0.00  0.00    +0.000 C 
ATOM     26  C   UNL     1       5.459   5.597  17.846  0.00  0.00    +0.000 C 
ATOM     27  C   UNL     1       6.692   4.710  18.017  0.00  0.00    +0.000 C 
ATOM     28  C   UNL     1       7.514   4.627  16.736  0.00  0.00    +0.000 C 
ATOM     29  C   UNL     1       6.679   4.243  15.518  0.00  0.00    +0.000 C 
ATOM     30  C   UNL     1       5.399   5.069  15.384  0.00  0.00    +0.000 C 
ENDBRANCH  24  25
ENDBRANCH  23  24
ENDBRANCH   7  23
TORSDOF 5
ENDMDL
