MODEL 1
REMARK VINA RESULT:      -8.8      0.000      0.000
REMARK  Name = 
REMARK  4 active torsions:
REMARK  status: ('A' for Active; 'I' for Inactive)
REMARK    1  A    between atoms: C_1  and  N_2
REMARK    2  A    between atoms: N_4  and  O_5
REMARK    3  A    between atoms: N_6  and  N_7
REMARK    4  A    between atoms: C_8  and  C_9
REMARK                            x       y       z     vdW  Elec       q    Type
REMARK                         _______ _______ _______ _____ _____    ______ ____
ROOT
ATOM      1  C   UNL     1       3.221   5.801  18.507  0.00  0.00    +0.000 A 
ATOM      2  C   UNL     1       2.607   7.089  18.643  0.00  0.00    +0.000 A 
ATOM      3  C   UNL     1       2.705   8.158  17.707  0.00  0.00    +0.000 A 
ATOM      4  C   UNL     1       2.090   9.395  17.917  0.00  0.00    +0.000 A 
ATOM      5  C   UNL     1       1.341   9.603  19.062  0.00  0.00    +0.000 A 
ATOM      6  C   UNL     1       1.201   8.571  19.987  0.00  0.00    +0.000 A 
ATOM      7  C   UNL     1       1.815   7.321  19.786  0.00  0.00    +0.000 A 
ATOM      8  C   UNL     1       1.630   6.299  20.727  0.00  0.00    +0.000 A 
ATOM      9  C   UNL     1       2.212   5.032  20.580  0.00  0.00    +0.000 A 
ATOM     10  C   UNL     1       1.977   4.045  21.553  0.00  0.00    +0.000 A 
ATOM     11  C   UNL     1       2.548   2.778  21.448  0.00  0.00    +0.000 A 
ATOM     12  C   UNL     1       3.368   2.487  20.370  0.00  0.00    +0.000 A 
ATOM     13  C   UNL     1       3.610   3.461  19.395  0.00  0.00    +0.000 A 
ATOM     14  C   UNL     1       3.028   4.755  19.462  0.00  0.00    +0.000 A 
ENDROOT
BRANCH   1  16
ATOM     15  N   UNL     1       5.078   6.281  17.019  0.00  0.00    +0.000 NA
ATOM     16  C   UNL     1       4.078   5.518  17.328  0.00  0.00    +0.000 C 
BRANCH  15  21
ATOM     17  C   UNL     1       7.156   5.241  13.513  0.00  0.00    +0.000 C 
ATOM     18  N   UNL     1       7.705   5.013  14.838  0.00  0.00    +0.000 NA
ATOM     19  C   UNL     1       7.003   5.384  15.861  0.00  0.00    +0.000 C 
ATOM     20  N   UNL     1       7.497   5.204  17.137  0.00  0.00    +0.000 N 
ATOM     21  N   UNL     1       5.747   5.957  15.875  0.00  0.00    +0.000 N 
ATOM     22  H   UNL     1       6.747   5.283  17.825  0.00  0.00    +0.000 HD
ATOM     23  H   UNL     1       5.338   6.165  14.971  0.00  0.00    +0.000 HD
BRANCH  20  24
ATOM     24  O   UNL     1       8.275   4.043  17.260  0.00  0.00    +0.000 OA
ATOM     25  H   UNL     1       9.188   4.403  17.206  0.00  0.00    +0.000 HD
ENDBRANCH  20  24
ENDBRANCH  15  21
ENDBRANCH   1  16
TORSDOF 3
ENDMDL
MODEL 2
REMARK VINA RESULT:      -8.7      3.682      5.928
REMARK  Name = 
REMARK  4 active torsions:
REMARK  status: ('A' for Active; 'I' for Inactive)
REMARK    1  A    between atoms: C_1  and  N_2
REMARK    2  A    between atoms: N_4  and  O_5
REMARK    3  A    between atoms: N_6  and  N_7
REMARK    4  A    between atoms: C_8  and  C_9
REMARK                            x       y       z     vdW  Elec       q    Type
REMARK                         _______ _______ _______ _____ _____    ______ ____
ROOT
ATOM      1  C   UNL     1       3.029   5.787  18.601  0.00  0.00    +0.000 A 
ATOM      2  C   UNL     1       3.925   5.710  17.485  0.00  0.00    +0.000 A 
ATOM      3  C   UNL     1       4.575   6.815  16.865  0.00  0.00    +0.000 A 
ATOM      4  C   UNL     1       5.424   6.663  15.765  0.00  0.00    +0.000 A 
ATOM      5  C   UNL     1       5.666   5.399  15.256  0.00  0.00    +0.000 A 
ATOM      6  C   UNL     1       5.069   4.292  15.854  0.00  0.00    +0.000 A 
ATOM      7  C   UNL     1       4.213   4.433  16.961  0.00  0.00    +0.000 A 
ATOM      8  C   UNL     1       3.650   3.293  17.552  0.00  0.00    +0.000 A 
ATOM      9  C   UNL     1       2.794   3.369  18.659  0.00  0.00    +0.000 A 
ATOM     10  C   UNL     1       2.272   2.187  19.214  0.00  0.00    +0.000 A 
ATOM     11  C   UNL     1       1.408   2.223  20.306  0.00  0.00    +0.000 A 
ATOM     12  C   UNL     1       1.050   3.444  20.853  0.00  0.00    +0.000 A 
ATOM     13  C   UNL     1       1.563   4.628  20.311  0.00  0.00    +0.000 A 
ATOM     14  C   UNL     1       2.460   4.626  19.209  0.00  0.00    +0.000 A 
ENDROOT
BRANCH   1  16
ATOM     15  N   UNL     1       1.827   7.896  18.599  0.00  0.00    +0.000 NA
ATOM     16  C   UNL     1       2.684   7.113  19.174  0.00  0.00    +0.000 C 
BRANCH  15  21
ATOM     17  C   UNL     1       1.220  11.653  20.389  0.00  0.00    +0.000 C 
ATOM     18  N   UNL     1       0.558  11.264  19.156  0.00  0.00    +0.000 NA
ATOM     19  C   UNL     1       0.821  10.095  18.667  0.00  0.00    +0.000 C 
ATOM     20  N   UNL     1       0.229   9.694  17.485  0.00  0.00    +0.000 N 
ATOM     21  N   UNL     1       1.645   9.115  19.183  0.00  0.00    +0.000 N 
ATOM     22  H   UNL     1       0.309   8.683  17.372  0.00  0.00    +0.000 HD
ATOM     23  H   UNL     1       2.154   9.355  20.027  0.00  0.00    +0.000 HD
BRANCH  20  24
ATOM     24  O   UNL     1      -1.073  10.193  17.333  0.00  0.00    +0.000 OA
ATOM     25  H   UNL     1      -1.031  10.603  16.441  0.00  0.00    +0.000 HD
ENDBRANCH  20  24
ENDBRANCH  15  21
ENDBRANCH   1  16
TORSDOF 3
ENDMDL
MODEL 3
REMARK VINA RESULT:      -8.7      0.044      3.939
REMARK  Name = 
REMARK  4 active torsions:
REMARK  status: ('A' for Active; 'I' for Inactive)
REMARK    1  A    between atoms: C_1  and  N_2
REMARK    2  A    between atoms: N_4  and  O_5
REMARK    3  A    between atoms: N_6  and  N_7
REMARK    4  A    between atoms: C_8  and  C_9
REMARK                            x       y       z     vdW  Elec       q    Type
REMARK                         _______ _______ _______ _____ _____    ______ ____
ROOT
ATOM      1  C   UNL     1       3.210   5.766  18.514  0.00  0.00    +0.000 A 
ATOM      2  C   UNL     1       3.024   4.735  19.492  0.00  0.00    +0.000 A 
ATOM      3  C   UNL     1       3.629   3.447  19.464  0.00  0.00    +0.000 A 
ATOM      4  C   UNL     1       3.385   2.484  20.448  0.00  0.00    +0.000 A 
ATOM      5  C   UNL     1       2.541   2.781  21.503  0.00  0.00    +0.000 A 
ATOM      6  C   UNL     1       1.953   4.042  21.578  0.00  0.00    +0.000 A 
ATOM      7  C   UNL     1       2.191   5.018  20.594  0.00  0.00    +0.000 A 
ATOM      8  C   UNL     1       1.601   6.284  20.717  0.00  0.00    +0.000 A 
ATOM      9  C   UNL     1       1.805   7.299  19.771  0.00  0.00    +0.000 A 
ATOM     10  C   UNL     1       1.194   8.552  19.958  0.00  0.00    +0.000 A 
ATOM     11  C   UNL     1       1.362   9.581  19.034  0.00  0.00    +0.000 A 
ATOM     12  C   UNL     1       2.138   9.366  17.907  0.00  0.00    +0.000 A 
ATOM     13  C   UNL     1       2.751   8.124  17.709  0.00  0.00    +0.000 A 
ATOM     14  C   UNL     1       2.615   7.060  18.640  0.00  0.00    +0.000 A 
ENDROOT
BRANCH   1  16
ATOM     15  N   UNL     1       5.091   6.249  17.057  0.00  0.00    +0.000 NA
ATOM     16  C   UNL     1       4.065   5.506  17.328  0.00  0.00    +0.000 C 
BRANCH  15  21
ATOM     17  C   UNL     1       7.158   5.295  13.521  0.00  0.00    +0.000 C 
ATOM     18  N   UNL     1       7.714   5.040  14.838  0.00  0.00    +0.000 NA
ATOM     19  C   UNL     1       7.014   5.385  15.871  0.00  0.00    +0.000 C 
ATOM     20  N   UNL     1       7.515   5.180  17.141  0.00  0.00    +0.000 N 
ATOM     21  N   UNL     1       5.756   5.953  15.904  0.00  0.00    +0.000 N 
ATOM     22  H   UNL     1       6.768   5.240  17.834  0.00  0.00    +0.000 HD
ATOM     23  H   UNL     1       5.342   6.179  15.006  0.00  0.00    +0.000 HD
BRANCH  20  24
ATOM     24  O   UNL     1       8.299   4.020  17.235  0.00  0.00    +0.000 OA
ATOM     25  H   UNL     1       8.544   3.863  16.296  0.00  0.00    +0.000 HD
ENDBRANCH  20  24
ENDBRANCH  15  21
ENDBRANCH   1  16
TORSDOF 3
ENDMDL
MODEL 4
REMARK VINA RESULT:      -8.6      3.704      6.591
REMARK  Name = 
REMARK  4 active torsions:
REMARK  status: ('A' for Active; 'I' for Inactive)
REMARK    1  A    between atoms: C_1  and  N_2
REMARK    2  A    between atoms: N_4  and  O_5
REMARK    3  A    between atoms: N_6  and  N_7
REMARK    4  A    between atoms: C_8  and  C_9
REMARK                            x       y       z     vdW  Elec       q    Type
REMARK                         _______ _______ _______ _____ _____    ______ ____
ROOT
ATOM      1  C   UNL     1       3.016   5.776  18.632  0.00  0.00    +0.000 A 
ATOM      2  C   UNL     1       2.436   4.600  19.209  0.00  0.00    +0.000 A 
ATOM      3  C   UNL     1       1.510   4.576  20.290  0.00  0.00    +0.000 A 
ATOM      4  C   UNL     1       1.000   3.385  20.812  0.00  0.00    +0.000 A 
ATOM      5  C   UNL     1       1.384   2.174  20.262  0.00  0.00    +0.000 A 
ATOM      6  C   UNL     1       2.268   2.160  19.185  0.00  0.00    +0.000 A 
ATOM      7  C   UNL     1       2.788   3.353  18.651  0.00  0.00    +0.000 A 
ATOM      8  C   UNL     1       3.655   3.300  17.551  0.00  0.00    +0.000 A 
ATOM      9  C   UNL     1       4.201   4.454  16.973  0.00  0.00    +0.000 A 
ATOM     10  C   UNL     1       5.056   4.334  15.862  0.00  0.00    +0.000 A 
ATOM     11  C   UNL     1       5.628   5.457  15.268  0.00  0.00    +0.000 A 
ATOM     12  C   UNL     1       5.358   6.714  15.783  0.00  0.00    +0.000 A 
ATOM     13  C   UNL     1       4.510   6.847  16.888  0.00  0.00    +0.000 A 
ATOM     14  C   UNL     1       3.895   5.725  17.506  0.00  0.00    +0.000 A 
ENDROOT
BRANCH   1  16
ATOM     15  N   UNL     1       1.778   7.863  18.670  0.00  0.00    +0.000 NA
ATOM     16  C   UNL     1       2.688   7.109  19.198  0.00  0.00    +0.000 C 
BRANCH  15  21
ATOM     17  C   UNL     1       1.232  11.654  20.410  0.00  0.00    +0.000 C 
ATOM     18  N   UNL     1       0.585  11.269  19.168  0.00  0.00    +0.000 NA
ATOM     19  C   UNL     1       0.827  10.088  18.696  0.00  0.00    +0.000 C 
ATOM     20  N   UNL     1       0.248   9.690  17.508  0.00  0.00    +0.000 N 
ATOM     21  N   UNL     1       1.616   9.093  19.239  0.00  0.00    +0.000 N 
ATOM     22  H   UNL     1       0.304   8.676  17.406  0.00  0.00    +0.000 HD
ATOM     23  H   UNL     1       2.114   9.329  20.089  0.00  0.00    +0.000 HD
BRANCH  20  24
ATOM     24  O   UNL     1      -1.038  10.220  17.325  0.00  0.00    +0.000 OA
ATOM     25  H   UNL     1      -1.393  10.215  18.242  0.00  0.00    +0.000 HD
ENDBRANCH  20  24
ENDBRANCH  15  21
ENDBRANCH   1  16
TORSDOF 3
ENDMDL
MODEL 5
REMARK VINA RESULT:      -8.5      3.683      5.997
REMARK  Name = 
REMARK  4 active torsions:
REMARK  status: ('A' for Active; 'I' for Inactive)
REMARK    1  A    between atoms: C_1  and  N_2
REMARK    2  A    between atoms: N_4  and  O_5
REMARK    3  A    between atoms: N_6  and  N_7
REMARK    4  A    between atoms: C_8  and  C_9
REMARK                            x       y       z     vdW  Elec       q    Type
REMARK                         _______ _______ _______ _____ _____    ______ ____
ROOT
ATOM      1  C   UNL     1       3.248   5.641  18.047  0.00  0.00    +0.000 A 
ATOM      2  C   UNL     1       4.611   5.783  17.628  0.00  0.00    +0.000 A 
ATOM      3  C   UNL     1       5.293   7.016  17.428  0.00  0.00    +0.000 A 
ATOM      4  C   UNL     1       6.622   7.075  17.001  0.00  0.00    +0.000 A 
ATOM      5  C   UNL     1       7.322   5.903  16.774  0.00  0.00    +0.000 A 
ATOM      6  C   UNL     1       6.695   4.677  16.986  0.00  0.00    +0.000 A 
ATOM      7  C   UNL     1       5.358   4.606  17.416  0.00  0.00    +0.000 A 
ATOM      8  C   UNL     1       4.769   3.354  17.642  0.00  0.00    +0.000 A 
ATOM      9  C   UNL     1       3.443   3.219  18.076  0.00  0.00    +0.000 A 
ATOM     10  C   UNL     1       2.914   1.935  18.298  0.00  0.00    +0.000 A 
ATOM     11  C   UNL     1       1.597   1.759  18.716  0.00  0.00    +0.000 A 
ATOM     12  C   UNL     1       0.790   2.868  18.911  0.00  0.00    +0.000 A 
ATOM     13  C   UNL     1       1.304   4.151  18.694  0.00  0.00    +0.000 A 
ATOM     14  C   UNL     1       2.647   4.366  18.285  0.00  0.00    +0.000 A 
ENDROOT
BRANCH   1  16
ATOM     15  N   UNL     1       2.348   7.425  19.425  0.00  0.00    +0.000 NA
ATOM     16  C   UNL     1       2.418   6.853  18.266  0.00  0.00    +0.000 C 
BRANCH  15  21
ATOM     17  C   UNL     1      -0.243  10.723  19.745  0.00  0.00    +0.000 C 
ATOM     18  N   UNL     1       0.350  10.086  20.907  0.00  0.00    +0.000 NA
ATOM     19  C   UNL     1       1.120   9.063  20.714  0.00  0.00    +0.000 C 
ATOM     20  N   UNL     1       1.687   8.415  21.794  0.00  0.00    +0.000 N 
ATOM     21  N   UNL     1       1.499   8.489  19.517  0.00  0.00    +0.000 N 
ATOM     22  H   UNL     1       2.462   7.825  21.489  0.00  0.00    +0.000 HD
ATOM     23  H   UNL     1       1.083   8.881  18.680  0.00  0.00    +0.000 HD
BRANCH  20  24
ATOM     24  O   UNL     1       2.003   9.287  22.846  0.00  0.00    +0.000 OA
ATOM     25  H   UNL     1       2.509   8.702  23.451  0.00  0.00    +0.000 HD
ENDBRANCH  20  24
ENDBRANCH  15  21
ENDBRANCH   1  16
TORSDOF 3
ENDMDL
MODEL 6
REMARK VINA RESULT:      -8.5      3.693      6.587
REMARK  Name = 
REMARK  4 active torsions:
REMARK  status: ('A' for Active; 'I' for Inactive)
REMARK    1  A    between atoms: C_1  and  N_2
REMARK    2  A    between atoms: N_4  and  O_5
REMARK    3  A    between atoms: N_6  and  N_7
REMARK    4  A    between atoms: C_8  and  C_9
REMARK                            x       y       z     vdW  Elec       q    Type
REMARK                         _______ _______ _______ _____ _____    ______ ____
ROOT
ATOM      1  C   UNL     1       3.253   5.635  18.077  0.00  0.00    +0.000 A 
ATOM      2  C   UNL     1       2.649   4.353  18.297  0.00  0.00    +0.000 A 
ATOM      3  C   UNL     1       1.294   4.128  18.671  0.00  0.00    +0.000 A 
ATOM      4  C   UNL     1       0.780   2.846  18.884  0.00  0.00    +0.000 A 
ATOM      5  C   UNL     1       1.597   1.743  18.715  0.00  0.00    +0.000 A 
ATOM      6  C   UNL     1       2.922   1.924  18.323  0.00  0.00    +0.000 A 
ATOM      7  C   UNL     1       3.450   3.209  18.105  0.00  0.00    +0.000 A 
ATOM      8  C   UNL     1       4.781   3.349  17.687  0.00  0.00    +0.000 A 
ATOM      9  C   UNL     1       5.361   4.603  17.449  0.00  0.00    +0.000 A 
ATOM     10  C   UNL     1       6.698   4.676  17.018  0.00  0.00    +0.000 A 
ATOM     11  C   UNL     1       7.314   5.904  16.784  0.00  0.00    +0.000 A 
ATOM     12  C   UNL     1       6.601   7.075  16.985  0.00  0.00    +0.000 A 
ATOM     13  C   UNL     1       5.270   7.015  17.413  0.00  0.00    +0.000 A 
ATOM     14  C   UNL     1       4.607   5.780  17.644  0.00  0.00    +0.000 A 
ENDROOT
BRANCH   1  16
ATOM     15  N   UNL     1       2.327   7.406  19.455  0.00  0.00    +0.000 NA
ATOM     16  C   UNL     1       2.452   6.868  18.284  0.00  0.00    +0.000 C 
BRANCH  15  21
ATOM     17  C   UNL     1      -0.164  10.784  19.720  0.00  0.00    +0.000 C 
ATOM     18  N   UNL     1       0.394  10.137  20.894  0.00  0.00    +0.000 NA
ATOM     19  C   UNL     1       1.135   9.090  20.718  0.00  0.00    +0.000 C 
ATOM     20  N   UNL     1       1.668   8.433  21.808  0.00  0.00    +0.000 N 
ATOM     21  N   UNL     1       1.510   8.496  19.529  0.00  0.00    +0.000 N 
ATOM     22  H   UNL     1       2.428   7.817  21.517  0.00  0.00    +0.000 HD
ATOM     23  H   UNL     1       1.117   8.894  18.684  0.00  0.00    +0.000 HD
BRANCH  20  24
ATOM     24  O   UNL     1       1.998   9.303  22.859  0.00  0.00    +0.000 OA
ATOM     25  H   UNL     1       2.342  10.086  22.375  0.00  0.00    +0.000 HD
ENDBRANCH  20  24
ENDBRANCH  15  21
ENDBRANCH   1  16
TORSDOF 3
ENDMDL
MODEL 7
REMARK VINA RESULT:      -8.5      3.525      5.937
REMARK  Name = 
REMARK  4 active torsions:
REMARK  status: ('A' for Active; 'I' for Inactive)
REMARK    1  A    between atoms: C_1  and  N_2
REMARK    2  A    between atoms: N_4  and  O_5
REMARK    3  A    between atoms: N_6  and  N_7
REMARK    4  A    between atoms: C_8  and  C_9
REMARK                            x       y       z     vdW  Elec       q    Type
REMARK                         _______ _______ _______ _____ _____    ______ ____
ROOT
ATOM      1  C   UNL     1       2.883   5.619  18.171  0.00  0.00    +0.000 A 
ATOM      2  C   UNL     1       3.967   5.511  17.239  0.00  0.00    +0.000 A 
ATOM      3  C   UNL     1       4.522   6.583  16.485  0.00  0.00    +0.000 A 
ATOM      4  C   UNL     1       5.571   6.396  15.580  0.00  0.00    +0.000 A 
ATOM      5  C   UNL     1       6.113   5.135  15.409  0.00  0.00    +0.000 A 
ATOM      6  C   UNL     1       5.612   4.067  16.151  0.00  0.00    +0.000 A 
ATOM      7  C   UNL     1       4.558   4.243  17.065  0.00  0.00    +0.000 A 
ATOM      8  C   UNL     1       4.098   3.149  17.811  0.00  0.00    +0.000 A 
ATOM      9  C   UNL     1       3.054   3.263  18.740  0.00  0.00    +0.000 A 
ATOM     10  C   UNL     1       2.648   2.130  19.467  0.00  0.00    +0.000 A 
ATOM     11  C   UNL     1       1.606   2.201  20.389  0.00  0.00    +0.000 A 
ATOM     12  C   UNL     1       0.952   3.406  20.589  0.00  0.00    +0.000 A 
ATOM     13  C   UNL     1       1.347   4.540  19.872  0.00  0.00    +0.000 A 
ATOM     14  C   UNL     1       2.417   4.507  18.938  0.00  0.00    +0.000 A 
ENDROOT
BRANCH   1  16
ATOM     15  N   UNL     1       2.303   7.565  19.501  0.00  0.00    +0.000 NA
ATOM     16  C   UNL     1       2.219   6.932  18.374  0.00  0.00    +0.000 C 
BRANCH  15  21
ATOM     17  C   UNL     1       0.142  11.161  19.807  0.00  0.00    +0.000 C 
ATOM     18  N   UNL     1       0.573  10.412  20.975  0.00  0.00    +0.000 NA
ATOM     19  C   UNL     1       1.216   9.305  20.784  0.00  0.00    +0.000 C 
ATOM     20  N   UNL     1       1.626   8.552  21.866  0.00  0.00    +0.000 N 
ATOM     21  N   UNL     1       1.593   8.727  19.588  0.00  0.00    +0.000 N 
ATOM     22  H   UNL     1       2.336   7.876  21.583  0.00  0.00    +0.000 HD
ATOM     23  H   UNL     1       1.285   9.198  18.745  0.00  0.00    +0.000 HD
BRANCH  20  24
ATOM     24  O   UNL     1       1.983   9.338  22.971  0.00  0.00    +0.000 OA
ATOM     25  H   UNL     1       2.723   8.820  23.360  0.00  0.00    +0.000 HD
ENDBRANCH  20  24
ENDBRANCH  15  21
ENDBRANCH   1  16
TORSDOF 3
ENDMDL
MODEL 8
REMARK VINA RESULT:      -8.3      3.553      6.544
REMARK  Name = 
REMARK  4 active torsions:
REMARK  status: ('A' for Active; 'I' for Inactive)
REMARK    1  A    between atoms: C_1  and  N_2
REMARK    2  A    between atoms: N_4  and  O_5
REMARK    3  A    between atoms: N_6  and  N_7
REMARK    4  A    between atoms: C_8  and  C_9
REMARK                            x       y       z     vdW  Elec       q    Type
REMARK                         _______ _______ _______ _____ _____    ______ ____
ROOT
ATOM      1  C   UNL     1       2.959   5.726  18.250  0.00  0.00    +0.000 A 
ATOM      2  C   UNL     1       2.531   4.659  19.106  0.00  0.00    +0.000 A 
ATOM      3  C   UNL     1       1.431   4.709  20.007  0.00  0.00    +0.000 A 
ATOM      4  C   UNL     1       1.083   3.630  20.825  0.00  0.00    +0.000 A 
ATOM      5  C   UNL     1       1.814   2.457  20.759  0.00  0.00    +0.000 A 
ATOM      6  C   UNL     1       2.881   2.362  19.869  0.00  0.00    +0.000 A 
ATOM      7  C   UNL     1       3.239   3.441  19.041  0.00  0.00    +0.000 A 
ATOM      8  C   UNL     1       4.304   3.299  18.139  0.00  0.00    +0.000 A 
ATOM      9  C   UNL     1       4.704   4.336  17.285  0.00  0.00    +0.000 A 
ATOM     10  C   UNL     1       5.772   4.126  16.394  0.00  0.00    +0.000 A 
ATOM     11  C   UNL     1       6.207   5.137  15.540  0.00  0.00    +0.000 A 
ATOM     12  C   UNL     1       5.583   6.373  15.572  0.00  0.00    +0.000 A 
ATOM     13  C   UNL     1       4.520   6.595  16.453  0.00  0.00    +0.000 A 
ATOM     14  C   UNL     1       4.039   5.581  17.325  0.00  0.00    +0.000 A 
ENDROOT
BRANCH   1  16
ATOM     15  N   UNL     1       2.208   7.737  19.382  0.00  0.00    +0.000 NA
ATOM     16  C   UNL     1       2.254   7.031  18.297  0.00  0.00    +0.000 C 
BRANCH  15  21
ATOM     17  C   UNL     1      -0.040  11.288  19.229  0.00  0.00    +0.000 C 
ATOM     18  N   UNL     1       0.228  10.592  20.475  0.00  0.00    +0.000 NA
ATOM     19  C   UNL     1       0.913   9.494  20.424  0.00  0.00    +0.000 C 
ATOM     20  N   UNL     1       1.172   8.791  21.582  0.00  0.00    +0.000 N 
ATOM     21  N   UNL     1       1.472   8.884  19.319  0.00  0.00    +0.000 N 
ATOM     22  H   UNL     1       1.929   8.122  21.432  0.00  0.00    +0.000 HD
ATOM     23  H   UNL     1       1.283   9.317  18.422  0.00  0.00    +0.000 HD
BRANCH  20  24
ATOM     24  O   UNL     1       1.349   9.624  22.697  0.00  0.00    +0.000 OA
ATOM     25  H   UNL     1       2.326   9.627  22.796  0.00  0.00    +0.000 HD
ENDBRANCH  20  24
ENDBRANCH  15  21
ENDBRANCH   1  16
TORSDOF 3
ENDMDL
MODEL 9
REMARK VINA RESULT:      -8.2      3.375      6.158
REMARK  Name = 
REMARK  4 active torsions:
REMARK  status: ('A' for Active; 'I' for Inactive)
REMARK    1  A    between atoms: C_1  and  N_2
REMARK    2  A    between atoms: N_4  and  O_5
REMARK    3  A    between atoms: N_6  and  N_7
REMARK    4  A    between atoms: C_8  and  C_9
REMARK                            x       y       z     vdW  Elec       q    Type
REMARK                         _______ _______ _______ _____ _____    ______ ____
ROOT
ATOM      1  C   UNL     1       3.477   5.972  17.960  0.00  0.00    +0.000 A 
ATOM      2  C   UNL     1       2.738   5.087  18.812  0.00  0.00    +0.000 A 
ATOM      3  C   UNL     1       1.803   5.484  19.809  0.00  0.00    +0.000 A 
ATOM      4  C   UNL     1       1.132   4.561  20.615  0.00  0.00    +0.000 A 
ATOM      5  C   UNL     1       1.359   3.206  20.442  0.00  0.00    +0.000 A 
ATOM      6  C   UNL     1       2.247   2.780  19.457  0.00  0.00    +0.000 A 
ATOM      7  C   UNL     1       2.927   3.700  18.639  0.00  0.00    +0.000 A 
ATOM      8  C   UNL     1       3.794   3.232  17.642  0.00  0.00    +0.000 A 
ATOM      9  C   UNL     1       4.497   4.099  16.794  0.00  0.00    +0.000 A 
ATOM     10  C   UNL     1       5.341   3.566  15.804  0.00  0.00    +0.000 A 
ATOM     11  C   UNL     1       6.066   4.396  14.951  0.00  0.00    +0.000 A 
ATOM     12  C   UNL     1       5.959   5.771  15.083  0.00  0.00    +0.000 A 
ATOM     13  C   UNL     1       5.122   6.314  16.064  0.00  0.00    +0.000 A 
ATOM     14  C   UNL     1       4.356   5.497  16.938  0.00  0.00    +0.000 A 
ENDROOT
BRANCH   1  16
ATOM     15  N   UNL     1       2.252   8.054  17.722  0.00  0.00    +0.000 NA
ATOM     16  C   UNL     1       3.322   7.440  18.117  0.00  0.00    +0.000 C 
BRANCH  15  21
ATOM     17  C   UNL     1       2.264  12.234  18.188  0.00  0.00    +0.000 C 
ATOM     18  N   UNL     1       1.421  11.366  18.990  0.00  0.00    +0.000 NA
ATOM     19  C   UNL     1       1.468  10.092  18.763  0.00  0.00    +0.000 C 
ATOM     20  N   UNL     1       0.667   9.234  19.489  0.00  0.00    +0.000 N 
ATOM     21  N   UNL     1       2.257   9.412  17.858  0.00  0.00    +0.000 N 
ATOM     22  H   UNL     1       1.001   8.273  19.401  0.00  0.00    +0.000 HD
ATOM     23  H   UNL     1       2.839   9.980  17.253  0.00  0.00    +0.000 HD
BRANCH  20  24
ATOM     24  O   UNL     1       0.472   9.660  20.812  0.00  0.00    +0.000 OA
ATOM     25  H   UNL     1      -0.261  10.306  20.712  0.00  0.00    +0.000 HD
ENDBRANCH  20  24
ENDBRANCH  15  21
ENDBRANCH   1  16
TORSDOF 3
ENDMDL
