MODEL 1
REMARK VINA RESULT:      -9.2      0.000      0.000
REMARK  Name = 
REMARK  4 active torsions:
REMARK  status: ('A' for Active; 'I' for Inactive)
REMARK    1  A    between atoms: C_5  and  C_6
REMARK    2  A    between atoms: C_11  and  O_12
REMARK    3  A    between atoms: O_12  and  C_13
REMARK    4  A    between atoms: C_16  and  N_17
REMARK                            x       y       z     vdW  Elec       q    Type
REMARK                         _______ _______ _______ _____ _____    ______ ____
ROOT
ATOM      1  C   UNL     1       2.255   7.482  19.287  0.00  0.00    +0.000 A 
ATOM      2  C   UNL     1       1.569   8.151  20.297  0.00  0.00    +0.000 A 
ATOM      3  C   UNL     1       0.923   9.367  20.027  0.00  0.00    +0.000 A 
ATOM      4  C   UNL     1       0.968   9.963  18.752  0.00  0.00    +0.000 A 
ATOM      5  C   UNL     1       1.590   9.231  17.738  0.00  0.00    +0.000 A 
ATOM      6  C   UNL     1       2.250   8.021  18.002  0.00  0.00    +0.000 A 
ENDROOT
BRANCH   4   7
ATOM      7  N   UNL     1       0.387  11.241  18.592  0.00  0.00    +0.000 N 
ATOM      8  C   UNL     1       0.937  12.485  18.661  0.00  0.00    +0.000 A 
ATOM      9  N   UNL     1       0.209  13.497  19.093  0.00  0.00    +0.000 NA
ATOM     10  C   UNL     1       0.934  14.678  19.092  0.00  0.00    +0.000 A 
ATOM     11  C   UNL     1       0.473  15.943  19.516  0.00  0.00    +0.000 A 
ATOM     12  C   UNL     1       1.318  17.055  19.437  0.00  0.00    +0.000 A 
ATOM     13  C   UNL     1       2.614  16.924  18.946  0.00  0.00    +0.000 A 
ATOM     14  C   UNL     1       3.096  15.680  18.531  0.00  0.00    +0.000 A 
ATOM     15  C   UNL     1       2.237  14.572  18.614  0.00  0.00    +0.000 A 
ATOM     16  S   UNL     1       2.528  12.939  18.186  0.00  0.00    +0.000 S 
ATOM     17  H   UNL     1      -0.579  11.258  18.914  0.00  0.00    +0.000 HD
ENDBRANCH   4   7
BRANCH   1  18
ATOM     18  O   UNL     1       2.989   6.376  19.656  0.00  0.00    +0.000 OA
BRANCH  18  24
ATOM     19  C   UNL     1       4.018   4.818  18.130  0.00  0.00    +0.000 A 
ATOM     20  C   UNL     1       3.849   3.616  17.412  0.00  0.00    +0.000 A 
ATOM     21  C   UNL     1       2.653   2.903  17.455  0.00  0.00    +0.000 A 
ATOM     22  C   UNL     1       1.639   3.386  18.252  0.00  0.00    +0.000 A 
ATOM     23  N   UNL     1       1.746   4.507  18.982  0.00  0.00    +0.000 NA
ATOM     24  C   UNL     1       2.902   5.216  18.895  0.00  0.00    +0.000 A 
BRANCH  19  29
ATOM     25  C   UNL     1       7.562   6.042  18.825  0.00  0.00    +0.000 A 
ATOM     26  C   UNL     1       7.679   6.992  17.831  0.00  0.00    +0.000 A 
ATOM     27  N   UNL     1       6.694   7.272  16.956  0.00  0.00    +0.000 NA
ATOM     28  C   UNL     1       5.541   6.562  17.077  0.00  0.00    +0.000 A 
ATOM     29  C   UNL     1       5.302   5.563  18.023  0.00  0.00    +0.000 A 
ATOM     30  C   UNL     1       6.368   5.324  18.913  0.00  0.00    +0.000 A 
ENDBRANCH  19  29
ENDBRANCH  18  24
ENDBRANCH   1  18
TORSDOF 4
ENDMDL
MODEL 2
REMARK VINA RESULT:      -8.9      0.813      1.400
REMARK  Name = 
REMARK  4 active torsions:
REMARK  status: ('A' for Active; 'I' for Inactive)
REMARK    1  A    between atoms: C_5  and  C_6
REMARK    2  A    between atoms: C_11  and  O_12
REMARK    3  A    between atoms: O_12  and  C_13
REMARK    4  A    between atoms: C_16  and  N_17
REMARK                            x       y       z     vdW  Elec       q    Type
REMARK                         _______ _______ _______ _____ _____    ______ ____
ROOT
ATOM      1  C   UNL     1       2.360   7.309  19.690  0.00  0.00    +0.000 A 
ATOM      2  C   UNL     1       2.530   7.832  18.411  0.00  0.00    +0.000 A 
ATOM      3  C   UNL     1       1.904   9.035  18.051  0.00  0.00    +0.000 A 
ATOM      4  C   UNL     1       1.070   9.733  18.946  0.00  0.00    +0.000 A 
ATOM      5  C   UNL     1       0.985   9.232  20.246  0.00  0.00    +0.000 A 
ATOM      6  C   UNL     1       1.596   8.022  20.611  0.00  0.00    +0.000 A 
ENDROOT
BRANCH   4   7
ATOM      7  N   UNL     1       0.390  10.876  18.469  0.00  0.00    +0.000 N 
ATOM      8  C   UNL     1       0.699  12.199  18.559  0.00  0.00    +0.000 A 
ATOM      9  N   UNL     1      -0.270  13.092  18.627  0.00  0.00    +0.000 NA
ATOM     10  C   UNL     1       0.236  14.380  18.712  0.00  0.00    +0.000 A 
ATOM     11  C   UNL     1      -0.518  15.568  18.824  0.00  0.00    +0.000 A 
ATOM     12  C   UNL     1       0.135  16.805  18.880  0.00  0.00    +0.000 A 
ATOM     13  C   UNL     1       1.524  16.873  18.829  0.00  0.00    +0.000 A 
ATOM     14  C   UNL     1       2.291  15.709  18.729  0.00  0.00    +0.000 A 
ATOM     15  C   UNL     1       1.623  14.475  18.672  0.00  0.00    +0.000 A 
ATOM     16  S   UNL     1       2.274  12.896  18.545  0.00  0.00    +0.000 S 
ATOM     17  H   UNL     1      -0.620  10.743  18.475  0.00  0.00    +0.000 HD
ENDBRANCH   4   7
BRANCH   1  18
ATOM     18  O   UNL     1       2.878   6.053  19.926  0.00  0.00    +0.000 OA
BRANCH  18  24
ATOM     19  C   UNL     1       3.891   4.724  18.189  0.00  0.00    +0.000 A 
ATOM     20  C   UNL     1       3.681   3.700  17.241  0.00  0.00    +0.000 A 
ATOM     21  C   UNL     1       2.431   3.107  17.073  0.00  0.00    +0.000 A 
ATOM     22  C   UNL     1       1.403   3.524  17.888  0.00  0.00    +0.000 A 
ATOM     23  N   UNL     1       1.543   4.470  18.828  0.00  0.00    +0.000 NA
ATOM     24  C   UNL     1       2.756   5.072  18.949  0.00  0.00    +0.000 A 
BRANCH  19  29
ATOM     25  C   UNL     1       6.966   6.857  17.457  0.00  0.00    +0.000 A 
ATOM     26  C   UNL     1       7.766   6.484  18.518  0.00  0.00    +0.000 A 
ATOM     27  N   UNL     1       7.387   5.588  19.450  0.00  0.00    +0.000 NA
ATOM     28  C   UNL     1       6.147   5.046  19.318  0.00  0.00    +0.000 A 
ATOM     29  C   UNL     1       5.235   5.352  18.305  0.00  0.00    +0.000 A 
ATOM     30  C   UNL     1       5.695   6.289  17.359  0.00  0.00    +0.000 A 
ENDBRANCH  19  29
ENDBRANCH  18  24
ENDBRANCH   1  18
TORSDOF 4
ENDMDL
MODEL 3
REMARK VINA RESULT:      -8.9      1.076      1.447
REMARK  Name = 
REMARK  4 active torsions:
REMARK  status: ('A' for Active; 'I' for Inactive)
REMARK    1  A    between atoms: C_5  and  C_6
REMARK    2  A    between atoms: C_11  and  O_12
REMARK    3  A    between atoms: O_12  and  C_13
REMARK    4  A    between atoms: C_16  and  N_17
REMARK                            x       y       z     vdW  Elec       q    Type
REMARK                         _______ _______ _______ _____ _____    ______ ____
ROOT
ATOM      1  C   UNL     1       2.245   7.347  19.505  0.00  0.00    +0.000 A 
ATOM      2  C   UNL     1       1.553   8.095  20.454  0.00  0.00    +0.000 A 
ATOM      3  C   UNL     1       0.934   9.300  20.089  0.00  0.00    +0.000 A 
ATOM      4  C   UNL     1       1.012   9.805  18.777  0.00  0.00    +0.000 A 
ATOM      5  C   UNL     1       1.638   8.995  17.828  0.00  0.00    +0.000 A 
ATOM      6  C   UNL     1       2.272   7.796  18.187  0.00  0.00    +0.000 A 
ENDROOT
BRANCH   4   7
ATOM      7  N   UNL     1       0.456  11.079  18.519  0.00  0.00    +0.000 N 
ATOM      8  C   UNL     1       1.015  12.320  18.555  0.00  0.00    +0.000 A 
ATOM      9  N   UNL     1       0.277  13.359  18.893  0.00  0.00    +0.000 NA
ATOM     10  C   UNL     1       1.015  14.532  18.873  0.00  0.00    +0.000 A 
ATOM     11  C   UNL     1       0.545  15.821  19.204  0.00  0.00    +0.000 A 
ATOM     12  C   UNL     1       1.407  16.920  19.117  0.00  0.00    +0.000 A 
ATOM     13  C   UNL     1       2.727  16.752  18.709  0.00  0.00    +0.000 A 
ATOM     14  C   UNL     1       3.217  15.484  18.387  0.00  0.00    +0.000 A 
ATOM     15  C   UNL     1       2.341  14.389  18.477  0.00  0.00    +0.000 A 
ATOM     16  S   UNL     1       2.637  12.735  18.150  0.00  0.00    +0.000 S 
ATOM     17  H   UNL     1      -0.526  11.121  18.783  0.00  0.00    +0.000 HD
ENDBRANCH   4   7
BRANCH   1  18
ATOM     18  O   UNL     1       2.954   6.257  19.963  0.00  0.00    +0.000 OA
BRANCH  18  24
ATOM     19  C   UNL     1       3.213   4.126  18.866  0.00  0.00    +0.000 A 
ATOM     20  C   UNL     1       2.664   2.839  18.690  0.00  0.00    +0.000 A 
ATOM     21  C   UNL     1       1.467   2.467  19.299  0.00  0.00    +0.000 A 
ATOM     22  C   UNL     1       0.844   3.384  20.115  0.00  0.00    +0.000 A 
ATOM     23  N   UNL     1       1.328   4.613  20.348  0.00  0.00    +0.000 NA
ATOM     24  C   UNL     1       2.472   4.978  19.711  0.00  0.00    +0.000 A 
BRANCH  19  29
ATOM     25  C   UNL     1       5.655   5.303  16.184  0.00  0.00    +0.000 A 
ATOM     26  C   UNL     1       6.845   5.121  16.857  0.00  0.00    +0.000 A 
ATOM     27  N   UNL     1       6.919   4.639  18.113  0.00  0.00    +0.000 NA
ATOM     28  C   UNL     1       5.744   4.333  18.726  0.00  0.00    +0.000 A 
ATOM     29  C   UNL     1       4.475   4.488  18.165  0.00  0.00    +0.000 A 
ATOM     30  C   UNL     1       4.468   4.988  16.848  0.00  0.00    +0.000 A 
ENDBRANCH  19  29
ENDBRANCH  18  24
ENDBRANCH   1  18
TORSDOF 4
ENDMDL
MODEL 4
REMARK VINA RESULT:      -8.8      2.839      3.423
REMARK  Name = 
REMARK  4 active torsions:
REMARK  status: ('A' for Active; 'I' for Inactive)
REMARK    1  A    between atoms: C_5  and  C_6
REMARK    2  A    between atoms: C_11  and  O_12
REMARK    3  A    between atoms: O_12  and  C_13
REMARK    4  A    between atoms: C_16  and  N_17
REMARK                            x       y       z     vdW  Elec       q    Type
REMARK                         _______ _______ _______ _____ _____    ______ ____
ROOT
ATOM      1  C   UNL     1       2.264   7.371  19.605  0.00  0.00    +0.000 A 
ATOM      2  C   UNL     1       1.520   7.772  20.711  0.00  0.00    +0.000 A 
ATOM      3  C   UNL     1       0.775   8.960  20.668  0.00  0.00    +0.000 A 
ATOM      4  C   UNL     1       0.773   9.792  19.533  0.00  0.00    +0.000 A 
ATOM      5  C   UNL     1       1.457   9.324  18.409  0.00  0.00    +0.000 A 
ATOM      6  C   UNL     1       2.216   8.145  18.448  0.00  0.00    +0.000 A 
ENDROOT
BRANCH   4   7
ATOM      7  N   UNL     1       0.086  11.025  19.611  0.00  0.00    +0.000 N 
ATOM      8  C   UNL     1      -0.824  11.483  20.515  0.00  0.00    +0.000 A 
ATOM      9  N   UNL     1      -1.768  12.318  20.126  0.00  0.00    +0.000 NA
ATOM     10  C   UNL     1      -2.594  12.673  21.181  0.00  0.00    +0.000 A 
ATOM     11  C   UNL     1      -3.717  13.526  21.112  0.00  0.00    +0.000 A 
ATOM     12  C   UNL     1      -4.447  13.810  22.271  0.00  0.00    +0.000 A 
ATOM     13  C   UNL     1      -4.078  13.255  23.493  0.00  0.00    +0.000 A 
ATOM     14  C   UNL     1      -2.977  12.399  23.583  0.00  0.00    +0.000 A 
ATOM     15  C   UNL     1      -2.251  12.124  22.412  0.00  0.00    +0.000 A 
ATOM     16  S   UNL     1      -0.872  11.131  22.200  0.00  0.00    +0.000 S 
ATOM     17  H   UNL     1      -0.103  11.409  18.687  0.00  0.00    +0.000 HD
ENDBRANCH   4   7
BRANCH   1  18
ATOM     18  O   UNL     1       3.088   6.278  19.768  0.00  0.00    +0.000 OA
BRANCH  18  24
ATOM     19  C   UNL     1       4.044   4.867  18.063  0.00  0.00    +0.000 A 
ATOM     20  C   UNL     1       3.838   3.738  17.243  0.00  0.00    +0.000 A 
ATOM     21  C   UNL     1       2.639   3.028  17.267  0.00  0.00    +0.000 A 
ATOM     22  C   UNL     1       1.662   3.438  18.146  0.00  0.00    +0.000 A 
ATOM     23  N   UNL     1       1.805   4.485  18.973  0.00  0.00    +0.000 NA
ATOM     24  C   UNL     1       2.962   5.195  18.906  0.00  0.00    +0.000 A 
BRANCH  19  29
ATOM     25  C   UNL     1       7.597   6.058  18.773  0.00  0.00    +0.000 A 
ATOM     26  C   UNL     1       7.705   7.047  17.818  0.00  0.00    +0.000 A 
ATOM     27  N   UNL     1       6.712   7.364  16.964  0.00  0.00    +0.000 NA
ATOM     28  C   UNL     1       5.559   6.651  17.067  0.00  0.00    +0.000 A 
ATOM     29  C   UNL     1       5.328   5.614  17.974  0.00  0.00    +0.000 A 
ATOM     30  C   UNL     1       6.402   5.338  18.843  0.00  0.00    +0.000 A 
ENDBRANCH  19  29
ENDBRANCH  18  24
ENDBRANCH   1  18
TORSDOF 4
ENDMDL
MODEL 5
REMARK VINA RESULT:      -8.6      2.984      3.460
REMARK  Name = 
REMARK  4 active torsions:
REMARK  status: ('A' for Active; 'I' for Inactive)
REMARK    1  A    between atoms: C_5  and  C_6
REMARK    2  A    between atoms: C_11  and  O_12
REMARK    3  A    between atoms: O_12  and  C_13
REMARK    4  A    between atoms: C_16  and  N_17
REMARK                            x       y       z     vdW  Elec       q    Type
REMARK                         _______ _______ _______ _____ _____    ______ ____
ROOT
ATOM      1  C   UNL     1       3.076   6.681  19.063  0.00  0.00    +0.000 A 
ATOM      2  C   UNL     1       2.239   7.071  20.105  0.00  0.00    +0.000 A 
ATOM      3  C   UNL     1       1.452   8.226  19.985  0.00  0.00    +0.000 A 
ATOM      4  C   UNL     1       1.500   9.039  18.836  0.00  0.00    +0.000 A 
ATOM      5  C   UNL     1       2.282   8.580  17.775  0.00  0.00    +0.000 A 
ATOM      6  C   UNL     1       3.082   7.434  17.891  0.00  0.00    +0.000 A 
ENDROOT
BRANCH   4   7
ATOM      7  N   UNL     1       0.761  10.243  18.840  0.00  0.00    +0.000 N 
ATOM      8  C   UNL     1      -0.039  10.796  19.794  0.00  0.00    +0.000 A 
ATOM      9  N   UNL     1      -1.075  11.529  19.433  0.00  0.00    +0.000 NA
ATOM     10  C   UNL     1      -1.766  12.004  20.537  0.00  0.00    +0.000 A 
ATOM     11  C   UNL     1      -2.934  12.796  20.514  0.00  0.00    +0.000 A 
ATOM     12  C   UNL     1      -3.512  13.220  21.715  0.00  0.00    +0.000 A 
ATOM     13  C   UNL     1      -2.946  12.864  22.936  0.00  0.00    +0.000 A 
ATOM     14  C   UNL     1      -1.796  12.072  22.983  0.00  0.00    +0.000 A 
ATOM     15  C   UNL     1      -1.225  11.654  21.769  0.00  0.00    +0.000 A 
ATOM     16  S   UNL     1       0.167  10.693  21.501  0.00  0.00    +0.000 S 
ATOM     17  H   UNL     1       0.424  10.481  17.909  0.00  0.00    +0.000 HD
ENDBRANCH   4   7
BRANCH   1  18
ATOM     18  O   UNL     1       3.929   5.626  19.307  0.00  0.00    +0.000 OA
BRANCH  18  24
ATOM     19  C   UNL     1       4.090   3.601  18.011  0.00  0.00    +0.000 A 
ATOM     20  C   UNL     1       3.607   2.284  17.851  0.00  0.00    +0.000 A 
ATOM     21  C   UNL     1       2.602   1.772  18.670  0.00  0.00    +0.000 A 
ATOM     22  C   UNL     1       2.111   2.578  19.673  0.00  0.00    +0.000 A 
ATOM     23  N   UNL     1       2.547   3.827  19.896  0.00  0.00    +0.000 NA
ATOM     24  C   UNL     1       3.495   4.329  19.061  0.00  0.00    +0.000 A 
BRANCH  19  29
ATOM     25  C   UNL     1       5.855   4.827  14.860  0.00  0.00    +0.000 A 
ATOM     26  C   UNL     1       7.120   5.036  15.369  0.00  0.00    +0.000 A 
ATOM     27  N   UNL     1       7.448   4.804  16.655  0.00  0.00    +0.000 NA
ATOM     28  C   UNL     1       6.460   4.348  17.471  0.00  0.00    +0.000 A 
ATOM     29  C   UNL     1       5.138   4.114  17.087  0.00  0.00    +0.000 A 
ATOM     30  C   UNL     1       4.863   4.369  15.729  0.00  0.00    +0.000 A 
ENDBRANCH  19  29
ENDBRANCH  18  24
ENDBRANCH   1  18
TORSDOF 4
ENDMDL
MODEL 6
REMARK VINA RESULT:      -8.5      1.250      1.695
REMARK  Name = 
REMARK  4 active torsions:
REMARK  status: ('A' for Active; 'I' for Inactive)
REMARK    1  A    between atoms: C_5  and  C_6
REMARK    2  A    between atoms: C_11  and  O_12
REMARK    3  A    between atoms: O_12  and  C_13
REMARK    4  A    between atoms: C_16  and  N_17
REMARK                            x       y       z     vdW  Elec       q    Type
REMARK                         _______ _______ _______ _____ _____    ______ ____
ROOT
ATOM      1  C   UNL     1       2.619   6.979  19.582  0.00  0.00    +0.000 A 
ATOM      2  C   UNL     1       2.739   7.513  18.301  0.00  0.00    +0.000 A 
ATOM      3  C   UNL     1       2.066   8.696  17.963  0.00  0.00    +0.000 A 
ATOM      4  C   UNL     1       1.232   9.362  18.882  0.00  0.00    +0.000 A 
ATOM      5  C   UNL     1       1.197   8.853  20.182  0.00  0.00    +0.000 A 
ATOM      6  C   UNL     1       1.856   7.663  20.525  0.00  0.00    +0.000 A 
ENDROOT
BRANCH   4   7
ATOM      7  N   UNL     1       0.503  10.484  18.428  0.00  0.00    +0.000 N 
ATOM      8  C   UNL     1       0.778  11.816  18.503  0.00  0.00    +0.000 A 
ATOM      9  N   UNL     1      -0.211  12.682  18.605  0.00  0.00    +0.000 NA
ATOM     10  C   UNL     1       0.261  13.984  18.667  0.00  0.00    +0.000 A 
ATOM     11  C   UNL     1      -0.521  15.151  18.805  0.00  0.00    +0.000 A 
ATOM     12  C   UNL     1       0.099  16.406  18.833  0.00  0.00    +0.000 A 
ATOM     13  C   UNL     1       1.483  16.512  18.730  0.00  0.00    +0.000 A 
ATOM     14  C   UNL     1       2.278  15.370  18.604  0.00  0.00    +0.000 A 
ATOM     15  C   UNL     1       1.643  14.117  18.575  0.00  0.00    +0.000 A 
ATOM     16  S   UNL     1       2.332  12.556  18.429  0.00  0.00    +0.000 S 
ATOM     17  H   UNL     1      -0.501  10.323  18.472  0.00  0.00    +0.000 HD
ENDBRANCH   4   7
BRANCH   1  18
ATOM     18  O   UNL     1       3.183   5.740  19.799  0.00  0.00    +0.000 OA
BRANCH  18  24
ATOM     19  C   UNL     1       3.144   3.808  18.358  0.00  0.00    +0.000 A 
ATOM     20  C   UNL     1       2.418   2.660  17.978  0.00  0.00    +0.000 A 
ATOM     21  C   UNL     1       1.173   2.367  18.533  0.00  0.00    +0.000 A 
ATOM     22  C   UNL     1       0.681   3.214  19.500  0.00  0.00    +0.000 A 
ATOM     23  N   UNL     1       1.335   4.305  19.928  0.00  0.00    +0.000 NA
ATOM     24  C   UNL     1       2.525   4.603  19.344  0.00  0.00    +0.000 A 
BRANCH  19  29
ATOM     25  C   UNL     1       6.830   4.651  17.856  0.00  0.00    +0.000 A 
ATOM     26  C   UNL     1       6.876   4.675  16.477  0.00  0.00    +0.000 A 
ATOM     27  N   UNL     1       5.803   4.444  15.696  0.00  0.00    +0.000 NA
ATOM     28  C   UNL     1       4.629   4.170  16.326  0.00  0.00    +0.000 A 
ATOM     29  C   UNL     1       4.452   4.097  17.709  0.00  0.00    +0.000 A 
ATOM     30  C   UNL     1       5.610   4.355  18.468  0.00  0.00    +0.000 A 
ENDBRANCH  19  29
ENDBRANCH  18  24
ENDBRANCH   1  18
TORSDOF 4
ENDMDL
MODEL 7
REMARK VINA RESULT:      -8.5      2.806      3.405
REMARK  Name = 
REMARK  4 active torsions:
REMARK  status: ('A' for Active; 'I' for Inactive)
REMARK    1  A    between atoms: C_5  and  C_6
REMARK    2  A    between atoms: C_11  and  O_12
REMARK    3  A    between atoms: O_12  and  C_13
REMARK    4  A    between atoms: C_16  and  N_17
REMARK                            x       y       z     vdW  Elec       q    Type
REMARK                         _______ _______ _______ _____ _____    ______ ____
ROOT
ATOM      1  C   UNL     1       2.311   7.519  19.671  0.00  0.00    +0.000 A 
ATOM      2  C   UNL     1       2.256   8.132  18.422  0.00  0.00    +0.000 A 
ATOM      3  C   UNL     1       1.362   9.187  18.191  0.00  0.00    +0.000 A 
ATOM      4  C   UNL     1       0.479   9.641  19.190  0.00  0.00    +0.000 A 
ATOM      5  C   UNL     1       0.614   9.068  20.456  0.00  0.00    +0.000 A 
ATOM      6  C   UNL     1       1.496   8.002  20.691  0.00  0.00    +0.000 A 
ENDROOT
BRANCH   4   7
ATOM      7  N   UNL     1      -0.466  10.633  18.844  0.00  0.00    +0.000 N 
ATOM      8  C   UNL     1      -1.312  11.369  19.618  0.00  0.00    +0.000 A 
ATOM      9  N   UNL     1      -2.478  11.748  19.132  0.00  0.00    +0.000 NA
ATOM     10  C   UNL     1      -3.196  12.485  20.060  0.00  0.00    +0.000 A 
ATOM     11  C   UNL     1      -4.489  13.023  19.881  0.00  0.00    +0.000 A 
ATOM     12  C   UNL     1      -5.083  13.766  20.907  0.00  0.00    +0.000 A 
ATOM     13  C   UNL     1      -4.409  13.978  22.107  0.00  0.00    +0.000 A 
ATOM     14  C   UNL     1      -3.133  13.446  22.311  0.00  0.00    +0.000 A 
ATOM     15  C   UNL     1      -2.548  12.703  21.272  0.00  0.00    +0.000 A 
ATOM     16  S   UNL     1      -1.018  11.936  21.217  0.00  0.00    +0.000 S 
ATOM     17  H   UNL     1      -0.880  10.455  17.931  0.00  0.00    +0.000 HD
ENDBRANCH   4   7
BRANCH   1  18
ATOM     18  O   UNL     1       3.102   6.395  19.782  0.00  0.00    +0.000 OA
BRANCH  18  24
ATOM     19  C   UNL     1       3.991   5.007  18.023  0.00  0.00    +0.000 A 
ATOM     20  C   UNL     1       3.735   3.916  17.166  0.00  0.00    +0.000 A 
ATOM     21  C   UNL     1       2.508   3.256  17.172  0.00  0.00    +0.000 A 
ATOM     22  C   UNL     1       1.553   3.674  18.071  0.00  0.00    +0.000 A 
ATOM     23  N   UNL     1       1.743   4.685  18.933  0.00  0.00    +0.000 NA
ATOM     24  C   UNL     1       2.927   5.349  18.884  0.00  0.00    +0.000 A 
BRANCH  19  29
ATOM     25  C   UNL     1       7.576   6.060  18.784  0.00  0.00    +0.000 A 
ATOM     26  C   UNL     1       7.737   7.044  17.830  0.00  0.00    +0.000 A 
ATOM     27  N   UNL     1       6.769   7.398  16.962  0.00  0.00    +0.000 NA
ATOM     28  C   UNL     1       5.588   6.730  17.049  0.00  0.00    +0.000 A 
ATOM     29  C   UNL     1       5.304   5.704  17.952  0.00  0.00    +0.000 A 
ATOM     30  C   UNL     1       6.354   5.388  18.837  0.00  0.00    +0.000 A 
ENDBRANCH  19  29
ENDBRANCH  18  24
ENDBRANCH   1  18
TORSDOF 4
ENDMDL
MODEL 8
REMARK VINA RESULT:      -8.4      1.528      1.727
REMARK  Name = 
REMARK  4 active torsions:
REMARK  status: ('A' for Active; 'I' for Inactive)
REMARK    1  A    between atoms: C_5  and  C_6
REMARK    2  A    between atoms: C_11  and  O_12
REMARK    3  A    between atoms: O_12  and  C_13
REMARK    4  A    between atoms: C_16  and  N_17
REMARK                            x       y       z     vdW  Elec       q    Type
REMARK                         _______ _______ _______ _____ _____    ______ ____
ROOT
ATOM      1  C   UNL     1       2.244   7.492  19.294  0.00  0.00    +0.000 A 
ATOM      2  C   UNL     1       1.504   8.171  20.258  0.00  0.00    +0.000 A 
ATOM      3  C   UNL     1       0.918   9.409  19.956  0.00  0.00    +0.000 A 
ATOM      4  C   UNL     1       1.079  10.017  18.695  0.00  0.00    +0.000 A 
ATOM      5  C   UNL     1       1.753   9.276  17.723  0.00  0.00    +0.000 A 
ATOM      6  C   UNL     1       2.353   8.044  18.020  0.00  0.00    +0.000 A 
ENDROOT
BRANCH   4   7
ATOM      7  N   UNL     1       0.551  11.314  18.509  0.00  0.00    +0.000 N 
ATOM      8  C   UNL     1       0.530  12.396  19.336  0.00  0.00    +0.000 A 
ATOM      9  N   UNL     1      -0.475  13.247  19.272  0.00  0.00    +0.000 NA
ATOM     10  C   UNL     1      -0.322  14.280  20.184  0.00  0.00    +0.000 A 
ATOM     11  C   UNL     1      -1.222  15.345  20.400  0.00  0.00    +0.000 A 
ATOM     12  C   UNL     1      -0.922  16.330  21.347  0.00  0.00    +0.000 A 
ATOM     13  C   UNL     1       0.259  16.267  22.082  0.00  0.00    +0.000 A 
ATOM     14  C   UNL     1       1.159  15.216  21.893  0.00  0.00    +0.000 A 
ATOM     15  C   UNL     1       0.846  14.234  20.938  0.00  0.00    +0.000 A 
ATOM     16  S   UNL     1       1.736  12.844  20.481  0.00  0.00    +0.000 S 
ATOM     17  H   UNL     1      -0.276  11.302  17.914  0.00  0.00    +0.000 HD
ENDBRANCH   4   7
BRANCH   1  18
ATOM     18  O   UNL     1       2.914   6.358  19.704  0.00  0.00    +0.000 OA
BRANCH  18  24
ATOM     19  C   UNL     1       4.019   4.744  18.295  0.00  0.00    +0.000 A 
ATOM     20  C   UNL     1       3.863   3.557  17.549  0.00  0.00    +0.000 A 
ATOM     21  C   UNL     1       2.628   2.921  17.440  0.00  0.00    +0.000 A 
ATOM     22  C   UNL     1       1.559   3.465  18.115  0.00  0.00    +0.000 A 
ATOM     23  N   UNL     1       1.646   4.574  18.865  0.00  0.00    +0.000 NA
ATOM     24  C   UNL     1       2.846   5.209  18.925  0.00  0.00    +0.000 A 
BRANCH  19  29
ATOM     25  C   UNL     1       6.993   6.974  17.440  0.00  0.00    +0.000 A 
ATOM     26  C   UNL     1       7.859   6.603  18.448  0.00  0.00    +0.000 A 
ATOM     27  N   UNL     1       7.556   5.680  19.382  0.00  0.00    +0.000 NA
ATOM     28  C   UNL     1       6.325   5.107  19.306  0.00  0.00    +0.000 A 
ATOM     29  C   UNL     1       5.351   5.406  18.351  0.00  0.00    +0.000 A 
ATOM     30  C   UNL     1       5.733   6.373  17.400  0.00  0.00    +0.000 A 
ENDBRANCH  19  29
ENDBRANCH  18  24
ENDBRANCH   1  18
TORSDOF 4
ENDMDL
MODEL 9
REMARK VINA RESULT:      -8.4      3.351      4.134
REMARK  Name = 
REMARK  4 active torsions:
REMARK  status: ('A' for Active; 'I' for Inactive)
REMARK    1  A    between atoms: C_5  and  C_6
REMARK    2  A    between atoms: C_11  and  O_12
REMARK    3  A    between atoms: O_12  and  C_13
REMARK    4  A    between atoms: C_16  and  N_17
REMARK                            x       y       z     vdW  Elec       q    Type
REMARK                         _______ _______ _______ _____ _____    ______ ____
ROOT
ATOM      1  C   UNL     1       2.465   7.340  19.537  0.00  0.00    +0.000 A 
ATOM      2  C   UNL     1       2.485   7.487  18.153  0.00  0.00    +0.000 A 
ATOM      3  C   UNL     1       1.674   8.449  17.533  0.00  0.00    +0.000 A 
ATOM      4  C   UNL     1       0.799   9.268  18.272  0.00  0.00    +0.000 A 
ATOM      5  C   UNL     1       0.860   9.158  19.663  0.00  0.00    +0.000 A 
ATOM      6  C   UNL     1       1.659   8.190  20.290  0.00  0.00    +0.000 A 
ENDROOT
BRANCH   4   7
ATOM      7  N   UNL     1      -0.065  10.132  17.563  0.00  0.00    +0.000 N 
ATOM      8  C   UNL     1      -1.276  10.657  17.899  0.00  0.00    +0.000 A 
ATOM      9  N   UNL     1      -2.167  10.898  16.958  0.00  0.00    +0.000 NA
ATOM     10  C   UNL     1      -3.332  11.430  17.489  0.00  0.00    +0.000 A 
ATOM     11  C   UNL     1      -4.495  11.779  16.770  0.00  0.00    +0.000 A 
ATOM     12  C   UNL     1      -5.593  12.327  17.444  0.00  0.00    +0.000 A 
ATOM     13  C   UNL     1      -5.548  12.528  18.821  0.00  0.00    +0.000 A 
ATOM     14  C   UNL     1      -4.411  12.179  19.555  0.00  0.00    +0.000 A 
ATOM     15  C   UNL     1      -3.316  11.632  18.866  0.00  0.00    +0.000 A 
ATOM     16  S   UNL     1      -1.801  11.114  19.475  0.00  0.00    +0.000 S 
ATOM     17  H   UNL     1      -0.008   9.978  16.558  0.00  0.00    +0.000 HD
ENDBRANCH   4   7
BRANCH   1  18
ATOM     18  O   UNL     1       3.171   6.279  20.064  0.00  0.00    +0.000 OA
BRANCH  18  24
ATOM     19  C   UNL     1       3.349   4.031  19.214  0.00  0.00    +0.000 A 
ATOM     20  C   UNL     1       2.757   2.750  19.191  0.00  0.00    +0.000 A 
ATOM     21  C   UNL     1       1.558   2.488  19.850  0.00  0.00    +0.000 A 
ATOM     22  C   UNL     1       0.975   3.511  20.564  0.00  0.00    +0.000 A 
ATOM     23  N   UNL     1       1.501   4.743  20.650  0.00  0.00    +0.000 NA
ATOM     24  C   UNL     1       2.646   4.996  19.964  0.00  0.00    +0.000 A 
BRANCH  19  29
ATOM     25  C   UNL     1       5.855   4.368  16.359  0.00  0.00    +0.000 A 
ATOM     26  C   UNL     1       6.988   4.681  17.081  0.00  0.00    +0.000 A 
ATOM     27  N   UNL     1       7.005   4.785  18.423  0.00  0.00    +0.000 NA
ATOM     28  C   UNL     1       5.829   4.573  19.074  0.00  0.00    +0.000 A 
ATOM     29  C   UNL     1       4.611   4.270  18.463  0.00  0.00    +0.000 A 
ATOM     30  C   UNL     1       4.663   4.167  17.059  0.00  0.00    +0.000 A 
ENDBRANCH  19  29
ENDBRANCH  18  24
ENDBRANCH   1  18
TORSDOF 4
ENDMDL
