MODEL 1
REMARK VINA RESULT:      -7.1      0.000      0.000
REMARK  Name = 
REMARK  6 active torsions:
REMARK  status: ('A' for Active; 'I' for Inactive)
REMARK    1  A    between atoms: C_1  and  C_2
REMARK    2  A    between atoms: C_2  and  C_10
REMARK    3  A    between atoms: C_3  and  C_4
REMARK    4  A    between atoms: C_10  and  C_12
REMARK    5  A    between atoms: C_12  and  C_13
REMARK    6  A    between atoms: C_13  and  N_14
REMARK                            x       y       z     vdW  Elec       q    Type
REMARK                         _______ _______ _______ _____ _____    ______ ____
ROOT
ATOM      1  C   UNL     1       5.223   4.575  18.269  0.00  0.00    +0.000 C 
ATOM      2  O   UNL     1       5.577   3.859  19.205  0.00  0.00    +0.000 OA
ENDROOT
BRANCH   1   4
ATOM      3  C   UNL     1       7.484   4.526  17.105  0.00  0.00    +0.000 C 
ATOM      4  C   UNL     1       5.984   4.517  16.962  0.00  0.00    +0.000 C 
ATOM      5  C   UNL     1       5.326   4.489  15.787  0.00  0.00    +0.000 C 
BRANCH   5   6
ATOM      6  C   UNL     1       5.938   4.417  14.461  0.00  0.00    +0.000 A 
ATOM      7  C   UNL     1       7.064   5.194  14.178  0.00  0.00    +0.000 A 
ATOM      8  C   UNL     1       7.709   5.063  12.947  0.00  0.00    +0.000 A 
ATOM      9  C   UNL     1       7.233   4.156  12.003  0.00  0.00    +0.000 A 
ATOM     10  C   UNL     1       6.105   3.383  12.282  0.00  0.00    +0.000 A 
ATOM     11  C   UNL     1       5.457   3.513  13.511  0.00  0.00    +0.000 A 
ENDBRANCH   5   6
ENDBRANCH   1   4
BRANCH   1  12
ATOM     12  C   UNL     1       3.984   5.454  18.375  0.00  0.00    +0.000 C 
BRANCH  12  13
ATOM     13  C   UNL     1       3.219   5.237  19.682  0.00  0.00    +0.000 C 
BRANCH  13  14
ATOM     14  N   UNL     1       1.800   4.883  19.461  0.00  0.00    +0.000 NA
ATOM     15  C   UNL     1       1.156   4.143  20.571  0.00  0.00    +0.000 C 
ATOM     16  C   UNL     1       1.583   2.671  20.697  0.00  0.00    +0.000 C 
ATOM     17  O   UNL     1       1.399   1.962  19.466  0.00  0.00    +0.000 OA
ATOM     18  C   UNL     1       2.104   2.608  18.398  0.00  0.00    +0.000 C 
ATOM     19  C   UNL     1       1.643   4.068  18.233  0.00  0.00    +0.000 C 
ENDBRANCH  13  14
ENDBRANCH  12  13
ENDBRANCH   1  12
TORSDOF 5
ENDMDL
MODEL 2
REMARK VINA RESULT:      -7.1      1.165      1.713
REMARK  Name = 
REMARK  6 active torsions:
REMARK  status: ('A' for Active; 'I' for Inactive)
REMARK    1  A    between atoms: C_1  and  C_2
REMARK    2  A    between atoms: C_2  and  C_10
REMARK    3  A    between atoms: C_3  and  C_4
REMARK    4  A    between atoms: C_10  and  C_12
REMARK    5  A    between atoms: C_12  and  C_13
REMARK    6  A    between atoms: C_13  and  N_14
REMARK                            x       y       z     vdW  Elec       q    Type
REMARK                         _______ _______ _______ _____ _____    ______ ____
ROOT
ATOM      1  C   UNL     1       6.181   5.291  18.394  0.00  0.00    +0.000 C 
ATOM      2  O   UNL     1       7.248   5.043  18.952  0.00  0.00    +0.000 OA
ENDROOT
BRANCH   1   4
ATOM      3  C   UNL     1       5.159   6.308  16.298  0.00  0.00    +0.000 C 
ATOM      4  C   UNL     1       6.120   5.304  16.881  0.00  0.00    +0.000 C 
ATOM      5  C   UNL     1       6.865   4.446  16.159  0.00  0.00    +0.000 C 
BRANCH   5   6
ATOM      6  C   UNL     1       6.911   4.367  14.700  0.00  0.00    +0.000 A 
ATOM      7  C   UNL     1       6.022   3.525  14.026  0.00  0.00    +0.000 A 
ATOM      8  C   UNL     1       5.996   3.512  12.630  0.00  0.00    +0.000 A 
ATOM      9  C   UNL     1       6.856   4.340  11.909  0.00  0.00    +0.000 A 
ATOM     10  C   UNL     1       7.748   5.177  12.580  0.00  0.00    +0.000 A 
ATOM     11  C   UNL     1       7.777   5.191  13.976  0.00  0.00    +0.000 A 
ENDBRANCH   5   6
ENDBRANCH   1   4
BRANCH   1  12
ATOM     12  C   UNL     1       4.903   5.501  19.196  0.00  0.00    +0.000 C 
BRANCH  12  13
ATOM     13  C   UNL     1       4.000   4.266  19.198  0.00  0.00    +0.000 C 
BRANCH  13  14
ATOM     14  N   UNL     1       2.578   4.599  19.433  0.00  0.00    +0.000 NA
ATOM     15  C   UNL     1       2.198   4.765  20.855  0.00  0.00    +0.000 C 
ATOM     16  C   UNL     1       2.102   3.453  21.653  0.00  0.00    +0.000 C 
ATOM     17  O   UNL     1       1.226   2.514  21.020  0.00  0.00    +0.000 OA
ATOM     18  C   UNL     1       1.642   2.262  19.671  0.00  0.00    +0.000 C 
ATOM     19  C   UNL     1       1.689   3.565  18.853  0.00  0.00    +0.000 C 
ENDBRANCH  13  14
ENDBRANCH  12  13
ENDBRANCH   1  12
TORSDOF 5
ENDMDL
MODEL 3
REMARK VINA RESULT:      -7.1      1.522      2.004
REMARK  Name = 
REMARK  6 active torsions:
REMARK  status: ('A' for Active; 'I' for Inactive)
REMARK    1  A    between atoms: C_1  and  C_2
REMARK    2  A    between atoms: C_2  and  C_10
REMARK    3  A    between atoms: C_3  and  C_4
REMARK    4  A    between atoms: C_10  and  C_12
REMARK    5  A    between atoms: C_12  and  C_13
REMARK    6  A    between atoms: C_13  and  N_14
REMARK                            x       y       z     vdW  Elec       q    Type
REMARK                         _______ _______ _______ _____ _____    ______ ____
ROOT
ATOM      1  C   UNL     1       6.468   5.795  18.194  0.00  0.00    +0.000 C 
ATOM      2  O   UNL     1       7.307   6.593  18.610  0.00  0.00    +0.000 OA
ENDROOT
BRANCH   1   4
ATOM      3  C   UNL     1       5.161   6.563  16.151  0.00  0.00    +0.000 C 
ATOM      4  C   UNL     1       6.242   5.669  16.702  0.00  0.00    +0.000 C 
ATOM      5  C   UNL     1       6.956   4.790  15.973  0.00  0.00    +0.000 C 
BRANCH   5   6
ATOM      6  C   UNL     1       6.847   4.583  14.530  0.00  0.00    +0.000 A 
ATOM      7  C   UNL     1       7.705   5.271  13.667  0.00  0.00    +0.000 A 
ATOM      8  C   UNL     1       7.670   5.012  12.296  0.00  0.00    +0.000 A 
ATOM      9  C   UNL     1       6.783   4.065  11.788  0.00  0.00    +0.000 A 
ATOM     10  C   UNL     1       5.921   3.381  12.647  0.00  0.00    +0.000 A 
ATOM     11  C   UNL     1       5.953   3.640  14.018  0.00  0.00    +0.000 A 
ENDBRANCH   5   6
ENDBRANCH   1   4
BRANCH   1  12
ATOM     12  C   UNL     1       5.716   4.873  19.145  0.00  0.00    +0.000 C 
BRANCH  12  13
ATOM     13  C   UNL     1       4.279   5.333  19.395  0.00  0.00    +0.000 C 
BRANCH  13  14
ATOM     14  N   UNL     1       3.361   4.208  19.678  0.00  0.00    +0.000 NA
ATOM     15  C   UNL     1       3.703   2.933  19.005  0.00  0.00    +0.000 C 
ATOM     16  C   UNL     1       3.402   2.900  17.498  0.00  0.00    +0.000 C 
ATOM     17  O   UNL     1       2.039   3.246  17.224  0.00  0.00    +0.000 OA
ATOM     18  C   UNL     1       1.721   4.528  17.781  0.00  0.00    +0.000 C 
ATOM     19  C   UNL     1       1.970   4.552  19.299  0.00  0.00    +0.000 C 
ENDBRANCH  13  14
ENDBRANCH  12  13
ENDBRANCH   1  12
TORSDOF 5
ENDMDL
MODEL 4
REMARK VINA RESULT:      -7.0      1.951      3.391
REMARK  Name = 
REMARK  6 active torsions:
REMARK  status: ('A' for Active; 'I' for Inactive)
REMARK    1  A    between atoms: C_1  and  C_2
REMARK    2  A    between atoms: C_2  and  C_10
REMARK    3  A    between atoms: C_3  and  C_4
REMARK    4  A    between atoms: C_10  and  C_12
REMARK    5  A    between atoms: C_12  and  C_13
REMARK    6  A    between atoms: C_13  and  N_14
REMARK                            x       y       z     vdW  Elec       q    Type
REMARK                         _______ _______ _______ _____ _____    ______ ____
ROOT
ATOM      1  C   UNL     1       2.219   6.545  19.992  0.00  0.00    +0.000 C 
ATOM      2  O   UNL     1       1.771   7.617  20.395  0.00  0.00    +0.000 OA
ENDROOT
BRANCH   1   4
ATOM      3  C   UNL     1       2.928   7.642  17.809  0.00  0.00    +0.000 C 
ATOM      4  C   UNL     1       3.156   6.532  18.803  0.00  0.00    +0.000 C 
ATOM      5  C   UNL     1       4.086   5.566  18.674  0.00  0.00    +0.000 C 
BRANCH   5   6
ATOM      6  C   UNL     1       5.058   5.449  17.589  0.00  0.00    +0.000 A 
ATOM      7  C   UNL     1       6.243   6.189  17.640  0.00  0.00    +0.000 A 
ATOM      8  C   UNL     1       7.217   6.015  16.656  0.00  0.00    +0.000 A 
ATOM      9  C   UNL     1       7.009   5.102  15.623  0.00  0.00    +0.000 A 
ATOM     10  C   UNL     1       5.824   4.367  15.566  0.00  0.00    +0.000 A 
ATOM     11  C   UNL     1       4.848   4.540  16.549  0.00  0.00    +0.000 A 
ENDBRANCH   5   6
ENDBRANCH   1   4
BRANCH   1  12
ATOM     12  C   UNL     1       1.915   5.241  20.719  0.00  0.00    +0.000 C 
BRANCH  12  13
ATOM     13  C   UNL     1       0.881   4.386  19.985  0.00  0.00    +0.000 C 
BRANCH  13  14
ATOM     14  N   UNL     1       1.043   2.940  20.253  0.00  0.00    +0.000 NA
ATOM     15  C   UNL     1       2.252   2.575  21.027  0.00  0.00    +0.000 C 
ATOM     16  C   UNL     1       3.569   2.653  20.238  0.00  0.00    +0.000 C 
ATOM     17  O   UNL     1       3.509   1.881  19.033  0.00  0.00    +0.000 OA
ATOM     18  C   UNL     1       2.402   2.294  18.222  0.00  0.00    +0.000 C 
ATOM     19  C   UNL     1       1.073   2.168  18.989  0.00  0.00    +0.000 C 
ENDBRANCH  13  14
ENDBRANCH  12  13
ENDBRANCH   1  12
TORSDOF 5
ENDMDL
MODEL 5
REMARK VINA RESULT:      -7.0      2.920      6.664
REMARK  Name = 
REMARK  6 active torsions:
REMARK  status: ('A' for Active; 'I' for Inactive)
REMARK    1  A    between atoms: C_1  and  C_2
REMARK    2  A    between atoms: C_2  and  C_10
REMARK    3  A    between atoms: C_3  and  C_4
REMARK    4  A    between atoms: C_10  and  C_12
REMARK    5  A    between atoms: C_12  and  C_13
REMARK    6  A    between atoms: C_13  and  N_14
REMARK                            x       y       z     vdW  Elec       q    Type
REMARK                         _______ _______ _______ _____ _____    ______ ____
ROOT
ATOM      1  C   UNL     1       3.122   3.770  19.742  0.00  0.00    +0.000 C 
ATOM      2  O   UNL     1       2.657   3.228  20.745  0.00  0.00    +0.000 OA
ENDROOT
BRANCH   1   4
ATOM      3  C   UNL     1       1.700   4.917  17.973  0.00  0.00    +0.000 C 
ATOM      4  C   UNL     1       2.503   5.057  19.241  0.00  0.00    +0.000 C 
ATOM      5  C   UNL     1       2.708   6.216  19.895  0.00  0.00    +0.000 C 
BRANCH   5   6
ATOM      6  C   UNL     1       2.157   7.519  19.527  0.00  0.00    +0.000 A 
ATOM      7  C   UNL     1       2.342   8.005  18.230  0.00  0.00    +0.000 A 
ATOM      8  C   UNL     1       1.742   9.204  17.842  0.00  0.00    +0.000 A 
ATOM      9  C   UNL     1       0.957   9.916  18.748  0.00  0.00    +0.000 A 
ATOM     10  C   UNL     1       0.775   9.436  20.045  0.00  0.00    +0.000 A 
ATOM     11  C   UNL     1       1.375   8.237  20.436  0.00  0.00    +0.000 A 
ENDBRANCH   5   6
ENDBRANCH   1   4
BRANCH   1  12
ATOM     12  C   UNL     1       4.359   3.214  19.049  0.00  0.00    +0.000 C 
BRANCH  12  13
ATOM     13  C   UNL     1       5.434   4.279  18.822  0.00  0.00    +0.000 C 
BRANCH  13  14
ATOM     14  N   UNL     1       6.026   4.213  17.469  0.00  0.00    +0.000 NA
ATOM     15  C   UNL     1       7.342   4.876  17.325  0.00  0.00    +0.000 C 
ATOM     16  C   UNL     1       7.291   6.413  17.310  0.00  0.00    +0.000 C 
ATOM     17  O   UNL     1       6.387   6.900  16.311  0.00  0.00    +0.000 OA
ATOM     18  C   UNL     1       5.078   6.347  16.498  0.00  0.00    +0.000 C 
ATOM     19  C   UNL     1       5.115   4.809  16.462  0.00  0.00    +0.000 C 
ENDBRANCH  13  14
ENDBRANCH  12  13
ENDBRANCH   1  12
TORSDOF 5
ENDMDL
MODEL 6
REMARK VINA RESULT:      -7.0      1.404      2.021
REMARK  Name = 
REMARK  6 active torsions:
REMARK  status: ('A' for Active; 'I' for Inactive)
REMARK    1  A    between atoms: C_1  and  C_2
REMARK    2  A    between atoms: C_2  and  C_10
REMARK    3  A    between atoms: C_3  and  C_4
REMARK    4  A    between atoms: C_10  and  C_12
REMARK    5  A    between atoms: C_12  and  C_13
REMARK    6  A    between atoms: C_13  and  N_14
REMARK                            x       y       z     vdW  Elec       q    Type
REMARK                         _______ _______ _______ _____ _____    ______ ____
ROOT
ATOM      1  C   UNL     1       4.880   4.308  17.989  0.00  0.00    +0.000 C 
ATOM      2  O   UNL     1       5.187   5.023  18.943  0.00  0.00    +0.000 OA
ENDROOT
BRANCH   1   4
ATOM      3  C   UNL     1       4.960   6.156  16.243  0.00  0.00    +0.000 C 
ATOM      4  C   UNL     1       5.283   4.726  16.591  0.00  0.00    +0.000 C 
ATOM      5  C   UNL     1       5.855   3.842  15.750  0.00  0.00    +0.000 C 
BRANCH   5   6
ATOM      6  C   UNL     1       6.303   4.120  14.387  0.00  0.00    +0.000 A 
ATOM      7  C   UNL     1       7.386   4.977  14.178  0.00  0.00    +0.000 A 
ATOM      8  C   UNL     1       7.879   5.177  12.888  0.00  0.00    +0.000 A 
ATOM      9  C   UNL     1       7.292   4.519  11.808  0.00  0.00    +0.000 A 
ATOM     10  C   UNL     1       6.206   3.667  12.013  0.00  0.00    +0.000 A 
ATOM     11  C   UNL     1       5.711   3.467  13.303  0.00  0.00    +0.000 A 
ENDBRANCH   5   6
ENDBRANCH   1   4
BRANCH   1  12
ATOM     12  C   UNL     1       4.179   2.972  18.199  0.00  0.00    +0.000 C 
BRANCH  12  13
ATOM     13  C   UNL     1       4.120   2.565  19.672  0.00  0.00    +0.000 C 
BRANCH  13  14
ATOM     14  N   UNL     1       2.765   2.151  20.096  0.00  0.00    +0.000 NA
ATOM     15  C   UNL     1       1.674   2.523  19.166  0.00  0.00    +0.000 C 
ATOM     16  C   UNL     1       1.302   4.015  19.173  0.00  0.00    +0.000 C 
ATOM     17  O   UNL     1       0.996   4.476  20.494  0.00  0.00    +0.000 OA
ATOM     18  C   UNL     1       2.087   4.216  21.387  0.00  0.00    +0.000 C 
ATOM     19  C   UNL     1       2.430   2.716  21.424  0.00  0.00    +0.000 C 
ENDBRANCH  13  14
ENDBRANCH  12  13
ENDBRANCH   1  12
TORSDOF 5
ENDMDL
MODEL 7
REMARK VINA RESULT:      -7.0      1.054      1.946
REMARK  Name = 
REMARK  6 active torsions:
REMARK  status: ('A' for Active; 'I' for Inactive)
REMARK    1  A    between atoms: C_1  and  C_2
REMARK    2  A    between atoms: C_2  and  C_10
REMARK    3  A    between atoms: C_3  and  C_4
REMARK    4  A    between atoms: C_10  and  C_12
REMARK    5  A    between atoms: C_12  and  C_13
REMARK    6  A    between atoms: C_13  and  N_14
REMARK                            x       y       z     vdW  Elec       q    Type
REMARK                         _______ _______ _______ _____ _____    ______ ____
ROOT
ATOM      1  C   UNL     1       5.741   5.339  18.234  0.00  0.00    +0.000 C 
ATOM      2  O   UNL     1       6.608   4.759  18.885  0.00  0.00    +0.000 OA
ENDROOT
BRANCH   1   4
ATOM      3  C   UNL     1       5.081   6.490  16.063  0.00  0.00    +0.000 C 
ATOM      4  C   UNL     1       5.842   5.369  16.724  0.00  0.00    +0.000 C 
ATOM      5  C   UNL     1       6.546   4.428  16.066  0.00  0.00    +0.000 C 
BRANCH   5   6
ATOM      6  C   UNL     1       6.736   4.353  14.618  0.00  0.00    +0.000 A 
ATOM      7  C   UNL     1       5.921   3.510  13.859  0.00  0.00    +0.000 A 
ATOM      8  C   UNL     1       6.032   3.500  12.467  0.00  0.00    +0.000 A 
ATOM      9  C   UNL     1       6.955   4.333  11.836  0.00  0.00    +0.000 A 
ATOM     10  C   UNL     1       7.774   5.171  12.593  0.00  0.00    +0.000 A 
ATOM     11  C   UNL     1       7.665   5.182  13.985  0.00  0.00    +0.000 A 
ENDBRANCH   5   6
ENDBRANCH   1   4
BRANCH   1  12
ATOM     12  C   UNL     1       4.524   5.954  18.915  0.00  0.00    +0.000 C 
BRANCH  12  13
ATOM     13  C   UNL     1       3.300   5.039  18.868  0.00  0.00    +0.000 C 
BRANCH  13  14
ATOM     14  N   UNL     1       3.346   3.972  19.891  0.00  0.00    +0.000 NA
ATOM     15  C   UNL     1       3.242   2.591  19.364  0.00  0.00    +0.000 C 
ATOM     16  C   UNL     1       1.835   2.185  18.895  0.00  0.00    +0.000 C 
ATOM     17  O   UNL     1       0.857   2.391  19.921  0.00  0.00    +0.000 OA
ATOM     18  C   UNL     1       0.873   3.752  20.370  0.00  0.00    +0.000 C 
ATOM     19  C   UNL     1       2.266   4.149  20.891  0.00  0.00    +0.000 C 
ENDBRANCH  13  14
ENDBRANCH  12  13
ENDBRANCH   1  12
TORSDOF 5
ENDMDL
MODEL 8
REMARK VINA RESULT:      -7.0      1.024      1.710
REMARK  Name = 
REMARK  6 active torsions:
REMARK  status: ('A' for Active; 'I' for Inactive)
REMARK    1  A    between atoms: C_1  and  C_2
REMARK    2  A    between atoms: C_2  and  C_10
REMARK    3  A    between atoms: C_3  and  C_4
REMARK    4  A    between atoms: C_10  and  C_12
REMARK    5  A    between atoms: C_12  and  C_13
REMARK    6  A    between atoms: C_13  and  N_14
REMARK                            x       y       z     vdW  Elec       q    Type
REMARK                         _______ _______ _______ _____ _____    ______ ____
ROOT
ATOM      1  C   UNL     1       5.543   5.775  18.252  0.00  0.00    +0.000 C 
ATOM      2  O   UNL     1       6.174   5.826  19.307  0.00  0.00    +0.000 OA
ENDROOT
BRANCH   1   4
ATOM      3  C   UNL     1       7.520   4.509  17.273  0.00  0.00    +0.000 C 
ATOM      4  C   UNL     1       6.209   5.207  17.017  0.00  0.00    +0.000 C 
ATOM      5  C   UNL     1       5.647   5.364  15.803  0.00  0.00    +0.000 C 
BRANCH   5   6
ATOM      6  C   UNL     1       6.176   4.853  14.540  0.00  0.00    +0.000 A 
ATOM      7  C   UNL     1       5.477   3.858  13.851  0.00  0.00    +0.000 A 
ATOM      8  C   UNL     1       5.925   3.429  12.601  0.00  0.00    +0.000 A 
ATOM      9  C   UNL     1       7.068   3.995  12.038  0.00  0.00    +0.000 A 
ATOM     10  C   UNL     1       7.772   4.984  12.726  0.00  0.00    +0.000 A 
ATOM     11  C   UNL     1       7.326   5.413  13.978  0.00  0.00    +0.000 A 
ENDBRANCH   5   6
ENDBRANCH   1   4
BRANCH   1  12
ATOM     12  C   UNL     1       4.081   6.195  18.188  0.00  0.00    +0.000 C 
BRANCH  12  13
ATOM     13  C   UNL     1       3.214   5.463  19.214  0.00  0.00    +0.000 C 
BRANCH  13  14
ATOM     14  N   UNL     1       2.840   4.100  18.777  0.00  0.00    +0.000 NA
ATOM     15  C   UNL     1       1.385   3.828  18.742  0.00  0.00    +0.000 C 
ATOM     16  C   UNL     1       0.731   3.646  20.122  0.00  0.00    +0.000 C 
ATOM     17  O   UNL     1       1.398   2.641  20.894  0.00  0.00    +0.000 OA
ATOM     18  C   UNL     1       2.792   2.945  21.025  0.00  0.00    +0.000 C 
ATOM     19  C   UNL     1       3.465   3.076  19.647  0.00  0.00    +0.000 C 
ENDBRANCH  13  14
ENDBRANCH  12  13
ENDBRANCH   1  12
TORSDOF 5
ENDMDL
MODEL 9
REMARK VINA RESULT:      -7.0      2.889      6.767
REMARK  Name = 
REMARK  6 active torsions:
REMARK  status: ('A' for Active; 'I' for Inactive)
REMARK    1  A    between atoms: C_1  and  C_2
REMARK    2  A    between atoms: C_2  and  C_10
REMARK    3  A    between atoms: C_3  and  C_4
REMARK    4  A    between atoms: C_10  and  C_12
REMARK    5  A    between atoms: C_12  and  C_13
REMARK    6  A    between atoms: C_13  and  N_14
REMARK                            x       y       z     vdW  Elec       q    Type
REMARK                         _______ _______ _______ _____ _____    ______ ____
ROOT
ATOM      1  C   UNL     1       3.339   3.648  18.921  0.00  0.00    +0.000 C 
ATOM      2  O   UNL     1       3.572   3.254  20.063  0.00  0.00    +0.000 OA
ENDROOT
BRANCH   1   4
ATOM      3  C   UNL     1       1.383   4.807  17.781  0.00  0.00    +0.000 C 
ATOM      4  C   UNL     1       2.552   4.927  18.724  0.00  0.00    +0.000 C 
ATOM      5  C   UNL     1       2.926   6.063  19.342  0.00  0.00    +0.000 C 
BRANCH   5   6
ATOM      6  C   UNL     1       2.247   7.354  19.250  0.00  0.00    +0.000 A 
ATOM      7  C   UNL     1       1.596   7.874  20.372  0.00  0.00    +0.000 A 
ATOM      8  C   UNL     1       1.024   9.145  20.320  0.00  0.00    +0.000 A 
ATOM      9  C   UNL     1       1.104   9.899  19.150  0.00  0.00    +0.000 A 
ATOM     10  C   UNL     1       1.749   9.380  18.026  0.00  0.00    +0.000 A 
ATOM     11  C   UNL     1       2.320   8.108  18.075  0.00  0.00    +0.000 A 
ENDBRANCH   5   6
ENDBRANCH   1   4
BRANCH   1  12
ATOM     12  C   UNL     1       3.901   2.920  17.707  0.00  0.00    +0.000 C 
BRANCH  12  13
ATOM     13  C   UNL     1       5.201   3.544  17.197  0.00  0.00    +0.000 C 
BRANCH  13  14
ATOM     14  N   UNL     1       4.968   4.658  16.252  0.00  0.00    +0.000 NA
ATOM     15  C   UNL     1       5.549   4.470  14.903  0.00  0.00    +0.000 C 
ATOM     16  C   UNL     1       7.077   4.629  14.831  0.00  0.00    +0.000 C 
ATOM     17  O   UNL     1       7.502   5.883  15.376  0.00  0.00    +0.000 OA
ATOM     18  C   UNL     1       7.035   6.036  16.722  0.00  0.00    +0.000 C 
ATOM     19  C   UNL     1       5.501   5.931  16.793  0.00  0.00    +0.000 C 
ENDBRANCH  13  14
ENDBRANCH  12  13
ENDBRANCH   1  12
TORSDOF 5
ENDMDL
