MODEL 1
REMARK VINA RESULT:      -8.4      0.000      0.000
REMARK  Name = 
REMARK  6 active torsions:
REMARK  status: ('A' for Active; 'I' for Inactive)
REMARK    1  A    between atoms: C_2  and  C_3
REMARK    2  A    between atoms: C_3  and  N_4
REMARK    3  A    between atoms: C_10  and  S_11
REMARK    4  A    between atoms: S_11  and  N_14
REMARK    5  A    between atoms: N_22  and  C_23
REMARK    6  A    between atoms: C_23  and  C_24
REMARK                            x       y       z     vdW  Elec       q    Type
REMARK                         _______ _______ _______ _____ _____    ______ ____
ROOT
ATOM      1  N   UNL     1       2.881   5.099  19.282  0.00  0.00    +0.000 N 
ATOM      2  C   UNL     1       2.491   4.711  20.537  0.00  0.00    +0.000 A 
ATOM      3  O   UNL     1       2.665   3.604  21.033  0.00  0.00    +0.000 OA
ATOM      4  O   UNL     1       1.879   5.774  21.228  0.00  0.00    +0.000 OA
ATOM      5  C   UNL     1       1.931   6.808  20.302  0.00  0.00    +0.000 A 
ATOM      6  C   UNL     1       1.446   8.092  20.495  0.00  0.00    +0.000 A 
ATOM      7  C   UNL     1       1.602   8.989  19.435  0.00  0.00    +0.000 A 
ATOM      8  C   UNL     1       2.214   8.587  18.222  0.00  0.00    +0.000 A 
ATOM      9  C   UNL     1       2.684   7.281  18.052  0.00  0.00    +0.000 A 
ATOM     10  C   UNL     1       2.532   6.420  19.118  0.00  0.00    +0.000 A 
ENDROOT
BRANCH   7  11
ATOM     11  S   UNL     1       1.018  10.681  19.527  0.00  0.00    +0.000 S 
ATOM     12  O   UNL     1       1.190  11.103  20.898  0.00  0.00    +0.000 OA
ATOM     13  O   UNL     1       1.593  11.420  18.425  0.00  0.00    +0.000 OA
BRANCH  11  14
ATOM     14  N   UNL     1      -0.632  10.452  19.226  0.00  0.00    +0.000 NA
ATOM     15  C   UNL     1      -1.034  10.101  17.851  0.00  0.00    +0.000 C 
ATOM     16  C   UNL     1      -1.968  11.222  17.431  0.00  0.00    +0.000 C 
ATOM     17  C   UNL     1      -2.698  11.552  18.719  0.00  0.00    +0.000 C 
ATOM     18  C   UNL     1      -1.629  11.391  19.799  0.00  0.00    +0.000 C 
ENDBRANCH  11  14
ENDBRANCH   7  11
BRANCH   1  19
ATOM     19  C   UNL     1       3.514   4.254  18.287  0.00  0.00    +0.000 C 
BRANCH  19  21
ATOM     20  O   UNL     1       5.727   5.005  18.878  0.00  0.00    +0.000 OA
ATOM     21  C   UNL     1       4.984   4.579  17.996  0.00  0.00    +0.000 C 
ATOM     22  N   UNL     1       5.388   4.478  16.682  0.00  0.00    +0.000 N 
ATOM     23  H   UNL     1       4.698   4.313  15.960  0.00  0.00    +0.000 HD
BRANCH  22  24
ATOM     24  C   UNL     1       6.723   4.831  16.234  0.00  0.00    +0.000 C 
BRANCH  24  25
ATOM     25  C   UNL     1       6.833   4.737  14.728  0.00  0.00    +0.000 A 
ATOM     26  C   UNL     1       6.055   3.820  14.025  0.00  0.00    +0.000 A 
ATOM     27  C   UNL     1       6.297   3.635  12.665  0.00  0.00    +0.000 A 
ATOM     28  C   UNL     1       7.286   4.385  12.041  0.00  0.00    +0.000 A 
ATOM     29  C   UNL     1       7.978   5.313  12.801  0.00  0.00    +0.000 A 
ATOM     30  N   UNL     1       7.785   5.497  14.126  0.00  0.00    +0.000 NA
ENDBRANCH  24  25
ENDBRANCH  22  24
ENDBRANCH  19  21
ENDBRANCH   1  19
TORSDOF 6
ENDMDL
MODEL 2
REMARK VINA RESULT:      -8.2      3.442      9.507
REMARK  Name = 
REMARK  6 active torsions:
REMARK  status: ('A' for Active; 'I' for Inactive)
REMARK    1  A    between atoms: C_2  and  C_3
REMARK    2  A    between atoms: C_3  and  N_4
REMARK    3  A    between atoms: C_10  and  S_11
REMARK    4  A    between atoms: S_11  and  N_14
REMARK    5  A    between atoms: N_22  and  C_23
REMARK    6  A    between atoms: C_23  and  C_24
REMARK                            x       y       z     vdW  Elec       q    Type
REMARK                         _______ _______ _______ _____ _____    ______ ____
ROOT
ATOM      1  N   UNL     1       1.482   8.951  19.246  0.00  0.00    +0.000 N 
ATOM      2  C   UNL     1       1.032   8.609  20.495  0.00  0.00    +0.000 A 
ATOM      3  O   UNL     1       0.250   9.259  21.178  0.00  0.00    +0.000 OA
ATOM      4  O   UNL     1       1.559   7.369  20.901  0.00  0.00    +0.000 OA
ATOM      5  C   UNL     1       2.349   7.004  19.816  0.00  0.00    +0.000 A 
ATOM      6  C   UNL     1       3.101   5.844  19.717  0.00  0.00    +0.000 A 
ATOM      7  C   UNL     1       3.823   5.664  18.535  0.00  0.00    +0.000 A 
ATOM      8  C   UNL     1       3.792   6.635  17.504  0.00  0.00    +0.000 A 
ATOM      9  C   UNL     1       3.032   7.800  17.637  0.00  0.00    +0.000 A 
ATOM     10  C   UNL     1       2.317   7.948  18.806  0.00  0.00    +0.000 A 
ENDROOT
BRANCH   7  11
ATOM     11  S   UNL     1       4.852   4.221  18.261  0.00  0.00    +0.000 S 
ATOM     12  O   UNL     1       5.449   4.383  16.955  0.00  0.00    +0.000 OA
ATOM     13  O   UNL     1       5.655   4.005  19.444  0.00  0.00    +0.000 OA
BRANCH  11  14
ATOM     14  N   UNL     1       3.669   3.014  18.177  0.00  0.00    +0.000 NA
ATOM     15  C   UNL     1       2.509   3.252  17.297  0.00  0.00    +0.000 C 
ATOM     16  C   UNL     1       1.310   3.196  18.226  0.00  0.00    +0.000 C 
ATOM     17  C   UNL     1       1.706   2.124  19.223  0.00  0.00    +0.000 C 
ATOM     18  C   UNL     1       3.207   2.339  19.416  0.00  0.00    +0.000 C 
ENDBRANCH  11  14
ENDBRANCH   7  11
BRANCH   1  19
ATOM     19  C   UNL     1       1.166  10.173  18.530  0.00  0.00    +0.000 C 
BRANCH  19  21
ATOM     20  O   UNL     1      -1.085  10.001  17.686  0.00  0.00    +0.000 OA
ATOM     21  C   UNL     1      -0.322  10.538  18.488  0.00  0.00    +0.000 C 
ATOM     22  N   UNL     1      -0.727  11.569  19.308  0.00  0.00    +0.000 N 
ATOM     23  H   UNL     1      -0.031  12.110  19.806  0.00  0.00    +0.000 HD
BRANCH  22  24
ATOM     24  C   UNL     1      -2.083  12.086  19.321  0.00  0.00    +0.000 C 
BRANCH  24  25
ATOM     25  C   UNL     1      -2.548  12.355  20.735  0.00  0.00    +0.000 A 
ATOM     26  C   UNL     1      -1.706  12.090  21.812  0.00  0.00    +0.000 A 
ATOM     27  C   UNL     1      -2.216  12.184  23.104  0.00  0.00    +0.000 A 
ATOM     28  C   UNL     1      -3.540  12.566  23.288  0.00  0.00    +0.000 A 
ATOM     29  C   UNL     1      -4.295  12.863  22.166  0.00  0.00    +0.000 A 
ATOM     30  N   UNL     1      -3.836  12.755  20.899  0.00  0.00    +0.000 NA
ENDBRANCH  24  25
ENDBRANCH  22  24
ENDBRANCH  19  21
ENDBRANCH   1  19
TORSDOF 6
ENDMDL
MODEL 3
REMARK VINA RESULT:      -8.1      1.193      1.384
REMARK  Name = 
REMARK  6 active torsions:
REMARK  status: ('A' for Active; 'I' for Inactive)
REMARK    1  A    between atoms: C_2  and  C_3
REMARK    2  A    between atoms: C_3  and  N_4
REMARK    3  A    between atoms: C_10  and  S_11
REMARK    4  A    between atoms: S_11  and  N_14
REMARK    5  A    between atoms: N_22  and  C_23
REMARK    6  A    between atoms: C_23  and  C_24
REMARK                            x       y       z     vdW  Elec       q    Type
REMARK                         _______ _______ _______ _____ _____    ______ ____
ROOT
ATOM      1  N   UNL     1       2.882   5.128  18.810  0.00  0.00    +0.000 N 
ATOM      2  C   UNL     1       2.804   4.434  19.989  0.00  0.00    +0.000 A 
ATOM      3  O   UNL     1       3.180   3.282  20.170  0.00  0.00    +0.000 OA
ATOM      4  O   UNL     1       2.260   5.234  21.011  0.00  0.00    +0.000 OA
ATOM      5  C   UNL     1       2.020   6.438  20.360  0.00  0.00    +0.000 A 
ATOM      6  C   UNL     1       1.473   7.574  20.935  0.00  0.00    +0.000 A 
ATOM      7  C   UNL     1       1.318   8.687  20.105  0.00  0.00    +0.000 A 
ATOM      8  C   UNL     1       1.692   8.636  18.739  0.00  0.00    +0.000 A 
ATOM      9  C   UNL     1       2.232   7.473  18.184  0.00  0.00    +0.000 A 
ATOM     10  C   UNL     1       2.388   6.394  19.027  0.00  0.00    +0.000 A 
ENDROOT
BRANCH   7  11
ATOM     11  S   UNL     1       0.616  10.226  20.698  0.00  0.00    +0.000 S 
ATOM     12  O   UNL     1      -0.651   9.893  21.308  0.00  0.00    +0.000 OA
ATOM     13  O   UNL     1       1.643  10.945  21.418  0.00  0.00    +0.000 OA
BRANCH  11  14
ATOM     14  N   UNL     1       0.326  11.016  19.229  0.00  0.00    +0.000 NA
ATOM     15  C   UNL     1       1.023  12.295  18.992  0.00  0.00    +0.000 C 
ATOM     16  C   UNL     1      -0.095  13.304  18.795  0.00  0.00    +0.000 C 
ATOM     17  C   UNL     1      -1.152  12.498  18.065  0.00  0.00    +0.000 C 
ATOM     18  C   UNL     1      -1.056  11.109  18.696  0.00  0.00    +0.000 C 
ENDBRANCH  11  14
ENDBRANCH   7  11
BRANCH   1  19
ATOM     19  C   UNL     1       3.363   4.606  17.544  0.00  0.00    +0.000 C 
BRANCH  19  21
ATOM     20  O   UNL     1       4.914   6.342  16.919  0.00  0.00    +0.000 OA
ATOM     21  C   UNL     1       4.729   5.139  17.096  0.00  0.00    +0.000 C 
ATOM     22  N   UNL     1       5.689   4.197  16.797  0.00  0.00    +0.000 N 
ATOM     23  H   UNL     1       5.434   3.218  16.769  0.00  0.00    +0.000 HD
BRANCH  22  24
ATOM     24  C   UNL     1       7.002   4.539  16.281  0.00  0.00    +0.000 C 
BRANCH  24  25
ATOM     25  C   UNL     1       6.996   4.591  14.769  0.00  0.00    +0.000 A 
ATOM     26  C   UNL     1       6.196   3.713  14.041  0.00  0.00    +0.000 A 
ATOM     27  C   UNL     1       6.336   3.666  12.656  0.00  0.00    +0.000 A 
ATOM     28  C   UNL     1       7.246   4.511  12.034  0.00  0.00    +0.000 A 
ATOM     29  C   UNL     1       7.965   5.391  12.826  0.00  0.00    +0.000 A 
ATOM     30  N   UNL     1       7.872   5.442  14.173  0.00  0.00    +0.000 NA
ENDBRANCH  24  25
ENDBRANCH  22  24
ENDBRANCH  19  21
ENDBRANCH   1  19
TORSDOF 6
ENDMDL
MODEL 4
REMARK VINA RESULT:      -8.0      0.855      1.104
REMARK  Name = 
REMARK  6 active torsions:
REMARK  status: ('A' for Active; 'I' for Inactive)
REMARK    1  A    between atoms: C_2  and  C_3
REMARK    2  A    between atoms: C_3  and  N_4
REMARK    3  A    between atoms: C_10  and  S_11
REMARK    4  A    between atoms: S_11  and  N_14
REMARK    5  A    between atoms: N_22  and  C_23
REMARK    6  A    between atoms: C_23  and  C_24
REMARK                            x       y       z     vdW  Elec       q    Type
REMARK                         _______ _______ _______ _____ _____    ______ ____
ROOT
ATOM      1  N   UNL     1       2.460   5.970  18.953  0.00  0.00    +0.000 N 
ATOM      2  C   UNL     1       2.111   5.612  20.229  0.00  0.00    +0.000 A 
ATOM      3  O   UNL     1       2.238   4.498  20.722  0.00  0.00    +0.000 OA
ATOM      4  O   UNL     1       1.607   6.715  20.944  0.00  0.00    +0.000 OA
ATOM      5  C   UNL     1       1.679   7.742  20.009  0.00  0.00    +0.000 A 
ATOM      6  C   UNL     1       1.290   9.055  20.219  0.00  0.00    +0.000 A 
ATOM      7  C   UNL     1       1.449   9.936  19.147  0.00  0.00    +0.000 A 
ATOM      8  C   UNL     1       1.970   9.491  17.907  0.00  0.00    +0.000 A 
ATOM      9  C   UNL     1       2.344   8.157  17.721  0.00  0.00    +0.000 A 
ATOM     10  C   UNL     1       2.191   7.311  18.798  0.00  0.00    +0.000 A 
ENDROOT
BRANCH   7  11
ATOM     11  S   UNL     1       0.982  11.664  19.258  0.00  0.00    +0.000 S 
ATOM     12  O   UNL     1       0.685  11.922  20.648  0.00  0.00    +0.000 OA
ATOM     13  O   UNL     1       1.958  12.445  18.530  0.00  0.00    +0.000 OA
BRANCH  11  14
ATOM     14  N   UNL     1      -0.465  11.647  18.381  0.00  0.00    +0.000 NA
ATOM     15  C   UNL     1      -1.482  12.662  18.719  0.00  0.00    +0.000 C 
ATOM     16  C   UNL     1      -2.698  11.855  19.137  0.00  0.00    +0.000 C 
ATOM     17  C   UNL     1      -2.638  10.652  18.215  0.00  0.00    +0.000 C 
ATOM     18  C   UNL     1      -1.143  10.358  18.092  0.00  0.00    +0.000 C 
ENDBRANCH  11  14
ENDBRANCH   7  11
BRANCH   1  19
ATOM     19  C   UNL     1       2.985   5.083  17.932  0.00  0.00    +0.000 C 
BRANCH  19  21
ATOM     20  O   UNL     1       5.254   5.357  18.697  0.00  0.00    +0.000 OA
ATOM     21  C   UNL     1       4.506   5.127  17.748  0.00  0.00    +0.000 C 
ATOM     22  N   UNL     1       4.974   5.010  16.457  0.00  0.00    +0.000 N 
ATOM     23  H   UNL     1       4.316   5.018  15.687  0.00  0.00    +0.000 HD
BRANCH  22  24
ATOM     24  C   UNL     1       6.379   5.116  16.110  0.00  0.00    +0.000 C 
BRANCH  24  25
ATOM     25  C   UNL     1       6.598   4.837  14.640  0.00  0.00    +0.000 A 
ATOM     26  C   UNL     1       5.839   3.866  13.990  0.00  0.00    +0.000 A 
ATOM     27  C   UNL     1       6.175   3.511  12.685  0.00  0.00    +0.000 A 
ATOM     28  C   UNL     1       7.237   4.150  12.057  0.00  0.00    +0.000 A 
ATOM     29  C   UNL     1       7.907   5.141  12.755  0.00  0.00    +0.000 A 
ATOM     30  N   UNL     1       7.622   5.489  14.030  0.00  0.00    +0.000 NA
ENDBRANCH  24  25
ENDBRANCH  22  24
ENDBRANCH  19  21
ENDBRANCH   1  19
TORSDOF 6
ENDMDL
MODEL 5
REMARK VINA RESULT:      -8.0      2.092      2.411
REMARK  Name = 
REMARK  6 active torsions:
REMARK  status: ('A' for Active; 'I' for Inactive)
REMARK    1  A    between atoms: C_2  and  C_3
REMARK    2  A    between atoms: C_3  and  N_4
REMARK    3  A    between atoms: C_10  and  S_11
REMARK    4  A    between atoms: S_11  and  N_14
REMARK    5  A    between atoms: N_22  and  C_23
REMARK    6  A    between atoms: C_23  and  C_24
REMARK                            x       y       z     vdW  Elec       q    Type
REMARK                         _______ _______ _______ _____ _____    ______ ____
ROOT
ATOM      1  N   UNL     1       2.677   6.076  18.809  0.00  0.00    +0.000 N 
ATOM      2  C   UNL     1       2.517   5.598  20.083  0.00  0.00    +0.000 A 
ATOM      3  O   UNL     1       2.853   4.489  20.481  0.00  0.00    +0.000 OA
ATOM      4  O   UNL     1       1.937   6.570  20.919  0.00  0.00    +0.000 OA
ATOM      5  C   UNL     1       1.763   7.647  20.058  0.00  0.00    +0.000 A 
ATOM      6  C   UNL     1       1.214   8.874  20.397  0.00  0.00    +0.000 A 
ATOM      7  C   UNL     1       1.133   9.828  19.380  0.00  0.00    +0.000 A 
ATOM      8  C   UNL     1       1.581   9.537  18.068  0.00  0.00    +0.000 A 
ATOM      9  C   UNL     1       2.121   8.287  17.753  0.00  0.00    +0.000 A 
ATOM     10  C   UNL     1       2.203   7.368  18.777  0.00  0.00    +0.000 A 
ENDROOT
BRANCH   7  11
ATOM     11  S   UNL     1       0.437  11.457  19.658  0.00  0.00    +0.000 S 
ATOM     12  O   UNL     1      -0.464  11.714  18.558  0.00  0.00    +0.000 OA
ATOM     13  O   UNL     1       0.000  11.535  21.034  0.00  0.00    +0.000 OA
BRANCH  11  14
ATOM     14  N   UNL     1       1.819  12.416  19.470  0.00  0.00    +0.000 NA
ATOM     15  C   UNL     1       2.181  13.319  20.580  0.00  0.00    +0.000 C 
ATOM     16  C   UNL     1       2.154  14.706  19.964  0.00  0.00    +0.000 C 
ATOM     17  C   UNL     1       2.671  14.461  18.560  0.00  0.00    +0.000 C 
ATOM     18  C   UNL     1       2.076  13.105  18.181  0.00  0.00    +0.000 C 
ENDBRANCH  11  14
ENDBRANCH   7  11
BRANCH   1  19
ATOM     19  C   UNL     1       3.215   5.337  17.682  0.00  0.00    +0.000 C 
BRANCH  19  21
ATOM     20  O   UNL     1       5.113   6.799  17.422  0.00  0.00    +0.000 OA
ATOM     21  C   UNL     1       4.672   5.655  17.329  0.00  0.00    +0.000 C 
ATOM     22  N   UNL     1       5.417   4.623  16.800  0.00  0.00    +0.000 N 
ATOM     23  H   UNL     1       4.960   3.752  16.560  0.00  0.00    +0.000 HD
BRANCH  22  24
ATOM     24  C   UNL     1       6.784   4.786  16.340  0.00  0.00    +0.000 C 
BRANCH  24  25
ATOM     25  C   UNL     1       6.861   4.718  14.831  0.00  0.00    +0.000 A 
ATOM     26  C   UNL     1       6.034   3.846  14.125  0.00  0.00    +0.000 A 
ATOM     27  C   UNL     1       6.242   3.681  12.758  0.00  0.00    +0.000 A 
ATOM     28  C   UNL     1       7.247   4.406  12.128  0.00  0.00    +0.000 A 
ATOM     29  C   UNL     1       7.989   5.290  12.892  0.00  0.00    +0.000 A 
ATOM     30  N   UNL     1       7.829   5.454  14.225  0.00  0.00    +0.000 NA
ENDBRANCH  24  25
ENDBRANCH  22  24
ENDBRANCH  19  21
ENDBRANCH   1  19
TORSDOF 6
ENDMDL
MODEL 6
REMARK VINA RESULT:      -7.9      3.679      9.842
REMARK  Name = 
REMARK  6 active torsions:
REMARK  status: ('A' for Active; 'I' for Inactive)
REMARK    1  A    between atoms: C_2  and  C_3
REMARK    2  A    between atoms: C_3  and  N_4
REMARK    3  A    between atoms: C_10  and  S_11
REMARK    4  A    between atoms: S_11  and  N_14
REMARK    5  A    between atoms: N_22  and  C_23
REMARK    6  A    between atoms: C_23  and  C_24
REMARK                            x       y       z     vdW  Elec       q    Type
REMARK                         _______ _______ _______ _____ _____    ______ ____
ROOT
ATOM      1  N   UNL     1       1.206   8.802  19.410  0.00  0.00    +0.000 N 
ATOM      2  C   UNL     1       1.367   9.541  18.267  0.00  0.00    +0.000 A 
ATOM      3  O   UNL     1       0.801  10.597  18.010  0.00  0.00    +0.000 OA
ATOM      4  O   UNL     1       2.315   8.950  17.412  0.00  0.00    +0.000 OA
ATOM      5  C   UNL     1       2.698   7.816  18.119  0.00  0.00    +0.000 A 
ATOM      6  C   UNL     1       3.625   6.875  17.699  0.00  0.00    +0.000 A 
ATOM      7  C   UNL     1       3.872   5.807  18.566  0.00  0.00    +0.000 A 
ATOM      8  C   UNL     1       3.191   5.697  19.803  0.00  0.00    +0.000 A 
ATOM      9  C   UNL     1       2.254   6.657  20.195  0.00  0.00    +0.000 A 
ATOM     10  C   UNL     1       2.038   7.708  19.330  0.00  0.00    +0.000 A 
ENDROOT
BRANCH   7  11
ATOM     11  S   UNL     1       5.035   4.503  18.160  0.00  0.00    +0.000 S 
ATOM     12  O   UNL     1       5.594   4.836  16.870  0.00  0.00    +0.000 OA
ATOM     13  O   UNL     1       5.871   4.267  19.315  0.00  0.00    +0.000 OA
BRANCH  11  14
ATOM     14  N   UNL     1       3.976   3.196  17.978  0.00  0.00    +0.000 NA
ATOM     15  C   UNL     1       2.757   3.409  17.173  0.00  0.00    +0.000 C 
ATOM     16  C   UNL     1       1.615   3.123  18.132  0.00  0.00    +0.000 C 
ATOM     17  C   UNL     1       2.163   1.993  18.982  0.00  0.00    +0.000 C 
ATOM     18  C   UNL     1       3.643   2.341  19.145  0.00  0.00    +0.000 C 
ENDBRANCH  11  14
ENDBRANCH   7  11
BRANCH   1  19
ATOM     19  C   UNL     1       0.290   9.098  20.496  0.00  0.00    +0.000 C 
BRANCH  19  21
ATOM     20  O   UNL     1       1.423  10.294  22.256  0.00  0.00    +0.000 OA
ATOM     21  C   UNL     1       0.633  10.348  21.315  0.00  0.00    +0.000 C 
ATOM     22  N   UNL     1      -0.073  11.493  21.015  0.00  0.00    +0.000 N 
ATOM     23  H   UNL     1      -0.850  11.444  20.368  0.00  0.00    +0.000 HD
BRANCH  22  24
ATOM     24  C   UNL     1       0.076  12.733  21.755  0.00  0.00    +0.000 C 
BRANCH  24  25
ATOM     25  C   UNL     1      -1.088  12.947  22.697  0.00  0.00    +0.000 A 
ATOM     26  C   UNL     1      -2.130  12.024  22.744  0.00  0.00    +0.000 A 
ATOM     27  C   UNL     1      -3.265  12.330  23.491  0.00  0.00    +0.000 A 
ATOM     28  C   UNL     1      -3.319  13.529  24.191  0.00  0.00    +0.000 A 
ATOM     29  C   UNL     1      -2.219  14.367  24.133  0.00  0.00    +0.000 A 
ATOM     30  N   UNL     1      -1.114  14.112  23.397  0.00  0.00    +0.000 NA
ENDBRANCH  24  25
ENDBRANCH  22  24
ENDBRANCH  19  21
ENDBRANCH   1  19
TORSDOF 6
ENDMDL
MODEL 7
REMARK VINA RESULT:      -7.9      4.143      8.534
REMARK  Name = 
REMARK  6 active torsions:
REMARK  status: ('A' for Active; 'I' for Inactive)
REMARK    1  A    between atoms: C_2  and  C_3
REMARK    2  A    between atoms: C_3  and  N_4
REMARK    3  A    between atoms: C_10  and  S_11
REMARK    4  A    between atoms: S_11  and  N_14
REMARK    5  A    between atoms: N_22  and  C_23
REMARK    6  A    between atoms: C_23  and  C_24
REMARK                            x       y       z     vdW  Elec       q    Type
REMARK                         _______ _______ _______ _____ _____    ______ ____
ROOT
ATOM      1  N   UNL     1       0.723  10.842  20.545  0.00  0.00    +0.000 N 
ATOM      2  C   UNL     1       0.358  10.496  21.820  0.00  0.00    +0.000 A 
ATOM      3  O   UNL     1      -0.199  11.226  22.631  0.00  0.00    +0.000 OA
ATOM      4  O   UNL     1       0.673   9.150  22.088  0.00  0.00    +0.000 OA
ATOM      5  C   UNL     1       1.249   8.729  20.895  0.00  0.00    +0.000 A 
ATOM      6  C   UNL     1       1.742   7.460  20.638  0.00  0.00    +0.000 A 
ATOM      7  C   UNL     1       2.277   7.239  19.367  0.00  0.00    +0.000 A 
ATOM      8  C   UNL     1       2.321   8.276  18.403  0.00  0.00    +0.000 A 
ATOM      9  C   UNL     1       1.825   9.550  18.694  0.00  0.00    +0.000 A 
ATOM     10  C   UNL     1       1.289   9.738  19.949  0.00  0.00    +0.000 A 
ENDROOT
BRANCH   7  11
ATOM     11  S   UNL     1       2.965   5.654  18.886  0.00  0.00    +0.000 S 
ATOM     12  O   UNL     1       3.252   5.741  17.473  0.00  0.00    +0.000 OA
ATOM     13  O   UNL     1       3.980   5.290  19.849  0.00  0.00    +0.000 OA
BRANCH  11  14
ATOM     14  N   UNL     1       1.617   4.655  19.112  0.00  0.00    +0.000 NA
ATOM     15  C   UNL     1       1.379   4.124  20.468  0.00  0.00    +0.000 C 
ATOM     16  C   UNL     1       1.422   2.616  20.297  0.00  0.00    +0.000 C 
ATOM     17  C   UNL     1       0.794   2.413  18.932  0.00  0.00    +0.000 C 
ATOM     18  C   UNL     1       1.298   3.603  18.115  0.00  0.00    +0.000 C 
ENDBRANCH  11  14
ENDBRANCH   7  11
BRANCH   1  19
ATOM     19  C   UNL     1       0.575  12.154  19.943  0.00  0.00    +0.000 C 
BRANCH  19  21
ATOM     20  O   UNL     1      -0.787  13.208  18.257  0.00  0.00    +0.000 OA
ATOM     21  C   UNL     1      -0.720  12.365  19.150  0.00  0.00    +0.000 C 
ATOM     22  N   UNL     1      -1.821  11.649  19.567  0.00  0.00    +0.000 N 
ATOM     23  H   UNL     1      -1.771  11.114  20.426  0.00  0.00    +0.000 HD
BRANCH  22  24
ATOM     24  C   UNL     1      -3.137  11.800  18.974  0.00  0.00    +0.000 C 
BRANCH  24  25
ATOM     25  C   UNL     1      -3.224  11.072  17.651  0.00  0.00    +0.000 A 
ATOM     26  C   UNL     1      -2.372  10.004  17.381  0.00  0.00    +0.000 A 
ATOM     27  C   UNL     1      -2.356   9.463  16.098  0.00  0.00    +0.000 A 
ATOM     28  C   UNL     1      -3.205   9.983  15.129  0.00  0.00    +0.000 A 
ATOM     29  C   UNL     1      -4.058  11.011  15.493  0.00  0.00    +0.000 A 
ATOM     30  N   UNL     1      -4.079  11.574  16.721  0.00  0.00    +0.000 NA
ENDBRANCH  24  25
ENDBRANCH  22  24
ENDBRANCH  19  21
ENDBRANCH   1  19
TORSDOF 6
ENDMDL
MODEL 8
REMARK VINA RESULT:      -7.9      4.134     10.301
REMARK  Name = 
REMARK  6 active torsions:
REMARK  status: ('A' for Active; 'I' for Inactive)
REMARK    1  A    between atoms: C_2  and  C_3
REMARK    2  A    between atoms: C_3  and  N_4
REMARK    3  A    between atoms: C_10  and  S_11
REMARK    4  A    between atoms: S_11  and  N_14
REMARK    5  A    between atoms: N_22  and  C_23
REMARK    6  A    between atoms: C_23  and  C_24
REMARK                            x       y       z     vdW  Elec       q    Type
REMARK                         _______ _______ _______ _____ _____    ______ ____
ROOT
ATOM      1  N   UNL     1       0.469  10.832  20.157  0.00  0.00    +0.000 N 
ATOM      2  C   UNL     1       0.365  10.657  21.513  0.00  0.00    +0.000 A 
ATOM      3  O   UNL     1      -0.138  11.447  22.302  0.00  0.00    +0.000 OA
ATOM      4  O   UNL     1       0.886   9.409  21.902  0.00  0.00    +0.000 OA
ATOM      5  C   UNL     1       1.305   8.863  20.694  0.00  0.00    +0.000 A 
ATOM      6  C   UNL     1       1.904   7.625  20.530  0.00  0.00    +0.000 A 
ATOM      7  C   UNL     1       2.246   7.260  19.226  0.00  0.00    +0.000 A 
ATOM      8  C   UNL     1       2.000   8.131  18.136  0.00  0.00    +0.000 A 
ATOM      9  C   UNL     1       1.404   9.379  18.333  0.00  0.00    +0.000 A 
ATOM     10  C   UNL     1       1.063   9.710  19.627  0.00  0.00    +0.000 A 
ENDROOT
BRANCH   7  11
ATOM     11  S   UNL     1       3.038   5.695  18.852  0.00  0.00    +0.000 S 
ATOM     12  O   UNL     1       3.357   5.721  17.443  0.00  0.00    +0.000 OA
ATOM     13  O   UNL     1       4.046   5.446  19.858  0.00  0.00    +0.000 OA
BRANCH  11  14
ATOM     14  N   UNL     1       1.745   4.631  19.102  0.00  0.00    +0.000 NA
ATOM     15  C   UNL     1       1.613   4.017  20.437  0.00  0.00    +0.000 C 
ATOM     16  C   UNL     1       1.702   2.524  20.177  0.00  0.00    +0.000 C 
ATOM     17  C   UNL     1       0.996   2.371  18.844  0.00  0.00    +0.000 C 
ATOM     18  C   UNL     1       1.403   3.623  18.068  0.00  0.00    +0.000 C 
ENDBRANCH  11  14
ENDBRANCH   7  11
BRANCH   1  19
ATOM     19  C   UNL     1       0.061  12.012  19.416  0.00  0.00    +0.000 C 
BRANCH  19  21
ATOM     20  O   UNL     1      -1.917  12.007  18.039  0.00  0.00    +0.000 OA
ATOM     21  C   UNL     1      -1.447  12.136  19.168  0.00  0.00    +0.000 C 
ATOM     22  N   UNL     1      -2.220  12.510  20.245  0.00  0.00    +0.000 N 
ATOM     23  H   UNL     1      -1.768  12.796  21.106  0.00  0.00    +0.000 HD
BRANCH  22  24
ATOM     24  C   UNL     1      -3.648  12.752  20.152  0.00  0.00    +0.000 C 
BRANCH  24  25
ATOM     25  C   UNL     1      -4.301  12.685  21.515  0.00  0.00    +0.000 A 
ATOM     26  C   UNL     1      -5.688  12.739  21.631  0.00  0.00    +0.000 A 
ATOM     27  C   UNL     1      -6.253  12.847  22.899  0.00  0.00    +0.000 A 
ATOM     28  C   UNL     1      -5.425  12.872  24.015  0.00  0.00    +0.000 A 
ATOM     29  C   UNL     1      -4.059  12.761  23.815  0.00  0.00    +0.000 A 
ATOM     30  N   UNL     1      -3.479  12.681  22.597  0.00  0.00    +0.000 NA
ENDBRANCH  24  25
ENDBRANCH  22  24
ENDBRANCH  19  21
ENDBRANCH   1  19
TORSDOF 6
ENDMDL
MODEL 9
REMARK VINA RESULT:      -7.9      3.640      9.506
REMARK  Name = 
REMARK  6 active torsions:
REMARK  status: ('A' for Active; 'I' for Inactive)
REMARK    1  A    between atoms: C_2  and  C_3
REMARK    2  A    between atoms: C_3  and  N_4
REMARK    3  A    between atoms: C_10  and  S_11
REMARK    4  A    between atoms: S_11  and  N_14
REMARK    5  A    between atoms: N_22  and  C_23
REMARK    6  A    between atoms: C_23  and  C_24
REMARK                            x       y       z     vdW  Elec       q    Type
REMARK                         _______ _______ _______ _____ _____    ______ ____
ROOT
ATOM      1  N   UNL     1       0.648   9.598  19.619  0.00  0.00    +0.000 N 
ATOM      2  C   UNL     1       0.360   9.189  20.895  0.00  0.00    +0.000 A 
ATOM      3  O   UNL     1      -0.430   9.729  21.661  0.00  0.00    +0.000 OA
ATOM      4  O   UNL     1       1.069   8.019  21.223  0.00  0.00    +0.000 OA
ATOM      5  C   UNL     1       1.795   7.768  20.064  0.00  0.00    +0.000 A 
ATOM      6  C   UNL     1       2.670   6.711  19.871  0.00  0.00    +0.000 A 
ATOM      7  C   UNL     1       3.298   6.635  18.625  0.00  0.00    +0.000 A 
ATOM      8  C   UNL     1       3.053   7.607  17.624  0.00  0.00    +0.000 A 
ATOM      9  C   UNL     1       2.172   8.668  17.851  0.00  0.00    +0.000 A 
ATOM     10  C   UNL     1       1.554   8.712  19.083  0.00  0.00    +0.000 A 
ENDROOT
BRANCH   7  11
ATOM     11  S   UNL     1       4.465   5.334  18.226  0.00  0.00    +0.000 S 
ATOM     12  O   UNL     1       4.830   5.520  16.840  0.00  0.00    +0.000 OA
ATOM     13  O   UNL     1       5.459   5.280  19.274  0.00  0.00    +0.000 OA
BRANCH  11  14
ATOM     14  N   UNL     1       3.464   3.976  18.353  0.00  0.00    +0.000 NA
ATOM     15  C   UNL     1       2.175   4.007  17.636  0.00  0.00    +0.000 C 
ATOM     16  C   UNL     1       1.132   3.840  18.727  0.00  0.00    +0.000 C 
ATOM     17  C   UNL     1       1.805   2.888  19.696  0.00  0.00    +0.000 C 
ATOM     18  C   UNL     1       3.274   3.314  19.668  0.00  0.00    +0.000 C 
ENDBRANCH  11  14
ENDBRANCH   7  11
BRANCH   1  19
ATOM     19  C   UNL     1       0.121  10.781  18.963  0.00  0.00    +0.000 C 
BRANCH  19  21
ATOM     20  O   UNL     1      -1.207   9.691  17.272  0.00  0.00    +0.000 OA
ATOM     21  C   UNL     1      -1.156  10.557  18.144  0.00  0.00    +0.000 C 
ATOM     22  N   UNL     1      -2.188  11.445  18.358  0.00  0.00    +0.000 N 
ATOM     23  H   UNL     1      -2.032  12.257  18.942  0.00  0.00    +0.000 HD
BRANCH  22  24
ATOM     24  C   UNL     1      -3.428  11.417  17.603  0.00  0.00    +0.000 C 
BRANCH  24  25
ATOM     25  C   UNL     1      -4.623  11.575  18.516  0.00  0.00    +0.000 A 
ATOM     26  C   UNL     1      -4.538  12.380  19.650  0.00  0.00    +0.000 A 
ATOM     27  C   UNL     1      -5.592  12.373  20.560  0.00  0.00    +0.000 A 
ATOM     28  C   UNL     1      -6.709  11.589  20.304  0.00  0.00    +0.000 A 
ATOM     29  C   UNL     1      -6.737  10.858  19.128  0.00  0.00    +0.000 A 
ATOM     30  N   UNL     1      -5.720  10.823  18.238  0.00  0.00    +0.000 NA
ENDBRANCH  24  25
ENDBRANCH  22  24
ENDBRANCH  19  21
ENDBRANCH   1  19
TORSDOF 6
ENDMDL
