MODEL 1
REMARK VINA RESULT:      -7.4      0.000      0.000
REMARK  Name = 
REMARK  5 active torsions:
REMARK  status: ('A' for Active; 'I' for Inactive)
REMARK    1  A    between atoms: C_1  and  C_2
REMARK    2  A    between atoms: C_5  and  C_6
REMARK    3  A    between atoms: C_6  and  O_8
REMARK    4  A    between atoms: O_8  and  N_9
REMARK    5  A    between atoms: C_10  and  C_11
REMARK                            x       y       z     vdW  Elec       q    Type
REMARK                         _______ _______ _______ _____ _____    ______ ____
ROOT
ATOM      1  N   UNL     1       5.058   6.500  17.877  0.00  0.00    +0.000 NA
ATOM      2  C   UNL     1       3.841   6.503  17.450  0.00  0.00    +0.000 C 
ENDROOT
BRANCH   2   3
ATOM      3  C   UNL     1       2.783   5.909  18.291  0.00  0.00    +0.000 A 
ATOM      4  C   UNL     1       2.616   6.359  19.624  0.00  0.00    +0.000 A 
ATOM      5  C   UNL     1       1.892   5.601  20.543  0.00  0.00    +0.000 A 
ATOM      6  C   UNL     1       1.396   4.395  20.101  0.00  0.00    +0.000 A 
ATOM      7  C   UNL     1       1.496   4.003  18.778  0.00  0.00    +0.000 A 
ATOM      8  C   UNL     1       2.143   4.759  17.827  0.00  0.00    +0.000 A 
ATOM      9  O   UNL     1       1.029   2.736  18.593  0.00  0.00    +0.000 OA
ATOM     10  C   UNL     1       1.007   2.299  19.966  0.00  0.00    +0.000 C 
ATOM     11  O   UNL     1       0.881   3.411  20.885  0.00  0.00    +0.000 OA
ENDBRANCH   2   3
BRANCH   1  12
ATOM     12  O   UNL     1       5.961   6.915  16.886  0.00  0.00    +0.000 OA
BRANCH  12  13
ATOM     13  C   UNL     1       6.870   5.906  16.702  0.00  0.00    +0.000 C 
ATOM     14  O   UNL     1       7.832   5.639  17.411  0.00  0.00    +0.000 OA
BRANCH  13  19
ATOM     15  C   UNL     1       5.873   2.957  11.813  0.00  0.00    +0.000 C 
ATOM     16  C   UNL     1       6.123   3.702  13.091  0.00  0.00    +0.000 A 
ATOM     17  C   UNL     1       7.169   4.624  13.181  0.00  0.00    +0.000 A 
ATOM     18  C   UNL     1       7.388   5.325  14.365  0.00  0.00    +0.000 A 
ATOM     19  C   UNL     1       6.565   5.115  15.480  0.00  0.00    +0.000 A 
ATOM     20  C   UNL     1       5.524   4.183  15.402  0.00  0.00    +0.000 A 
ATOM     21  C   UNL     1       5.306   3.484  14.210  0.00  0.00    +0.000 A 
ENDBRANCH  13  19
ENDBRANCH  12  13
ENDBRANCH   1  12
TORSDOF 4
ENDMDL
MODEL 2
REMARK VINA RESULT:      -7.4      1.536      1.897
REMARK  Name = 
REMARK  5 active torsions:
REMARK  status: ('A' for Active; 'I' for Inactive)
REMARK    1  A    between atoms: C_1  and  C_2
REMARK    2  A    between atoms: C_5  and  C_6
REMARK    3  A    between atoms: C_6  and  O_8
REMARK    4  A    between atoms: O_8  and  N_9
REMARK    5  A    between atoms: C_10  and  C_11
REMARK                            x       y       z     vdW  Elec       q    Type
REMARK                         _______ _______ _______ _____ _____    ______ ____
ROOT
ATOM      1  N   UNL     1       6.107   4.658  19.194  0.00  0.00    +0.000 NA
ATOM      2  C   UNL     1       5.197   5.500  19.546  0.00  0.00    +0.000 C 
ENDROOT
BRANCH   2   3
ATOM      3  C   UNL     1       3.776   5.135  19.377  0.00  0.00    +0.000 A 
ATOM      4  C   UNL     1       2.844   5.476  20.387  0.00  0.00    +0.000 A 
ATOM      5  C   UNL     1       1.596   4.855  20.440  0.00  0.00    +0.000 A 
ATOM      6  C   UNL     1       1.347   3.881  19.500  0.00  0.00    +0.000 A 
ATOM      7  C   UNL     1       2.231   3.611  18.471  0.00  0.00    +0.000 A 
ATOM      8  C   UNL     1       3.441   4.255  18.347  0.00  0.00    +0.000 A 
ATOM      9  O   UNL     1       1.826   2.545  17.727  0.00  0.00    +0.000 OA
ATOM     10  C   UNL     1       0.849   1.994  18.630  0.00  0.00    +0.000 C 
ATOM     11  O   UNL     1       0.312   3.000  19.523  0.00  0.00    +0.000 OA
ENDBRANCH   2   3
BRANCH   1  12
ATOM     12  O   UNL     1       7.390   5.228  19.231  0.00  0.00    +0.000 OA
BRANCH  12  13
ATOM     13  C   UNL     1       7.459   6.161  18.229  0.00  0.00    +0.000 C 
ATOM     14  O   UNL     1       7.940   7.285  18.298  0.00  0.00    +0.000 OA
BRANCH  13  19
ATOM     15  C   UNL     1       5.274   3.979  13.325  0.00  0.00    +0.000 C 
ATOM     16  C   UNL     1       5.819   4.554  14.599  0.00  0.00    +0.000 A 
ATOM     17  C   UNL     1       6.818   3.883  15.309  0.00  0.00    +0.000 A 
ATOM     18  C   UNL     1       7.332   4.428  16.483  0.00  0.00    +0.000 A 
ATOM     19  C   UNL     1       6.854   5.653  16.970  0.00  0.00    +0.000 A 
ATOM     20  C   UNL     1       5.843   6.323  16.272  0.00  0.00    +0.000 A 
ATOM     21  C   UNL     1       5.332   5.774  15.091  0.00  0.00    +0.000 A 
ENDBRANCH  13  19
ENDBRANCH  12  13
ENDBRANCH   1  12
TORSDOF 4
ENDMDL
MODEL 3
REMARK VINA RESULT:      -7.4      0.624      1.224
REMARK  Name = 
REMARK  5 active torsions:
REMARK  status: ('A' for Active; 'I' for Inactive)
REMARK    1  A    between atoms: C_1  and  C_2
REMARK    2  A    between atoms: C_5  and  C_6
REMARK    3  A    between atoms: C_6  and  O_8
REMARK    4  A    between atoms: O_8  and  N_9
REMARK    5  A    between atoms: C_10  and  C_11
REMARK                            x       y       z     vdW  Elec       q    Type
REMARK                         _______ _______ _______ _____ _____    ______ ____
ROOT
ATOM      1  N   UNL     1       5.716   5.902  17.974  0.00  0.00    +0.000 NA
ATOM      2  C   UNL     1       4.576   6.298  17.517  0.00  0.00    +0.000 C 
ENDROOT
BRANCH   2   3
ATOM      3  C   UNL     1       3.340   5.854  18.190  0.00  0.00    +0.000 A 
ATOM      4  C   UNL     1       3.035   6.342  19.483  0.00  0.00    +0.000 A 
ATOM      5  C   UNL     1       2.093   5.695  20.283  0.00  0.00    +0.000 A 
ATOM      6  C   UNL     1       1.521   4.553  19.769  0.00  0.00    +0.000 A 
ATOM      7  C   UNL     1       1.766   4.129  18.475  0.00  0.00    +0.000 A 
ATOM      8  C   UNL     1       2.637   4.784  17.633  0.00  0.00    +0.000 A 
ATOM      9  O   UNL     1       1.178   2.928  18.220  0.00  0.00    +0.000 OA
ATOM     10  C   UNL     1       0.898   2.519  19.573  0.00  0.00    +0.000 C 
ATOM     11  O   UNL     1       0.777   3.654  20.465  0.00  0.00    +0.000 OA
ENDBRANCH   2   3
BRANCH   1  12
ATOM     12  O   UNL     1       6.771   6.244  17.113  0.00  0.00    +0.000 OA
BRANCH  12  13
ATOM     13  C   UNL     1       7.390   5.083  16.732  0.00  0.00    +0.000 C 
ATOM     14  O   UNL     1       8.224   4.447  17.365  0.00  0.00    +0.000 OA
BRANCH  13  19
ATOM     15  C   UNL     1       5.423   3.192  11.619  0.00  0.00    +0.000 C 
ATOM     16  C   UNL     1       5.939   3.701  12.932  0.00  0.00    +0.000 A 
ATOM     17  C   UNL     1       5.321   3.330  14.130  0.00  0.00    +0.000 A 
ATOM     18  C   UNL     1       5.814   3.793  15.348  0.00  0.00    +0.000 A 
ATOM     19  C   UNL     1       6.932   4.637  15.389  0.00  0.00    +0.000 A 
ATOM     20  C   UNL     1       7.547   5.025  14.194  0.00  0.00    +0.000 A 
ATOM     21  C   UNL     1       7.051   4.554  12.973  0.00  0.00    +0.000 A 
ENDBRANCH  13  19
ENDBRANCH  12  13
ENDBRANCH   1  12
TORSDOF 4
ENDMDL
MODEL 4
REMARK VINA RESULT:      -7.3      4.954      8.271
REMARK  Name = 
REMARK  5 active torsions:
REMARK  status: ('A' for Active; 'I' for Inactive)
REMARK    1  A    between atoms: C_1  and  C_2
REMARK    2  A    between atoms: C_5  and  C_6
REMARK    3  A    between atoms: C_6  and  O_8
REMARK    4  A    between atoms: O_8  and  N_9
REMARK    5  A    between atoms: C_10  and  C_11
REMARK                            x       y       z     vdW  Elec       q    Type
REMARK                         _______ _______ _______ _____ _____    ______ ____
ROOT
ATOM      1  N   UNL     1       8.223   7.872  18.449  0.00  0.00    +0.000 NA
ATOM      2  C   UNL     1       8.226   8.927  17.708  0.00  0.00    +0.000 C 
ENDROOT
BRANCH   2   3
ATOM      3  C   UNL     1       8.589  10.226  18.308  0.00  0.00    +0.000 A 
ATOM      4  C   UNL     1       8.282  11.424  17.618  0.00  0.00    +0.000 A 
ATOM      5  C   UNL     1       8.908  12.622  17.963  0.00  0.00    +0.000 A 
ATOM      6  C   UNL     1       9.852  12.564  18.963  0.00  0.00    +0.000 A 
ATOM      7  C   UNL     1      10.087  11.407  19.683  0.00  0.00    +0.000 A 
ATOM      8  C   UNL     1       9.437  10.223  19.417  0.00  0.00    +0.000 A 
ATOM      9  O   UNL     1      11.131  11.556  20.546  0.00  0.00    +0.000 OA
ATOM     10  C   UNL     1      11.713  12.754  19.996  0.00  0.00    +0.000 C 
ATOM     11  O   UNL     1      10.736  13.547  19.279  0.00  0.00    +0.000 OA
ENDBRANCH   2   3
BRANCH   1  12
ATOM     12  O   UNL     1       7.668   6.767  17.783  0.00  0.00    +0.000 OA
BRANCH  12  13
ATOM     13  C   UNL     1       7.191   5.904  18.735  0.00  0.00    +0.000 C 
ATOM     14  O   UNL     1       7.806   5.445  19.690  0.00  0.00    +0.000 OA
BRANCH  13  19
ATOM     15  C   UNL     1       1.691   4.288  17.885  0.00  0.00    +0.000 C 
ATOM     16  C   UNL     1       3.108   4.729  18.104  0.00  0.00    +0.000 A 
ATOM     17  C   UNL     1       3.989   3.940  18.848  0.00  0.00    +0.000 A 
ATOM     18  C   UNL     1       5.308   4.346  19.036  0.00  0.00    +0.000 A 
ATOM     19  C   UNL     1       5.769   5.549  18.485  0.00  0.00    +0.000 A 
ATOM     20  C   UNL     1       4.888   6.352  17.752  0.00  0.00    +0.000 A 
ATOM     21  C   UNL     1       3.566   5.939  17.562  0.00  0.00    +0.000 A 
ENDBRANCH  13  19
ENDBRANCH  12  13
ENDBRANCH   1  12
TORSDOF 4
ENDMDL
MODEL 5
REMARK VINA RESULT:      -7.3      5.184      8.404
REMARK  Name = 
REMARK  5 active torsions:
REMARK  status: ('A' for Active; 'I' for Inactive)
REMARK    1  A    between atoms: C_1  and  C_2
REMARK    2  A    between atoms: C_5  and  C_6
REMARK    3  A    between atoms: C_6  and  O_8
REMARK    4  A    between atoms: O_8  and  N_9
REMARK    5  A    between atoms: C_10  and  C_11
REMARK                            x       y       z     vdW  Elec       q    Type
REMARK                         _______ _______ _______ _____ _____    ______ ____
ROOT
ATOM      1  N   UNL     1       7.968   8.383  17.944  0.00  0.00    +0.000 NA
ATOM      2  C   UNL     1       8.287   9.584  17.599  0.00  0.00    +0.000 C 
ENDROOT
BRANCH   2   3
ATOM      3  C   UNL     1       9.223  10.349  18.446  0.00  0.00    +0.000 A 
ATOM      4  C   UNL     1       9.132  10.247  19.856  0.00  0.00    +0.000 A 
ATOM      5  C   UNL     1       9.737  11.197  20.677  0.00  0.00    +0.000 A 
ATOM      6  C   UNL     1      10.378  12.242  20.051  0.00  0.00    +0.000 A 
ATOM      7  C   UNL     1      10.530  12.291  18.676  0.00  0.00    +0.000 A 
ATOM      8  C   UNL     1      10.006  11.332  17.839  0.00  0.00    +0.000 A 
ATOM      9  O   UNL     1      11.102  13.460  18.275  0.00  0.00    +0.000 OA
ATOM     10  C   UNL     1      10.919  14.229  19.480  0.00  0.00    +0.000 C 
ATOM     11  O   UNL     1      10.815  13.382  20.650  0.00  0.00    +0.000 OA
ENDBRANCH   2   3
BRANCH   1  12
ATOM     12  O   UNL     1       6.926   7.872  17.152  0.00  0.00    +0.000 OA
BRANCH  12  13
ATOM     13  C   UNL     1       6.912   6.511  17.311  0.00  0.00    +0.000 C 
ATOM     14  O   UNL     1       7.879   5.760  17.337  0.00  0.00    +0.000 OA
BRANCH  13  19
ATOM     15  C   UNL     1       1.597   4.255  17.807  0.00  0.00    +0.000 C 
ATOM     16  C   UNL     1       2.966   4.856  17.694  0.00  0.00    +0.000 A 
ATOM     17  C   UNL     1       4.074   4.049  17.421  0.00  0.00    +0.000 A 
ATOM     18  C   UNL     1       5.342   4.613  17.302  0.00  0.00    +0.000 A 
ATOM     19  C   UNL     1       5.525   5.995  17.456  0.00  0.00    +0.000 A 
ATOM     20  C   UNL     1       4.423   6.807  17.744  0.00  0.00    +0.000 A 
ATOM     21  C   UNL     1       3.151   6.237  17.859  0.00  0.00    +0.000 A 
ENDBRANCH  13  19
ENDBRANCH  12  13
ENDBRANCH   1  12
TORSDOF 4
ENDMDL
MODEL 6
REMARK VINA RESULT:      -7.3      5.250      8.578
REMARK  Name = 
REMARK  5 active torsions:
REMARK  status: ('A' for Active; 'I' for Inactive)
REMARK    1  A    between atoms: C_1  and  C_2
REMARK    2  A    between atoms: C_5  and  C_6
REMARK    3  A    between atoms: C_6  and  O_8
REMARK    4  A    between atoms: O_8  and  N_9
REMARK    5  A    between atoms: C_10  and  C_11
REMARK                            x       y       z     vdW  Elec       q    Type
REMARK                         _______ _______ _______ _____ _____    ______ ____
ROOT
ATOM      1  N   UNL     1       7.999   8.807  17.797  0.00  0.00    +0.000 NA
ATOM      2  C   UNL     1       8.794   9.523  18.517  0.00  0.00    +0.000 C 
ENDROOT
BRANCH   2   3
ATOM      3  C   UNL     1       9.121  10.894  18.079  0.00  0.00    +0.000 A 
ATOM      4  C   UNL     1      10.407  11.423  18.344  0.00  0.00    +0.000 A 
ATOM      5  C   UNL     1      10.638  12.797  18.274  0.00  0.00    +0.000 A 
ATOM      6  C   UNL     1       9.555  13.595  17.980  0.00  0.00    +0.000 A 
ATOM      7  C   UNL     1       8.322  13.063  17.644  0.00  0.00    +0.000 A 
ATOM      8  C   UNL     1       8.078  11.709  17.635  0.00  0.00    +0.000 A 
ATOM      9  O   UNL     1       7.380  14.035  17.495  0.00  0.00    +0.000 OA
ATOM     10  C   UNL     1       8.071  15.124  18.137  0.00  0.00    +0.000 C 
ATOM     11  O   UNL     1       9.509  14.948  18.099  0.00  0.00    +0.000 OA
ENDBRANCH   2   3
BRANCH   1  12
ATOM     12  O   UNL     1       7.950   7.475  18.240  0.00  0.00    +0.000 OA
BRANCH  12  13
ATOM     13  C   UNL     1       7.268   6.749  17.300  0.00  0.00    +0.000 C 
ATOM     14  O   UNL     1       7.656   6.441  16.179  0.00  0.00    +0.000 OA
BRANCH  13  19
ATOM     15  C   UNL     1       2.153   5.005  19.393  0.00  0.00    +0.000 C 
ATOM     16  C   UNL     1       3.467   5.477  18.845  0.00  0.00    +0.000 A 
ATOM     17  C   UNL     1       4.669   5.026  19.398  0.00  0.00    +0.000 A 
ATOM     18  C   UNL     1       5.887   5.454  18.876  0.00  0.00    +0.000 A 
ATOM     19  C   UNL     1       5.925   6.344  17.793  0.00  0.00    +0.000 A 
ATOM     20  C   UNL     1       4.726   6.812  17.245  0.00  0.00    +0.000 A 
ATOM     21  C   UNL     1       3.505   6.376  17.770  0.00  0.00    +0.000 A 
ENDBRANCH  13  19
ENDBRANCH  12  13
ENDBRANCH   1  12
TORSDOF 4
ENDMDL
MODEL 7
REMARK VINA RESULT:      -7.2      4.661      8.304
REMARK  Name = 
REMARK  5 active torsions:
REMARK  status: ('A' for Active; 'I' for Inactive)
REMARK    1  A    between atoms: C_1  and  C_2
REMARK    2  A    between atoms: C_5  and  C_6
REMARK    3  A    between atoms: C_6  and  O_8
REMARK    4  A    between atoms: O_8  and  N_9
REMARK    5  A    between atoms: C_10  and  C_11
REMARK                            x       y       z     vdW  Elec       q    Type
REMARK                         _______ _______ _______ _____ _____    ______ ____
ROOT
ATOM      1  N   UNL     1       7.534   8.045  17.200  0.00  0.00    +0.000 NA
ATOM      2  C   UNL     1       8.295   8.350  18.195  0.00  0.00    +0.000 C 
ENDROOT
BRANCH   2   3
ATOM      3  C   UNL     1       8.553   9.772  18.492  0.00  0.00    +0.000 A 
ATOM      4  C   UNL     1       8.152  10.763  17.563  0.00  0.00    +0.000 A 
ATOM      5  C   UNL     1       8.680  12.053  17.628  0.00  0.00    +0.000 A 
ATOM      6  C   UNL     1       9.625  12.288  18.602  0.00  0.00    +0.000 A 
ATOM      7  C   UNL     1       9.950  11.339  19.554  0.00  0.00    +0.000 A 
ATOM      8  C   UNL     1       9.396  10.078  19.561  0.00  0.00    +0.000 A 
ATOM      9  O   UNL     1      10.977  11.753  20.346  0.00  0.00    +0.000 OA
ATOM     10  C   UNL     1      11.462  12.844  19.540  0.00  0.00    +0.000 C 
ATOM     11  O   UNL     1      10.427  13.383  18.682  0.00  0.00    +0.000 OA
ENDBRANCH   2   3
BRANCH   1  12
ATOM     12  O   UNL     1       7.552   6.666  16.932  0.00  0.00    +0.000 OA
BRANCH  12  13
ATOM     13  C   UNL     1       6.366   6.345  16.326  0.00  0.00    +0.000 C 
ATOM     14  O   UNL     1       6.177   6.140  15.133  0.00  0.00    +0.000 OA
BRANCH  13  19
ATOM     15  C   UNL     1       2.162   5.840  20.283  0.00  0.00    +0.000 C 
ATOM     16  C   UNL     1       3.244   5.993  19.256  0.00  0.00    +0.000 A 
ATOM     17  C   UNL     1       4.407   5.222  19.330  0.00  0.00    +0.000 A 
ATOM     18  C   UNL     1       5.403   5.356  18.365  0.00  0.00    +0.000 A 
ATOM     19  C   UNL     1       5.254   6.267  17.310  0.00  0.00    +0.000 A 
ATOM     20  C   UNL     1       4.099   7.054  17.238  0.00  0.00    +0.000 A 
ATOM     21  C   UNL     1       3.100   6.912  18.206  0.00  0.00    +0.000 A 
ENDBRANCH  13  19
ENDBRANCH  12  13
ENDBRANCH   1  12
TORSDOF 4
ENDMDL
MODEL 8
REMARK VINA RESULT:      -7.2      5.307      8.560
REMARK  Name = 
REMARK  5 active torsions:
REMARK  status: ('A' for Active; 'I' for Inactive)
REMARK    1  A    between atoms: C_1  and  C_2
REMARK    2  A    between atoms: C_5  and  C_6
REMARK    3  A    between atoms: C_6  and  O_8
REMARK    4  A    between atoms: O_8  and  N_9
REMARK    5  A    between atoms: C_10  and  C_11
REMARK                            x       y       z     vdW  Elec       q    Type
REMARK                         _______ _______ _______ _____ _____    ______ ____
ROOT
ATOM      1  N   UNL     1       8.071   8.384  18.043  0.00  0.00    +0.000 NA
ATOM      2  C   UNL     1       8.128   9.672  18.005  0.00  0.00    +0.000 C 
ENDROOT
BRANCH   2   3
ATOM      3  C   UNL     1       9.297  10.357  18.590  0.00  0.00    +0.000 A 
ATOM      4  C   UNL     1       9.354  10.566  19.990  0.00  0.00    +0.000 A 
ATOM      5  C   UNL     1      10.238  11.499  20.533  0.00  0.00    +0.000 A 
ATOM      6  C   UNL     1      11.004  12.219  19.644  0.00  0.00    +0.000 A 
ATOM      7  C   UNL     1      10.998  11.952  18.287  0.00  0.00    +0.000 A 
ATOM      8  C   UNL     1      10.189  10.991  17.725  0.00  0.00    +0.000 A 
ATOM      9  O   UNL     1      11.749  12.853  17.595  0.00  0.00    +0.000 OA
ATOM     10  C   UNL     1      11.875  13.871  18.606  0.00  0.00    +0.000 C 
ATOM     11  O   UNL     1      11.736  13.325  19.941  0.00  0.00    +0.000 OA
ENDBRANCH   2   3
BRANCH   1  12
ATOM     12  O   UNL     1       6.818   7.904  17.630  0.00  0.00    +0.000 OA
BRANCH  12  13
ATOM     13  C   UNL     1       7.024   6.731  16.953  0.00  0.00    +0.000 C 
ATOM     14  O   UNL     1       7.887   6.504  16.113  0.00  0.00    +0.000 OA
BRANCH  13  19
ATOM     15  C   UNL     1       3.277   2.697  18.763  0.00  0.00    +0.000 C 
ATOM     16  C   UNL     1       4.232   3.746  18.277  0.00  0.00    +0.000 A 
ATOM     17  C   UNL     1       5.055   4.428  19.178  0.00  0.00    +0.000 A 
ATOM     18  C   UNL     1       5.952   5.391  18.720  0.00  0.00    +0.000 A 
ATOM     19  C   UNL     1       6.040   5.690  17.353  0.00  0.00    +0.000 A 
ATOM     20  C   UNL     1       5.209   5.023  16.447  0.00  0.00    +0.000 A 
ATOM     21  C   UNL     1       4.312   4.054  16.911  0.00  0.00    +0.000 A 
ENDBRANCH  13  19
ENDBRANCH  12  13
ENDBRANCH   1  12
TORSDOF 4
ENDMDL
MODEL 9
REMARK VINA RESULT:      -7.1      3.312      4.449
REMARK  Name = 
REMARK  5 active torsions:
REMARK  status: ('A' for Active; 'I' for Inactive)
REMARK    1  A    between atoms: C_1  and  C_2
REMARK    2  A    between atoms: C_5  and  C_6
REMARK    3  A    between atoms: C_6  and  O_8
REMARK    4  A    between atoms: O_8  and  N_9
REMARK    5  A    between atoms: C_10  and  C_11
REMARK                            x       y       z     vdW  Elec       q    Type
REMARK                         _______ _______ _______ _____ _____    ______ ____
ROOT
ATOM      1  N   UNL     1       3.851   6.128  19.108  0.00  0.00    +0.000 NA
ATOM      2  C   UNL     1       2.773   6.389  19.765  0.00  0.00    +0.000 C 
ENDROOT
BRANCH   2   3
ATOM      3  C   UNL     1       2.002   7.601  19.428  0.00  0.00    +0.000 A 
ATOM      4  C   UNL     1       2.142   8.183  18.144  0.00  0.00    +0.000 A 
ATOM      5  C   UNL     1       1.724   9.492  17.909  0.00  0.00    +0.000 A 
ATOM      6  C   UNL     1       1.218  10.186  18.984  0.00  0.00    +0.000 A 
ATOM      7  C   UNL     1       1.011   9.584  20.213  0.00  0.00    +0.000 A 
ATOM      8  C   UNL     1       1.347   8.273  20.461  0.00  0.00    +0.000 A 
ATOM      9  O   UNL     1       0.601  10.484  21.150  0.00  0.00    +0.000 OA
ATOM     10  C   UNL     1       0.953  11.702  20.466  0.00  0.00    +0.000 C 
ATOM     11  O   UNL     1       0.984  11.524  19.029  0.00  0.00    +0.000 OA
ENDBRANCH   2   3
BRANCH   1  12
ATOM     12  O   UNL     1       4.565   5.061  19.678  0.00  0.00    +0.000 OA
BRANCH  12  13
ATOM     13  C   UNL     1       5.842   5.104  19.183  0.00  0.00    +0.000 C 
ATOM     14  O   UNL     1       6.864   5.386  19.798  0.00  0.00    +0.000 OA
BRANCH  13  19
ATOM     15  C   UNL     1       6.221   3.878  13.532  0.00  0.00    +0.000 C 
ATOM     16  C   UNL     1       6.108   4.177  14.997  0.00  0.00    +0.000 A 
ATOM     17  C   UNL     1       7.172   4.769  15.684  0.00  0.00    +0.000 A 
ATOM     18  C   UNL     1       7.057   5.059  17.042  0.00  0.00    +0.000 A 
ATOM     19  C   UNL     1       5.878   4.760  17.737  0.00  0.00    +0.000 A 
ATOM     20  C   UNL     1       4.814   4.154  17.060  0.00  0.00    +0.000 A 
ATOM     21  C   UNL     1       4.932   3.867  15.696  0.00  0.00    +0.000 A 
ENDBRANCH  13  19
ENDBRANCH  12  13
ENDBRANCH   1  12
TORSDOF 4
ENDMDL
