MODEL 1
REMARK VINA RESULT:      -8.7      0.000      0.000
REMARK  Name = 
REMARK  6 active torsions:
REMARK  status: ('A' for Active; 'I' for Inactive)
REMARK    1  A    between atoms: C_1  and  C_2
REMARK    2  A    between atoms: C_10  and  C_11
REMARK    3  A    between atoms: C_11  and  C_13
REMARK    4  A    between atoms: C_14  and  C_15
REMARK    5  A    between atoms: C_18  and  N_19
REMARK    6  A    between atoms: C_23  and  C_24
REMARK                            x       y       z     vdW  Elec       q    Type
REMARK                         _______ _______ _______ _____ _____    ______ ____
ROOT
ATOM      1  C   UNL     1       1.094   2.489  21.787  0.00  0.00    +0.000 C 
ATOM      2  C   UNL     1       1.727   3.531  20.913  0.00  0.00    +0.000 A 
ATOM      3  C   UNL     1       1.067   4.714  20.589  0.00  0.00    +0.000 A 
ATOM      4  C   UNL     1       1.697   5.677  19.796  0.00  0.00    +0.000 A 
ATOM      5  C   UNL     1       3.005   5.475  19.295  0.00  0.00    +0.000 A 
ATOM      6  C   UNL     1       3.668   4.281  19.600  0.00  0.00    +0.000 A 
ATOM      7  C   UNL     1       3.020   3.330  20.424  0.00  0.00    +0.000 A 
ATOM      8  N   UNL     1       4.951   4.017  19.066  0.00  0.00    +0.000 N 
ATOM      9  O   UNL     1       5.446   2.879  19.348  0.00  0.00    +0.000 OA
ATOM     10  C   UNL     1       5.600   4.960  18.260  0.00  0.00    +0.000 A 
ATOM     11  C   UNL     1       4.948   6.199  18.000  0.00  0.00    +0.000 A 
ATOM     12  C   UNL     1       5.476   7.334  17.171  0.00  0.00    +0.000 C 
ATOM     13  N   UNL     1       3.652   6.433  18.499  0.00  0.00    +0.000 N 
ATOM     14  O   UNL     1       3.047   7.528  18.222  0.00  0.00    +0.000 OA
ENDROOT
BRANCH  10  15
ATOM     15  C   UNL     1       6.930   4.590  17.628  0.00  0.00    +0.000 C 
ATOM     16  O   UNL     1       7.965   4.685  18.282  0.00  0.00    +0.000 OA
BRANCH  15  17
ATOM     17  C   UNL     1       7.045   4.163  16.199  0.00  0.00    +0.000 C 
ATOM     18  C   UNL     1       7.408   4.988  15.202  0.00  0.00    +0.000 C 
BRANCH  18  19
ATOM     19  C   UNL     1       7.185   4.572  13.854  0.00  0.00    +0.000 A 
ATOM     20  C   UNL     1       7.702   5.078  12.660  0.00  0.00    +0.000 A 
ATOM     21  C   UNL     1       7.071   4.408  11.575  0.00  0.00    +0.000 A 
ATOM     22  C   UNL     1       6.206   3.521  12.162  0.00  0.00    +0.000 A 
ATOM     23  O   UNL     1       6.275   3.583  13.512  0.00  0.00    +0.000 OA
BRANCH  22  24
ATOM     24  N   UNL     1       5.261   2.601  11.611  0.00  0.00    +0.000 N 
ATOM     25  O   UNL     1       5.674   1.450  11.411  0.00  0.00    +0.000 OA
ATOM     26  O   UNL     1       4.118   3.010  11.370  0.00  0.00    +0.000 OA
ENDBRANCH  22  24
ENDBRANCH  18  19
ENDBRANCH  15  17
ENDBRANCH  10  15
TORSDOF 4
ENDMDL
MODEL 2
REMARK VINA RESULT:      -8.1      3.667      5.972
REMARK  Name = 
REMARK  6 active torsions:
REMARK  status: ('A' for Active; 'I' for Inactive)
REMARK    1  A    between atoms: C_1  and  C_2
REMARK    2  A    between atoms: C_10  and  C_11
REMARK    3  A    between atoms: C_11  and  C_13
REMARK    4  A    between atoms: C_14  and  C_15
REMARK    5  A    between atoms: C_18  and  N_19
REMARK    6  A    between atoms: C_23  and  C_24
REMARK                            x       y       z     vdW  Elec       q    Type
REMARK                         _______ _______ _______ _____ _____    ______ ____
ROOT
ATOM      1  C   UNL     1       1.613   2.657  21.946  0.00  0.00    +0.000 C 
ATOM      2  C   UNL     1       2.169   2.905  20.575  0.00  0.00    +0.000 A 
ATOM      3  C   UNL     1       1.466   2.550  19.425  0.00  0.00    +0.000 A 
ATOM      4  C   UNL     1       2.001   2.822  18.163  0.00  0.00    +0.000 A 
ATOM      5  C   UNL     1       3.262   3.447  18.018  0.00  0.00    +0.000 A 
ATOM      6  C   UNL     1       3.982   3.789  19.168  0.00  0.00    +0.000 A 
ATOM      7  C   UNL     1       3.412   3.526  20.436  0.00  0.00    +0.000 A 
ATOM      8  N   UNL     1       5.273   4.359  19.062  0.00  0.00    +0.000 N 
ATOM      9  O   UNL     1       5.875   4.577  20.161  0.00  0.00    +0.000 OA
ATOM     10  C   UNL     1       5.836   4.631  17.809  0.00  0.00    +0.000 A 
ATOM     11  C   UNL     1       5.076   4.336  16.641  0.00  0.00    +0.000 A 
ATOM     12  C   UNL     1       5.497   4.559  15.218  0.00  0.00    +0.000 C 
ATOM     13  N   UNL     1       3.811   3.728  16.757  0.00  0.00    +0.000 N 
ATOM     14  O   UNL     1       3.150   3.419  15.703  0.00  0.00    +0.000 OA
ENDROOT
BRANCH  10  15
ATOM     15  C   UNL     1       7.262   5.147  17.745  0.00  0.00    +0.000 C 
ATOM     16  O   UNL     1       8.155   4.423  17.310  0.00  0.00    +0.000 OA
BRANCH  15  17
ATOM     17  C   UNL     1       7.648   6.500  18.251  0.00  0.00    +0.000 C 
ATOM     18  C   UNL     1       7.507   7.630  17.537  0.00  0.00    +0.000 C 
BRANCH  18  19
ATOM     19  C   UNL     1       8.186   8.807  17.977  0.00  0.00    +0.000 A 
ATOM     20  C   UNL     1       8.983   9.017  19.104  0.00  0.00    +0.000 A 
ATOM     21  C   UNL     1       9.318  10.398  19.169  0.00  0.00    +0.000 A 
ATOM     22  C   UNL     1       8.716  10.959  18.074  0.00  0.00    +0.000 A 
ATOM     23  O   UNL     1       8.060  10.032  17.339  0.00  0.00    +0.000 OA
BRANCH  22  24
ATOM     24  N   UNL     1       8.641  12.310  17.612  0.00  0.00    +0.000 N 
ATOM     25  O   UNL     1       7.572  12.647  17.085  0.00  0.00    +0.000 OA
ATOM     26  O   UNL     1       9.632  13.036  17.763  0.00  0.00    +0.000 OA
ENDBRANCH  22  24
ENDBRANCH  18  19
ENDBRANCH  15  17
ENDBRANCH  10  15
TORSDOF 4
ENDMDL
MODEL 3
REMARK VINA RESULT:      -7.7      1.174      1.454
REMARK  Name = 
REMARK  6 active torsions:
REMARK  status: ('A' for Active; 'I' for Inactive)
REMARK    1  A    between atoms: C_1  and  C_2
REMARK    2  A    between atoms: C_10  and  C_11
REMARK    3  A    between atoms: C_11  and  C_13
REMARK    4  A    between atoms: C_14  and  C_15
REMARK    5  A    between atoms: C_18  and  N_19
REMARK    6  A    between atoms: C_23  and  C_24
REMARK                            x       y       z     vdW  Elec       q    Type
REMARK                         _______ _______ _______ _____ _____    ______ ____
ROOT
ATOM      1  C   UNL     1       1.486   2.522  21.986  0.00  0.00    +0.000 C 
ATOM      2  C   UNL     1       1.968   3.560  21.016  0.00  0.00    +0.000 A 
ATOM      3  C   UNL     1       1.316   4.783  20.870  0.00  0.00    +0.000 A 
ATOM      4  C   UNL     1       1.809   5.739  19.977  0.00  0.00    +0.000 A 
ATOM      5  C   UNL     1       2.962   5.491  19.197  0.00  0.00    +0.000 A 
ATOM      6  C   UNL     1       3.612   4.258  19.324  0.00  0.00    +0.000 A 
ATOM      7  C   UNL     1       3.110   3.313  20.251  0.00  0.00    +0.000 A 
ATOM      8  N   UNL     1       4.731   3.951  18.516  0.00  0.00    +0.000 N 
ATOM      9  O   UNL     1       5.215   2.782  18.659  0.00  0.00    +0.000 OA
ATOM     10  C   UNL     1       5.237   4.887  17.606  0.00  0.00    +0.000 A 
ATOM     11  C   UNL     1       4.611   6.163  17.521  0.00  0.00    +0.000 A 
ATOM     12  C   UNL     1       5.005   7.297  16.620  0.00  0.00    +0.000 C 
ATOM     13  N   UNL     1       3.470   6.442  18.297  0.00  0.00    +0.000 N 
ATOM     14  O   UNL     1       2.878   7.573  18.183  0.00  0.00    +0.000 OA
ENDROOT
BRANCH  10  15
ATOM     15  C   UNL     1       6.375   4.474  16.690  0.00  0.00    +0.000 C 
ATOM     16  O   UNL     1       7.529   4.796  16.964  0.00  0.00    +0.000 OA
BRANCH  15  17
ATOM     17  C   UNL     1       6.145   3.730  15.413  0.00  0.00    +0.000 C 
ATOM     18  C   UNL     1       6.635   4.120  14.224  0.00  0.00    +0.000 C 
BRANCH  18  19
ATOM     19  C   UNL     1       6.105   3.529  13.037  0.00  0.00    +0.000 A 
ATOM     20  C   UNL     1       6.737   2.767  12.054  0.00  0.00    +0.000 A 
ATOM     21  C   UNL     1       5.808   2.525  11.004  0.00  0.00    +0.000 A 
ATOM     22  C   UNL     1       4.654   3.146  11.404  0.00  0.00    +0.000 A 
ATOM     23  O   UNL     1       4.799   3.726  12.617  0.00  0.00    +0.000 OA
BRANCH  22  24
ATOM     24  N   UNL     1       3.384   3.303  10.766  0.00  0.00    +0.000 N 
ATOM     25  O   UNL     1       3.242   4.325  10.080  0.00  0.00    +0.000 OA
ATOM     26  O   UNL     1       2.527   2.428  10.944  0.00  0.00    +0.000 OA
ENDBRANCH  22  24
ENDBRANCH  18  19
ENDBRANCH  15  17
ENDBRANCH  10  15
TORSDOF 4
ENDMDL
MODEL 4
REMARK VINA RESULT:      -7.6      2.029      3.328
REMARK  Name = 
REMARK  6 active torsions:
REMARK  status: ('A' for Active; 'I' for Inactive)
REMARK    1  A    between atoms: C_1  and  C_2
REMARK    2  A    between atoms: C_10  and  C_11
REMARK    3  A    between atoms: C_11  and  C_13
REMARK    4  A    between atoms: C_14  and  C_15
REMARK    5  A    between atoms: C_18  and  N_19
REMARK    6  A    between atoms: C_23  and  C_24
REMARK                            x       y       z     vdW  Elec       q    Type
REMARK                         _______ _______ _______ _____ _____    ______ ____
ROOT
ATOM      1  C   UNL     1       1.263  10.044  18.071  0.00  0.00    +0.000 C 
ATOM      2  C   UNL     1       1.814   8.721  18.514  0.00  0.00    +0.000 A 
ATOM      3  C   UNL     1       1.313   8.056  19.631  0.00  0.00    +0.000 A 
ATOM      4  C   UNL     1       1.829   6.811  20.000  0.00  0.00    +0.000 A 
ATOM      5  C   UNL     1       2.874   6.202  19.265  0.00  0.00    +0.000 A 
ATOM      6  C   UNL     1       3.396   6.872  18.152  0.00  0.00    +0.000 A 
ATOM      7  C   UNL     1       2.842   8.121  17.783  0.00  0.00    +0.000 A 
ATOM      8  N   UNL     1       4.481   6.323  17.430  0.00  0.00    +0.000 N 
ATOM      9  O   UNL     1       4.928   7.034  16.474  0.00  0.00    +0.000 OA
ATOM     10  C   UNL     1       5.025   5.082  17.785  0.00  0.00    +0.000 A 
ATOM     11  C   UNL     1       4.453   4.376  18.881  0.00  0.00    +0.000 A 
ATOM     12  C   UNL     1       4.885   3.039  19.410  0.00  0.00    +0.000 C 
ATOM     13  N   UNL     1       3.402   4.951  19.621  0.00  0.00    +0.000 N 
ATOM     14  O   UNL     1       2.921   4.336  20.637  0.00  0.00    +0.000 OA
ENDROOT
BRANCH  10  15
ATOM     15  C   UNL     1       6.253   4.583  17.045  0.00  0.00    +0.000 C 
ATOM     16  O   UNL     1       7.371   4.785  17.511  0.00  0.00    +0.000 OA
BRANCH  15  17
ATOM     17  C   UNL     1       6.165   3.895  15.720  0.00  0.00    +0.000 C 
ATOM     18  C   UNL     1       6.332   4.522  14.543  0.00  0.00    +0.000 C 
BRANCH  18  19
ATOM     19  C   UNL     1       5.922   3.855  13.348  0.00  0.00    +0.000 A 
ATOM     20  C   UNL     1       4.699   3.889  12.675  0.00  0.00    +0.000 A 
ATOM     21  C   UNL     1       4.745   2.948  11.609  0.00  0.00    +0.000 A 
ATOM     22  C   UNL     1       5.996   2.394  11.681  0.00  0.00    +0.000 A 
ATOM     23  O   UNL     1       6.720   2.934  12.688  0.00  0.00    +0.000 OA
BRANCH  22  24
ATOM     24  N   UNL     1       6.629   1.361  10.920  0.00  0.00    +0.000 N 
ATOM     25  O   UNL     1       6.074   0.254  10.939  0.00  0.00    +0.000 OA
ATOM     26  O   UNL     1       7.670   1.636  10.312  0.00  0.00    +0.000 OA
ENDBRANCH  22  24
ENDBRANCH  18  19
ENDBRANCH  15  17
ENDBRANCH  10  15
TORSDOF 4
ENDMDL
MODEL 5
REMARK VINA RESULT:      -7.5      2.883      8.171
REMARK  Name = 
REMARK  6 active torsions:
REMARK  status: ('A' for Active; 'I' for Inactive)
REMARK    1  A    between atoms: C_1  and  C_2
REMARK    2  A    between atoms: C_10  and  C_11
REMARK    3  A    between atoms: C_11  and  C_13
REMARK    4  A    between atoms: C_14  and  C_15
REMARK    5  A    between atoms: C_18  and  N_19
REMARK    6  A    between atoms: C_23  and  C_24
REMARK                            x       y       z     vdW  Elec       q    Type
REMARK                         _______ _______ _______ _____ _____    ______ ____
ROOT
ATOM      1  C   UNL     1       5.061   3.320  11.939  0.00  0.00    +0.000 C 
ATOM      2  C   UNL     1       5.572   3.763  13.277  0.00  0.00    +0.000 A 
ATOM      3  C   UNL     1       6.900   4.141  13.465  0.00  0.00    +0.000 A 
ATOM      4  C   UNL     1       7.336   4.577  14.719  0.00  0.00    +0.000 A 
ATOM      5  C   UNL     1       6.456   4.634  15.825  0.00  0.00    +0.000 A 
ATOM      6  C   UNL     1       5.125   4.237  15.650  0.00  0.00    +0.000 A 
ATOM      7  C   UNL     1       4.699   3.822  14.365  0.00  0.00    +0.000 A 
ATOM      8  N   UNL     1       4.231   4.222  16.746  0.00  0.00    +0.000 N 
ATOM      9  O   UNL     1       3.061   3.787  16.502  0.00  0.00    +0.000 OA
ATOM     10  C   UNL     1       4.647   4.643  18.015  0.00  0.00    +0.000 A 
ATOM     11  C   UNL     1       5.985   5.101  18.178  0.00  0.00    +0.000 A 
ATOM     12  C   UNL     1       6.616   5.596  19.447  0.00  0.00    +0.000 C 
ATOM     13  N   UNL     1       6.879   5.070  17.091  0.00  0.00    +0.000 N 
ATOM     14  O   UNL     1       8.097   5.437  17.251  0.00  0.00    +0.000 OA
ENDROOT
BRANCH  10  15
ATOM     15  C   UNL     1       3.683   4.511  19.181  0.00  0.00    +0.000 C 
ATOM     16  O   UNL     1       3.667   3.480  19.848  0.00  0.00    +0.000 OA
BRANCH  15  17
ATOM     17  C   UNL     1       2.691   5.577  19.524  0.00  0.00    +0.000 C 
ATOM     18  C   UNL     1       2.624   6.762  18.893  0.00  0.00    +0.000 C 
BRANCH  18  19
ATOM     19  C   UNL     1       1.867   7.815  19.493  0.00  0.00    +0.000 A 
ATOM     20  C   UNL     1       1.451   9.037  18.963  0.00  0.00    +0.000 A 
ATOM     21  C   UNL     1       0.840   9.795  20.000  0.00  0.00    +0.000 A 
ATOM     22  C   UNL     1       0.908   8.993  21.109  0.00  0.00    +0.000 A 
ATOM     23  O   UNL     1       1.490   7.805  20.827  0.00  0.00    +0.000 OA
BRANCH  22  24
ATOM     24  N   UNL     1       0.511   9.204  22.466  0.00  0.00    +0.000 N 
ATOM     25  O   UNL     1      -0.680   8.982  22.726  0.00  0.00    +0.000 OA
ATOM     26  O   UNL     1       1.365   9.593  23.273  0.00  0.00    +0.000 OA
ENDBRANCH  22  24
ENDBRANCH  18  19
ENDBRANCH  15  17
ENDBRANCH  10  15
TORSDOF 4
ENDMDL
MODEL 6
REMARK VINA RESULT:      -7.5      2.679      7.822
REMARK  Name = 
REMARK  6 active torsions:
REMARK  status: ('A' for Active; 'I' for Inactive)
REMARK    1  A    between atoms: C_1  and  C_2
REMARK    2  A    between atoms: C_10  and  C_11
REMARK    3  A    between atoms: C_11  and  C_13
REMARK    4  A    between atoms: C_14  and  C_15
REMARK    5  A    between atoms: C_18  and  N_19
REMARK    6  A    between atoms: C_23  and  C_24
REMARK                            x       y       z     vdW  Elec       q    Type
REMARK                         _______ _______ _______ _____ _____    ______ ____
ROOT
ATOM      1  C   UNL     1       5.354   2.783  11.742  0.00  0.00    +0.000 C 
ATOM      2  C   UNL     1       5.848   3.574  12.917  0.00  0.00    +0.000 A 
ATOM      3  C   UNL     1       6.933   4.441  12.812  0.00  0.00    +0.000 A 
ATOM      4  C   UNL     1       7.349   5.185  13.919  0.00  0.00    +0.000 A 
ATOM      5  C   UNL     1       6.695   5.072  15.169  0.00  0.00    +0.000 A 
ATOM      6  C   UNL     1       5.615   4.189  15.288  0.00  0.00    +0.000 A 
ATOM      7  C   UNL     1       5.196   3.464  14.148  0.00  0.00    +0.000 A 
ATOM      8  N   UNL     1       4.976   4.004  16.536  0.00  0.00    +0.000 N 
ATOM      9  O   UNL     1       4.046   3.135  16.560  0.00  0.00    +0.000 OA
ATOM     10  C   UNL     1       5.380   4.729  17.664  0.00  0.00    +0.000 A 
ATOM     11  C   UNL     1       6.440   5.670  17.525  0.00  0.00    +0.000 A 
ATOM     12  C   UNL     1       7.011   6.542  18.605  0.00  0.00    +0.000 C 
ATOM     13  N   UNL     1       7.100   5.814  16.290  0.00  0.00    +0.000 N 
ATOM     14  O   UNL     1       8.086   6.625  16.180  0.00  0.00    +0.000 OA
ENDROOT
BRANCH  10  15
ATOM     15  C   UNL     1       4.732   4.421  19.002  0.00  0.00    +0.000 C 
ATOM     16  O   UNL     1       5.060   3.413  19.622  0.00  0.00    +0.000 OA
BRANCH  15  17
ATOM     17  C   UNL     1       3.651   5.275  19.583  0.00  0.00    +0.000 C 
ATOM     18  C   UNL     1       3.058   6.281  18.918  0.00  0.00    +0.000 C 
BRANCH  18  19
ATOM     19  C   UNL     1       2.275   7.222  19.655  0.00  0.00    +0.000 A 
ATOM     20  C   UNL     1       1.656   7.096  20.899  0.00  0.00    +0.000 A 
ATOM     21  C   UNL     1       0.882   8.265  21.139  0.00  0.00    +0.000 A 
ATOM     22  C   UNL     1       1.075   9.049  20.032  0.00  0.00    +0.000 A 
ATOM     23  O   UNL     1       1.917   8.462  19.150  0.00  0.00    +0.000 OA
BRANCH  22  24
ATOM     24  N   UNL     1       0.534  10.317  19.653  0.00  0.00    +0.000 N 
ATOM     25  O   UNL     1       0.164  10.421  18.475  0.00  0.00    +0.000 OA
ATOM     26  O   UNL     1       0.479  11.209  20.508  0.00  0.00    +0.000 OA
ENDBRANCH  22  24
ENDBRANCH  18  19
ENDBRANCH  15  17
ENDBRANCH  10  15
TORSDOF 4
ENDMDL
MODEL 7
REMARK VINA RESULT:      -7.5      5.804      9.722
REMARK  Name = 
REMARK  6 active torsions:
REMARK  status: ('A' for Active; 'I' for Inactive)
REMARK    1  A    between atoms: C_1  and  C_2
REMARK    2  A    between atoms: C_10  and  C_11
REMARK    3  A    between atoms: C_11  and  C_13
REMARK    4  A    between atoms: C_14  and  C_15
REMARK    5  A    between atoms: C_18  and  N_19
REMARK    6  A    between atoms: C_23  and  C_24
REMARK                            x       y       z     vdW  Elec       q    Type
REMARK                         _______ _______ _______ _____ _____    ______ ____
ROOT
ATOM      1  C   UNL     1       5.165   6.168  15.848  0.00  0.00    +0.000 C 
ATOM      2  C   UNL     1       4.245   6.405  17.010  0.00  0.00    +0.000 A 
ATOM      3  C   UNL     1       3.976   5.408  17.945  0.00  0.00    +0.000 A 
ATOM      4  C   UNL     1       3.138   5.671  19.031  0.00  0.00    +0.000 A 
ATOM      5  C   UNL     1       2.534   6.939  19.204  0.00  0.00    +0.000 A 
ATOM      6  C   UNL     1       2.783   7.940  18.258  0.00  0.00    +0.000 A 
ATOM      7  C   UNL     1       3.655   7.659  17.179  0.00  0.00    +0.000 A 
ATOM      8  N   UNL     1       2.149   9.200  18.364  0.00  0.00    +0.000 N 
ATOM      9  O   UNL     1       2.389  10.023  17.423  0.00  0.00    +0.000 OA
ATOM     10  C   UNL     1       1.295   9.485  19.436  0.00  0.00    +0.000 A 
ATOM     11  C   UNL     1       1.089   8.485  20.429  0.00  0.00    +0.000 A 
ATOM     12  C   UNL     1       0.223   8.598  21.649  0.00  0.00    +0.000 C 
ATOM     13  N   UNL     1       1.690   7.219  20.291  0.00  0.00    +0.000 N 
ATOM     14  O   UNL     1       1.464   6.304  21.159  0.00  0.00    +0.000 OA
ENDROOT
BRANCH  10  15
ATOM     15  C   UNL     1       0.559  10.813  19.451  0.00  0.00    +0.000 C 
ATOM     16  O   UNL     1       1.095  11.804  19.941  0.00  0.00    +0.000 OA
BRANCH  15  17
ATOM     17  C   UNL     1      -0.839  10.958  18.939  0.00  0.00    +0.000 C 
ATOM     18  C   UNL     1      -1.448  10.044  18.165  0.00  0.00    +0.000 C 
BRANCH  18  19
ATOM     19  C   UNL     1      -2.645  10.415  17.479  0.00  0.00    +0.000 A 
ATOM     20  C   UNL     1      -2.911  10.487  16.111  0.00  0.00    +0.000 A 
ATOM     21  C   UNL     1      -4.210  11.038  15.932  0.00  0.00    +0.000 A 
ATOM     22  C   UNL     1      -4.674  11.267  17.201  0.00  0.00    +0.000 A 
ATOM     23  O   UNL     1      -3.774  10.882  18.135  0.00  0.00    +0.000 OA
BRANCH  22  24
ATOM     24  N   UNL     1      -5.887  11.849  17.684  0.00  0.00    +0.000 N 
ATOM     25  O   UNL     1      -6.792  11.055  17.979  0.00  0.00    +0.000 OA
ATOM     26  O   UNL     1      -5.953  13.081  17.768  0.00  0.00    +0.000 OA
ENDBRANCH  22  24
ENDBRANCH  18  19
ENDBRANCH  15  17
ENDBRANCH  10  15
TORSDOF 4
ENDMDL
MODEL 8
REMARK VINA RESULT:      -7.3      5.442      9.245
REMARK  Name = 
REMARK  6 active torsions:
REMARK  status: ('A' for Active; 'I' for Inactive)
REMARK    1  A    between atoms: C_1  and  C_2
REMARK    2  A    between atoms: C_10  and  C_11
REMARK    3  A    between atoms: C_11  and  C_13
REMARK    4  A    between atoms: C_14  and  C_15
REMARK    5  A    between atoms: C_18  and  N_19
REMARK    6  A    between atoms: C_23  and  C_24
REMARK                            x       y       z     vdW  Elec       q    Type
REMARK                         _______ _______ _______ _____ _____    ______ ____
ROOT
ATOM      1  C   UNL     1       5.492   4.494  15.926  0.00  0.00    +0.000 C 
ATOM      2  C   UNL     1       4.603   4.923  17.055  0.00  0.00    +0.000 A 
ATOM      3  C   UNL     1       4.294   4.066  18.109  0.00  0.00    +0.000 A 
ATOM      4  C   UNL     1       3.486   4.507  19.160  0.00  0.00    +0.000 A 
ATOM      5  C   UNL     1       2.954   5.818  19.179  0.00  0.00    +0.000 A 
ATOM      6  C   UNL     1       3.244   6.679  18.115  0.00  0.00    +0.000 A 
ATOM      7  C   UNL     1       4.084   6.219  17.072  0.00  0.00    +0.000 A 
ATOM      8  N   UNL     1       2.681   7.976  18.068  0.00  0.00    +0.000 N 
ATOM      9  O   UNL     1       2.952   8.662  17.031  0.00  0.00    +0.000 OA
ATOM     10  C   UNL     1       1.859   8.438  19.103  0.00  0.00    +0.000 A 
ATOM     11  C   UNL     1       1.613   7.581  20.213  0.00  0.00    +0.000 A 
ATOM     12  C   UNL     1       0.772   7.891  21.417  0.00  0.00    +0.000 C 
ATOM     13  N   UNL     1       2.142   6.276  20.229  0.00  0.00    +0.000 N 
ATOM     14  O   UNL     1       1.880   5.489  21.205  0.00  0.00    +0.000 OA
ENDROOT
BRANCH  10  15
ATOM     15  C   UNL     1       1.196   9.796  18.959  0.00  0.00    +0.000 C 
ATOM     16  O   UNL     1       1.604  10.749  19.617  0.00  0.00    +0.000 OA
BRANCH  15  17
ATOM     17  C   UNL     1       0.008  10.017  18.078  0.00  0.00    +0.000 C 
ATOM     18  C   UNL     1      -1.000  10.853  18.382  0.00  0.00    +0.000 C 
BRANCH  18  19
ATOM     19  C   UNL     1      -2.217  10.756  17.641  0.00  0.00    +0.000 A 
ATOM     20  C   UNL     1      -2.446  10.292  16.345  0.00  0.00    +0.000 A 
ATOM     21  C   UNL     1      -3.810  10.526  16.016  0.00  0.00    +0.000 A 
ATOM     22  C   UNL     1      -4.347  11.114  17.132  0.00  0.00    +0.000 A 
ATOM     23  O   UNL     1      -3.428  11.237  18.117  0.00  0.00    +0.000 OA
BRANCH  22  24
ATOM     24  N   UNL     1      -5.653  11.625  17.407  0.00  0.00    +0.000 N 
ATOM     25  O   UNL     1      -5.903  12.751  16.956  0.00  0.00    +0.000 OA
ATOM     26  O   UNL     1      -6.428  10.925  18.070  0.00  0.00    +0.000 OA
ENDBRANCH  22  24
ENDBRANCH  18  19
ENDBRANCH  15  17
ENDBRANCH  10  15
TORSDOF 4
ENDMDL
MODEL 9
REMARK VINA RESULT:      -7.2      4.203      6.844
REMARK  Name = 
REMARK  6 active torsions:
REMARK  status: ('A' for Active; 'I' for Inactive)
REMARK    1  A    between atoms: C_1  and  C_2
REMARK    2  A    between atoms: C_10  and  C_11
REMARK    3  A    between atoms: C_11  and  C_13
REMARK    4  A    between atoms: C_14  and  C_15
REMARK    5  A    between atoms: C_18  and  N_19
REMARK    6  A    between atoms: C_23  and  C_24
REMARK                            x       y       z     vdW  Elec       q    Type
REMARK                         _______ _______ _______ _____ _____    ______ ____
ROOT
ATOM      1  C   UNL     1       0.793   3.334  20.007  0.00  0.00    +0.000 C 
ATOM      2  C   UNL     1       1.898   3.500  19.007  0.00  0.00    +0.000 A 
ATOM      3  C   UNL     1       1.816   2.956  17.727  0.00  0.00    +0.000 A 
ATOM      4  C   UNL     1       2.851   3.154  16.810  0.00  0.00    +0.000 A 
ATOM      5  C   UNL     1       4.007   3.894  17.155  0.00  0.00    +0.000 A 
ATOM      6  C   UNL     1       4.107   4.427  18.445  0.00  0.00    +0.000 A 
ATOM      7  C   UNL     1       3.035   4.235  19.350  0.00  0.00    +0.000 A 
ATOM      8  N   UNL     1       5.273   5.120  18.846  0.00  0.00    +0.000 N 
ATOM      9  O   UNL     1       5.297   5.514  20.056  0.00  0.00    +0.000 OA
ATOM     10  C   UNL     1       6.330   5.323  17.950  0.00  0.00    +0.000 A 
ATOM     11  C   UNL     1       6.201   4.830  16.620  0.00  0.00    +0.000 A 
ATOM     12  C   UNL     1       7.212   4.950  15.518  0.00  0.00    +0.000 C 
ATOM     13  N   UNL     1       5.055   4.103  16.245  0.00  0.00    +0.000 N 
ATOM     14  O   UNL     1       4.963   3.617  15.063  0.00  0.00    +0.000 OA
ENDROOT
BRANCH  10  15
ATOM     15  C   UNL     1       7.601   5.981  18.456  0.00  0.00    +0.000 C 
ATOM     16  O   UNL     1       8.370   5.351  19.178  0.00  0.00    +0.000 OA
BRANCH  15  17
ATOM     17  C   UNL     1       7.938   7.407  18.158  0.00  0.00    +0.000 C 
ATOM     18  C   UNL     1       8.772   8.148  18.908  0.00  0.00    +0.000 C 
BRANCH  18  19
ATOM     19  C   UNL     1       8.781   9.565  18.726  0.00  0.00    +0.000 A 
ATOM     20  C   UNL     1       8.268  10.340  17.686  0.00  0.00    +0.000 A 
ATOM     21  C   UNL     1       8.648  11.694  17.903  0.00  0.00    +0.000 A 
ATOM     22  C   UNL     1       9.366  11.677  19.069  0.00  0.00    +0.000 A 
ATOM     23  O   UNL     1       9.437  10.430  19.589  0.00  0.00    +0.000 OA
BRANCH  22  24
ATOM     24  N   UNL     1      10.051  12.708  19.785  0.00  0.00    +0.000 N 
ATOM     25  O   UNL     1      11.287  12.709  19.688  0.00  0.00    +0.000 OA
ATOM     26  O   UNL     1       9.379  13.510  20.444  0.00  0.00    +0.000 OA
ENDBRANCH  22  24
ENDBRANCH  18  19
ENDBRANCH  15  17
ENDBRANCH  10  15
TORSDOF 4
ENDMDL
