MODEL 1
REMARK VINA RESULT:      -6.1      0.000      0.000
REMARK  Name = 
REMARK  3 active torsions:
REMARK  status: ('A' for Active; 'I' for Inactive)
REMARK    1  A    between atoms: C_1  and  O_2
REMARK    2  A    between atoms: O_2  and  N_3
REMARK    3  A    between atoms: N_8  and  O_9
REMARK                            x       y       z     vdW  Elec       q    Type
REMARK                         _______ _______ _______ _____ _____    ______ ____
ROOT
ATOM      1  N   UNL     1       3.307   5.717  18.290  0.00  0.00    +0.000 N 
ATOM      2  C   UNL     1       4.346   5.487  17.405  0.00  0.00    +0.000 A 
ATOM      3  O   UNL     1       5.040   6.356  16.887  0.00  0.00    +0.000 OA
ATOM      4  C   UNL     1       4.612   4.015  17.058  0.00  0.00    +0.000 A 
ATOM      5  O   UNL     1       5.404   3.698  16.175  0.00  0.00    +0.000 OA
ATOM      6  N   UNL     1       3.928   3.084  17.804  0.00  0.00    +0.000 N 
ATOM      7  C   UNL     1       2.992   3.373  18.804  0.00  0.00    +0.000 A 
ATOM      8  C   UNL     1       2.386   2.360  19.556  0.00  0.00    +0.000 A 
ATOM      9  C   UNL     1       1.473   2.683  20.559  0.00  0.00    +0.000 A 
ATOM     10  C   UNL     1       1.151   4.015  20.806  0.00  0.00    +0.000 A 
ATOM     11  C   UNL     1       1.746   5.029  20.054  0.00  0.00    +0.000 A 
ATOM     12  C   UNL     1       2.676   4.713  19.054  0.00  0.00    +0.000 A 
ENDROOT
BRANCH   1  14
ATOM     13  C   UNL     1       2.281   7.768  17.915  0.00  0.00    +0.000 C 
ATOM     14  O   UNL     1       3.168   7.045  18.767  0.00  0.00    +0.000 OA
ENDBRANCH   1  14
BRANCH   6  15
ATOM     15  O   UNL     1       4.196   1.722  17.532  0.00  0.00    +0.000 OA
ATOM     16  H   UNL     1       3.339   1.298  17.756  0.00  0.00    +0.000 HD
ENDBRANCH   6  15
TORSDOF 2
ENDMDL
MODEL 2
REMARK VINA RESULT:      -5.9      1.899      5.010
REMARK  Name = 
REMARK  3 active torsions:
REMARK  status: ('A' for Active; 'I' for Inactive)
REMARK    1  A    between atoms: C_1  and  O_2
REMARK    2  A    between atoms: O_2  and  N_3
REMARK    3  A    between atoms: N_8  and  O_9
REMARK                            x       y       z     vdW  Elec       q    Type
REMARK                         _______ _______ _______ _____ _____    ______ ____
ROOT
ATOM      1  N   UNL     1       3.608   3.803  18.990  0.00  0.00    +0.000 N 
ATOM      2  C   UNL     1       2.850   4.196  20.080  0.00  0.00    +0.000 A 
ATOM      3  O   UNL     1       2.568   3.487  21.040  0.00  0.00    +0.000 OA
ATOM      4  C   UNL     1       2.326   5.640  20.039  0.00  0.00    +0.000 A 
ATOM      5  O   UNL     1       1.523   6.053  20.870  0.00  0.00    +0.000 OA
ATOM      6  N   UNL     1       2.822   6.436  19.034  0.00  0.00    +0.000 N 
ATOM      7  C   UNL     1       3.717   6.025  18.039  0.00  0.00    +0.000 A 
ATOM      8  C   UNL     1       4.218   6.922  17.088  0.00  0.00    +0.000 A 
ATOM      9  C   UNL     1       5.123   6.485  16.122  0.00  0.00    +0.000 A 
ATOM     10  C   UNL     1       5.520   5.150  16.092  0.00  0.00    +0.000 A 
ATOM     11  C   UNL     1       5.018   4.250  17.032  0.00  0.00    +0.000 A 
ATOM     12  C   UNL     1       4.120   4.685  18.016  0.00  0.00    +0.000 A 
ENDROOT
BRANCH   1  14
ATOM     13  C   UNL     1       3.469   1.548  18.445  0.00  0.00    +0.000 C 
ATOM     14  O   UNL     1       4.255   2.545  19.095  0.00  0.00    +0.000 OA
ENDBRANCH   1  14
BRANCH   6  15
ATOM     15  O   UNL     1       2.389   7.782  19.009  0.00  0.00    +0.000 OA
ATOM     16  H   UNL     1       1.519   7.724  19.459  0.00  0.00    +0.000 HD
ENDBRANCH   6  15
TORSDOF 2
ENDMDL
MODEL 3
REMARK VINA RESULT:      -5.8      1.380      1.380
REMARK  Name = 
REMARK  3 active torsions:
REMARK  status: ('A' for Active; 'I' for Inactive)
REMARK    1  A    between atoms: C_1  and  O_2
REMARK    2  A    between atoms: O_2  and  N_3
REMARK    3  A    between atoms: N_8  and  O_9
REMARK                            x       y       z     vdW  Elec       q    Type
REMARK                         _______ _______ _______ _____ _____    ______ ____
ROOT
ATOM      1  N   UNL     1       3.162   5.457  18.335  0.00  0.00    +0.000 N 
ATOM      2  C   UNL     1       4.523   5.543  18.100  0.00  0.00    +0.000 A 
ATOM      3  O   UNL     1       5.084   6.463  17.515  0.00  0.00    +0.000 OA
ATOM      4  C   UNL     1       5.363   4.365  18.617  0.00  0.00    +0.000 A 
ATOM      5  O   UNL     1       6.554   4.257  18.338  0.00  0.00    +0.000 OA
ATOM      6  N   UNL     1       4.708   3.460  19.418  0.00  0.00    +0.000 N 
ATOM      7  C   UNL     1       3.350   3.507  19.755  0.00  0.00    +0.000 A 
ATOM      8  C   UNL     1       2.779   2.574  20.628  0.00  0.00    +0.000 A 
ATOM      9  C   UNL     1       1.427   2.660  20.958  0.00  0.00    +0.000 A 
ATOM     10  C   UNL     1       0.638   3.667  20.407  0.00  0.00    +0.000 A 
ATOM     11  C   UNL     1       1.200   4.595  19.530  0.00  0.00    +0.000 A 
ATOM     12  C   UNL     1       2.562   4.524  19.205  0.00  0.00    +0.000 A 
ENDROOT
BRANCH   1  14
ATOM     13  C   UNL     1       2.427   7.506  19.148  0.00  0.00    +0.000 C 
ATOM     14  O   UNL     1       2.397   6.614  18.036  0.00  0.00    +0.000 OA
ENDBRANCH   1  14
BRANCH   6  15
ATOM     15  O   UNL     1       5.476   2.396  19.944  0.00  0.00    +0.000 OA
ATOM     16  H   UNL     1       6.335   2.835  20.127  0.00  0.00    +0.000 HD
ENDBRANCH   6  15
TORSDOF 2
ENDMDL
MODEL 4
REMARK VINA RESULT:      -5.8      2.693      3.831
REMARK  Name = 
REMARK  3 active torsions:
REMARK  status: ('A' for Active; 'I' for Inactive)
REMARK    1  A    between atoms: C_1  and  O_2
REMARK    2  A    between atoms: O_2  and  N_3
REMARK    3  A    between atoms: N_8  and  O_9
REMARK                            x       y       z     vdW  Elec       q    Type
REMARK                         _______ _______ _______ _____ _____    ______ ____
ROOT
ATOM      1  N   UNL     1       5.748   4.567  16.058  0.00  0.00    +0.000 N 
ATOM      2  C   UNL     1       6.839   5.373  16.334  0.00  0.00    +0.000 A 
ATOM      3  O   UNL     1       7.519   5.955  15.496  0.00  0.00    +0.000 OA
ATOM      4  C   UNL     1       7.202   5.514  17.820  0.00  0.00    +0.000 A 
ATOM      5  O   UNL     1       8.233   6.078  18.175  0.00  0.00    +0.000 OA
ATOM      6  N   UNL     1       6.301   4.992  18.716  0.00  0.00    +0.000 N 
ATOM      7  C   UNL     1       5.122   4.315  18.382  0.00  0.00    +0.000 A 
ATOM      8  C   UNL     1       4.230   3.867  19.364  0.00  0.00    +0.000 A 
ATOM      9  C   UNL     1       3.055   3.213  18.996  0.00  0.00    +0.000 A 
ATOM     10  C   UNL     1       2.773   2.990  17.651  0.00  0.00    +0.000 A 
ATOM     11  C   UNL     1       3.662   3.427  16.668  0.00  0.00    +0.000 A 
ATOM     12  C   UNL     1       4.838   4.099  17.029  0.00  0.00    +0.000 A 
ENDROOT
BRANCH   1  14
ATOM     13  C   UNL     1       6.122   3.746  13.916  0.00  0.00    +0.000 C 
ATOM     14  O   UNL     1       5.282   4.574  14.718  0.00  0.00    +0.000 OA
ENDBRANCH   1  14
BRANCH   6  15
ATOM     15  O   UNL     1       6.594   5.155  20.090  0.00  0.00    +0.000 OA
ATOM     16  H   UNL     1       5.705   5.330  20.468  0.00  0.00    +0.000 HD
ENDBRANCH   6  15
TORSDOF 2
ENDMDL
MODEL 5
REMARK VINA RESULT:      -5.8      1.609      3.782
REMARK  Name = 
REMARK  3 active torsions:
REMARK  status: ('A' for Active; 'I' for Inactive)
REMARK    1  A    between atoms: C_1  and  O_2
REMARK    2  A    between atoms: O_2  and  N_3
REMARK    3  A    between atoms: N_8  and  O_9
REMARK                            x       y       z     vdW  Elec       q    Type
REMARK                         _______ _______ _______ _____ _____    ______ ____
ROOT
ATOM      1  N   UNL     1       2.668   5.381  18.600  0.00  0.00    +0.000 N 
ATOM      2  C   UNL     1       1.992   4.303  19.143  0.00  0.00    +0.000 A 
ATOM      3  O   UNL     1       0.965   4.374  19.811  0.00  0.00    +0.000 OA
ATOM      4  C   UNL     1       2.615   2.924  18.878  0.00  0.00    +0.000 A 
ATOM      5  O   UNL     1       2.192   1.913  19.430  0.00  0.00    +0.000 OA
ATOM      6  N   UNL     1       3.654   2.892  17.977  0.00  0.00    +0.000 N 
ATOM      7  C   UNL     1       4.204   4.006  17.332  0.00  0.00    +0.000 A 
ATOM      8  C   UNL     1       5.224   3.874  16.382  0.00  0.00    +0.000 A 
ATOM      9  C   UNL     1       5.736   5.002  15.743  0.00  0.00    +0.000 A 
ATOM     10  C   UNL     1       5.243   6.266  16.059  0.00  0.00    +0.000 A 
ATOM     11  C   UNL     1       4.232   6.405  17.010  0.00  0.00    +0.000 A 
ATOM     12  C   UNL     1       3.702   5.274  17.646  0.00  0.00    +0.000 A 
ENDROOT
BRANCH   1  14
ATOM     13  C   UNL     1       2.276   7.242  19.936  0.00  0.00    +0.000 C 
ATOM     14  O   UNL     1       2.012   6.637  18.671  0.00  0.00    +0.000 OA
ENDBRANCH   1  14
BRANCH   6  15
ATOM     15  O   UNL     1       4.209   1.625  17.683  0.00  0.00    +0.000 OA
ATOM     16  H   UNL     1       3.482   1.197  17.181  0.00  0.00    +0.000 HD
ENDBRANCH   6  15
TORSDOF 2
ENDMDL
MODEL 6
REMARK VINA RESULT:      -5.8      1.816      4.969
REMARK  Name = 
REMARK  3 active torsions:
REMARK  status: ('A' for Active; 'I' for Inactive)
REMARK    1  A    between atoms: C_1  and  O_2
REMARK    2  A    between atoms: O_2  and  N_3
REMARK    3  A    between atoms: N_8  and  O_9
REMARK                            x       y       z     vdW  Elec       q    Type
REMARK                         _______ _______ _______ _____ _____    ______ ____
ROOT
ATOM      1  N   UNL     1       2.618   3.294  18.079  0.00  0.00    +0.000 N 
ATOM      2  C   UNL     1       1.886   3.420  19.247  0.00  0.00    +0.000 A 
ATOM      3  O   UNL     1       1.289   2.509  19.811  0.00  0.00    +0.000 OA
ATOM      4  C   UNL     1       1.832   4.832  19.849  0.00  0.00    +0.000 A 
ATOM      5  O   UNL     1       1.096   5.098  20.795  0.00  0.00    +0.000 OA
ATOM      6  N   UNL     1       2.665   5.766  19.278  0.00  0.00    +0.000 N 
ATOM      7  C   UNL     1       3.508   5.541  18.184  0.00  0.00    +0.000 A 
ATOM      8  C   UNL     1       4.369   6.536  17.705  0.00  0.00    +0.000 A 
ATOM      9  C   UNL     1       5.210   6.273  16.625  0.00  0.00    +0.000 A 
ATOM     10  C   UNL     1       5.186   5.024  16.010  0.00  0.00    +0.000 A 
ATOM     11  C   UNL     1       4.325   4.031  16.478  0.00  0.00    +0.000 A 
ATOM     12  C   UNL     1       3.487   4.282  17.573  0.00  0.00    +0.000 A 
ENDROOT
BRANCH   1  14
ATOM     13  C   UNL     1       3.769   1.313  18.467  0.00  0.00    +0.000 C 
ATOM     14  O   UNL     1       2.836   1.972  17.613  0.00  0.00    +0.000 OA
ENDBRANCH   1  14
BRANCH   6  15
ATOM     15  O   UNL     1       2.665   7.060  19.850  0.00  0.00    +0.000 OA
ATOM     16  H   UNL     1       1.736   7.344  19.710  0.00  0.00    +0.000 HD
ENDBRANCH   6  15
TORSDOF 2
ENDMDL
MODEL 7
REMARK VINA RESULT:      -5.8      1.671      2.057
REMARK  Name = 
REMARK  3 active torsions:
REMARK  status: ('A' for Active; 'I' for Inactive)
REMARK    1  A    between atoms: C_1  and  O_2
REMARK    2  A    between atoms: O_2  and  N_3
REMARK    3  A    between atoms: N_8  and  O_9
REMARK                            x       y       z     vdW  Elec       q    Type
REMARK                         _______ _______ _______ _____ _____    ______ ____
ROOT
ATOM      1  N   UNL     1       3.981   6.389  17.614  0.00  0.00    +0.000 N 
ATOM      2  C   UNL     1       5.272   6.644  17.185  0.00  0.00    +0.000 A 
ATOM      3  O   UNL     1       5.865   7.710  17.317  0.00  0.00    +0.000 OA
ATOM      4  C   UNL     1       5.982   5.478  16.481  0.00  0.00    +0.000 A 
ATOM      5  O   UNL     1       7.067   5.629  15.928  0.00  0.00    +0.000 OA
ATOM      6  N   UNL     1       5.340   4.262  16.526  0.00  0.00    +0.000 N 
ATOM      7  C   UNL     1       4.093   4.024  17.115  0.00  0.00    +0.000 A 
ATOM      8  C   UNL     1       3.540   2.738  17.166  0.00  0.00    +0.000 A 
ATOM      9  C   UNL     1       2.304   2.532  17.778  0.00  0.00    +0.000 A 
ATOM     10  C   UNL     1       1.609   3.607  18.326  0.00  0.00    +0.000 A 
ATOM     11  C   UNL     1       2.151   4.891  18.270  0.00  0.00    +0.000 A 
ATOM     12  C   UNL     1       3.400   5.105  17.671  0.00  0.00    +0.000 A 
ENDROOT
BRANCH   1  14
ATOM     13  C   UNL     1       2.601   8.258  17.617  0.00  0.00    +0.000 C 
ATOM     14  O   UNL     1       3.380   7.383  18.429  0.00  0.00    +0.000 OA
ENDBRANCH   1  14
BRANCH   6  15
ATOM     15  O   UNL     1       6.001   3.165  15.925  0.00  0.00    +0.000 OA
ATOM     16  H   UNL     1       5.975   2.496  16.643  0.00  0.00    +0.000 HD
ENDBRANCH   6  15
TORSDOF 2
ENDMDL
MODEL 8
REMARK VINA RESULT:      -5.7      1.972      3.903
REMARK  Name = 
REMARK  3 active torsions:
REMARK  status: ('A' for Active; 'I' for Inactive)
REMARK    1  A    between atoms: C_1  and  O_2
REMARK    2  A    between atoms: O_2  and  N_3
REMARK    3  A    between atoms: N_8  and  O_9
REMARK                            x       y       z     vdW  Elec       q    Type
REMARK                         _______ _______ _______ _____ _____    ______ ____
ROOT
ATOM      1  N   UNL     1       2.812   5.850  19.270  0.00  0.00    +0.000 N 
ATOM      2  C   UNL     1       2.325   4.821  20.058  0.00  0.00    +0.000 A 
ATOM      3  O   UNL     1       1.250   4.829  20.649  0.00  0.00    +0.000 OA
ATOM      4  C   UNL     1       3.240   3.595  20.190  0.00  0.00    +0.000 A 
ATOM      5  O   UNL     1       2.986   2.688  20.977  0.00  0.00    +0.000 OA
ATOM      6  N   UNL     1       4.340   3.568  19.365  0.00  0.00    +0.000 N 
ATOM      7  C   UNL     1       4.705   4.576  18.465  0.00  0.00    +0.000 A 
ATOM      8  C   UNL     1       5.812   4.439  17.619  0.00  0.00    +0.000 A 
ATOM      9  C   UNL     1       6.137   5.453  16.720  0.00  0.00    +0.000 A 
ATOM     10  C   UNL     1       5.369   6.615  16.672  0.00  0.00    +0.000 A 
ATOM     11  C   UNL     1       4.269   6.761  17.519  0.00  0.00    +0.000 A 
ATOM     12  C   UNL     1       3.927   5.739  18.414  0.00  0.00    +0.000 A 
ENDROOT
BRANCH   1  14
ATOM     13  C   UNL     1       1.948   7.867  20.036  0.00  0.00    +0.000 C 
ATOM     14  O   UNL     1       1.908   6.905  18.984  0.00  0.00    +0.000 OA
ENDBRANCH   1  14
BRANCH   6  15
ATOM     15  O   UNL     1       5.168   2.424  19.437  0.00  0.00    +0.000 OA
ATOM     16  H   UNL     1       5.820   2.600  18.725  0.00  0.00    +0.000 HD
ENDBRANCH   6  15
TORSDOF 2
ENDMDL
MODEL 9
REMARK VINA RESULT:      -5.7      1.659      1.665
REMARK  Name = 
REMARK  3 active torsions:
REMARK  status: ('A' for Active; 'I' for Inactive)
REMARK    1  A    between atoms: C_1  and  O_2
REMARK    2  A    between atoms: O_2  and  N_3
REMARK    3  A    between atoms: N_8  and  O_9
REMARK                            x       y       z     vdW  Elec       q    Type
REMARK                         _______ _______ _______ _____ _____    ______ ____
ROOT
ATOM      1  N   UNL     1       3.480   5.431  17.820  0.00  0.00    +0.000 N 
ATOM      2  C   UNL     1       4.820   5.607  18.123  0.00  0.00    +0.000 A 
ATOM      3  O   UNL     1       5.461   6.634  17.927  0.00  0.00    +0.000 OA
ATOM      4  C   UNL     1       5.528   4.391  18.737  0.00  0.00    +0.000 A 
ATOM      5  O   UNL     1       6.744   4.377  18.908  0.00  0.00    +0.000 OA
ATOM      6  N   UNL     1       4.721   3.338  19.098  0.00  0.00    +0.000 N 
ATOM      7  C   UNL     1       3.336   3.275  18.909  0.00  0.00    +0.000 A 
ATOM      8  C   UNL     1       2.582   2.185  19.363  0.00  0.00    +0.000 A 
ATOM      9  C   UNL     1       1.201   2.163  19.176  0.00  0.00    +0.000 A 
ATOM     10  C   UNL     1       0.568   3.218  18.524  0.00  0.00    +0.000 A 
ATOM     11  C   UNL     1       1.315   4.303  18.063  0.00  0.00    +0.000 A 
ATOM     12  C   UNL     1       2.702   4.340  18.260  0.00  0.00    +0.000 A 
ENDROOT
BRANCH   1  14
ATOM     13  C   UNL     1       2.514   7.405  18.575  0.00  0.00    +0.000 C 
ATOM     14  O   UNL     1       2.765   6.592  17.430  0.00  0.00    +0.000 OA
ENDBRANCH   1  14
BRANCH   6  15
ATOM     15  O   UNL     1       5.349   2.229  19.711  0.00  0.00    +0.000 OA
ATOM     16  H   UNL     1       5.924   2.664  20.378  0.00  0.00    +0.000 HD
ENDBRANCH   6  15
TORSDOF 2
ENDMDL
