MODEL 1
REMARK VINA RESULT:      -9.4      0.000      0.000
REMARK  Name = 
REMARK  6 active torsions:
REMARK  status: ('A' for Active; 'I' for Inactive)
REMARK    1  A    between atoms: S_2  and  C_4
REMARK    2  A    between atoms: S_2  and  N_28
REMARK    3  A    between atoms: N_11  and  C_12
REMARK    4  A    between atoms: C_17  and  C_18
REMARK    5  A    between atoms: N_24  and  C_25
REMARK    6  A    between atoms: C_31  and  O_32
REMARK                            x       y       z     vdW  Elec       q    Type
REMARK                         _______ _______ _______ _____ _____    ______ ____
ROOT
ATOM      1  C   UNL     1       5.624   5.144  17.309  0.00  0.00    +0.000 A 
ATOM      2  C   UNL     1       5.193   3.832  17.520  0.00  0.00    +0.000 A 
ATOM      3  C   UNL     1       4.000   3.577  18.202  0.00  0.00    +0.000 A 
ATOM      4  C   UNL     1       3.253   4.680  18.648  0.00  0.00    +0.000 A 
ATOM      5  C   UNL     1       3.668   6.003  18.452  0.00  0.00    +0.000 A 
ATOM      6  C   UNL     1       4.883   6.244  17.770  0.00  0.00    +0.000 A 
ATOM      7  C   UNL     1       2.614   6.802  18.991  0.00  0.00    +0.000 A 
ATOM      8  N   UNL     1       2.569   8.160  18.960  0.00  0.00    +0.000 N 
ATOM      9  N   UNL     1       1.661   6.042  19.526  0.00  0.00    +0.000 NA
ATOM     10  N   UNL     1       2.029   4.787  19.268  0.00  0.00    +0.000 N 
ATOM     11  H   UNL     1       3.408   8.691  18.760  0.00  0.00    +0.000 HD
ENDROOT
BRANCH   8  12
ATOM     12  C   UNL     1       1.405   8.959  19.072  0.00  0.00    +0.000 A 
ATOM     13  C   UNL     1       0.679   9.315  17.932  0.00  0.00    +0.000 A 
ATOM     14  C   UNL     1      -0.405  10.196  18.030  0.00  0.00    +0.000 A 
ATOM     15  C   UNL     1      -0.760  10.739  19.265  0.00  0.00    +0.000 A 
ATOM     16  F   UNL     1      -1.794  11.588  19.315  0.00  0.00    +0.000 F 
ATOM     17  C   UNL     1      -0.054  10.419  20.414  0.00  0.00    +0.000 A 
ATOM     18  C   UNL     1       1.018   9.520  20.302  0.00  0.00    +0.000 A 
BRANCH  17  19
ATOM     19  C   UNL     1      -0.382  11.011  21.749  0.00  0.00    +0.000 C 
ATOM     20  F   UNL     1      -1.710  11.109  22.029  0.00  0.00    +0.000 F 
ATOM     21  F   UNL     1       0.158  10.295  22.776  0.00  0.00    +0.000 F 
ATOM     22  F   UNL     1       0.115  12.275  21.891  0.00  0.00    +0.000 F 
ENDBRANCH  17  19
ENDBRANCH   8  12
BRANCH   1  24
ATOM     23  O   UNL     1       7.413   6.810  16.432  0.00  0.00    +0.000 OA
ATOM     24  S   UNL     1       7.080   5.405  16.319  0.00  0.00    +0.000 S 
ATOM     25  O   UNL     1       8.045   4.377  16.637  0.00  0.00    +0.000 OA
BRANCH  24  26
ATOM     26  N   UNL     1       6.540   5.112  14.704  0.00  0.00    +0.000 NA
ATOM     27  C   UNL     1       5.605   3.954  14.590  0.00  0.00    +0.000 C 
ATOM     28  C   UNL     1       5.061   3.847  13.171  0.00  0.00    +0.000 C 
ATOM     29  C   UNL     1       6.176   3.760  12.134  0.00  0.00    +0.000 C 
ATOM     30  C   UNL     1       7.178   4.895  12.310  0.00  0.00    +0.000 C 
ATOM     31  C   UNL     1       7.684   5.002  13.745  0.00  0.00    +0.000 C 
BRANCH  29  32
ATOM     32  O   UNL     1       6.824   2.491  12.188  0.00  0.00    +0.000 OA
ATOM     33  H   UNL     1       6.247   1.842  12.624  0.00  0.00    +0.000 HD
ENDBRANCH  29  32
ENDBRANCH  24  26
ENDBRANCH   1  24
BRANCH  10  34
ATOM     34  C   UNL     1       1.132   3.684  19.570  0.00  0.00    +0.000 C 
ATOM     35  C   UNL     1       1.629   2.243  19.574  0.00  0.00    +0.000 C 
ATOM     36  C   UNL     1       1.287   2.896  20.866  0.00  0.00    +0.000 C 
ENDBRANCH  10  34
TORSDOF 6
ENDMDL
MODEL 2
REMARK VINA RESULT:      -9.1      1.094      2.208
REMARK  Name = 
REMARK  6 active torsions:
REMARK  status: ('A' for Active; 'I' for Inactive)
REMARK    1  A    between atoms: S_2  and  C_4
REMARK    2  A    between atoms: S_2  and  N_28
REMARK    3  A    between atoms: N_11  and  C_12
REMARK    4  A    between atoms: C_17  and  C_18
REMARK    5  A    between atoms: N_24  and  C_25
REMARK    6  A    between atoms: C_31  and  O_32
REMARK                            x       y       z     vdW  Elec       q    Type
REMARK                         _______ _______ _______ _____ _____    ______ ____
ROOT
ATOM      1  C   UNL     1       5.555   5.250  17.346  0.00  0.00    +0.000 A 
ATOM      2  C   UNL     1       5.102   3.952  17.595  0.00  0.00    +0.000 A 
ATOM      3  C   UNL     1       3.906   3.736  18.284  0.00  0.00    +0.000 A 
ATOM      4  C   UNL     1       3.178   4.863  18.701  0.00  0.00    +0.000 A 
ATOM      5  C   UNL     1       3.615   6.173  18.467  0.00  0.00    +0.000 A 
ATOM      6  C   UNL     1       4.832   6.375  17.778  0.00  0.00    +0.000 A 
ATOM      7  C   UNL     1       2.575   7.004  18.985  0.00  0.00    +0.000 A 
ATOM      8  N   UNL     1       2.553   8.362  18.916  0.00  0.00    +0.000 N 
ATOM      9  N   UNL     1       1.610   6.275  19.542  0.00  0.00    +0.000 NA
ATOM     10  N   UNL     1       1.957   5.008  19.318  0.00  0.00    +0.000 N 
ATOM     11  H   UNL     1       3.400   8.873  18.700  0.00  0.00    +0.000 HD
ENDROOT
BRANCH   8  12
ATOM     12  C   UNL     1       1.403   9.183  19.007  0.00  0.00    +0.000 A 
ATOM     13  C   UNL     1       1.139   9.903  20.175  0.00  0.00    +0.000 A 
ATOM     14  C   UNL     1      -0.054  10.626  20.306  0.00  0.00    +0.000 A 
ATOM     15  C   UNL     1      -0.996  10.620  19.279  0.00  0.00    +0.000 A 
ATOM     16  F   UNL     1      -2.129  11.312  19.448  0.00  0.00    +0.000 F 
ATOM     17  C   UNL     1      -0.774   9.907  18.111  0.00  0.00    +0.000 A 
ATOM     18  C   UNL     1       0.434   9.203  17.988  0.00  0.00    +0.000 A 
BRANCH  17  19
ATOM     19  C   UNL     1      -1.778   9.847  17.003  0.00  0.00    +0.000 C 
ATOM     20  F   UNL     1      -1.432   9.060  15.949  0.00  0.00    +0.000 F 
ATOM     21  F   UNL     1      -2.987   9.380  17.429  0.00  0.00    +0.000 F 
ATOM     22  F   UNL     1      -2.036  11.077  16.471  0.00  0.00    +0.000 F 
ENDBRANCH  17  19
ENDBRANCH   8  12
BRANCH   1  24
ATOM     23  O   UNL     1       7.377   6.858  16.432  0.00  0.00    +0.000 OA
ATOM     24  S   UNL     1       7.013   5.460  16.348  0.00  0.00    +0.000 S 
ATOM     25  O   UNL     1       7.956   4.417  16.685  0.00  0.00    +0.000 OA
BRANCH  24  26
ATOM     26  N   UNL     1       6.462   5.146  14.740  0.00  0.00    +0.000 NA
ATOM     27  C   UNL     1       5.549   3.969  14.644  0.00  0.00    +0.000 C 
ATOM     28  C   UNL     1       4.993   3.842  13.231  0.00  0.00    +0.000 C 
ATOM     29  C   UNL     1       6.099   3.771  12.184  0.00  0.00    +0.000 C 
ATOM     30  C   UNL     1       7.080   4.926  12.342  0.00  0.00    +0.000 C 
ATOM     31  C   UNL     1       7.599   5.052  13.771  0.00  0.00    +0.000 C 
BRANCH  29  32
ATOM     32  O   UNL     1       6.772   2.515  12.238  0.00  0.00    +0.000 OA
ATOM     33  H   UNL     1       6.755   2.090  11.365  0.00  0.00    +0.000 HD
ENDBRANCH  29  32
ENDBRANCH  24  26
ENDBRANCH   1  24
BRANCH  10  34
ATOM     34  C   UNL     1       1.043   3.929  19.652  0.00  0.00    +0.000 C 
ATOM     35  C   UNL     1       1.482   2.472  19.577  0.00  0.00    +0.000 C 
ATOM     36  C   UNL     1       1.259   3.095  20.910  0.00  0.00    +0.000 C 
ENDBRANCH  10  34
TORSDOF 6
ENDMDL
MODEL 3
REMARK VINA RESULT:      -9.0      5.726      9.173
REMARK  Name = 
REMARK  6 active torsions:
REMARK  status: ('A' for Active; 'I' for Inactive)
REMARK    1  A    between atoms: S_2  and  C_4
REMARK    2  A    between atoms: S_2  and  N_28
REMARK    3  A    between atoms: N_11  and  C_12
REMARK    4  A    between atoms: C_17  and  C_18
REMARK    5  A    between atoms: N_24  and  C_25
REMARK    6  A    between atoms: C_31  and  O_32
REMARK                            x       y       z     vdW  Elec       q    Type
REMARK                         _______ _______ _______ _____ _____    ______ ____
ROOT
ATOM      1  C   UNL     1       0.866   9.329  20.093  0.00  0.00    +0.000 A 
ATOM      2  C   UNL     1       0.486   8.577  21.207  0.00  0.00    +0.000 A 
ATOM      3  C   UNL     1       0.925   7.258  21.357  0.00  0.00    +0.000 A 
ATOM      4  C   UNL     1       1.764   6.730  20.362  0.00  0.00    +0.000 A 
ATOM      5  C   UNL     1       2.153   7.465  19.235  0.00  0.00    +0.000 A 
ATOM      6  C   UNL     1       1.693   8.793  19.092  0.00  0.00    +0.000 A 
ATOM      7  C   UNL     1       3.038   6.599  18.522  0.00  0.00    +0.000 A 
ATOM      8  N   UNL     1       3.705   6.930  17.384  0.00  0.00    +0.000 N 
ATOM      9  N   UNL     1       3.140   5.416  19.122  0.00  0.00    +0.000 NA
ATOM     10  N   UNL     1       2.421   5.528  20.238  0.00  0.00    +0.000 N 
ATOM     11  H   UNL     1       3.420   7.739  16.846  0.00  0.00    +0.000 HD
ENDROOT
BRANCH   8  12
ATOM     12  C   UNL     1       4.880   6.309  16.895  0.00  0.00    +0.000 A 
ATOM     13  C   UNL     1       6.119   6.578  17.482  0.00  0.00    +0.000 A 
ATOM     14  C   UNL     1       7.293   6.052  16.928  0.00  0.00    +0.000 A 
ATOM     15  C   UNL     1       7.237   5.267  15.778  0.00  0.00    +0.000 A 
ATOM     16  F   UNL     1       8.383   4.794  15.272  0.00  0.00    +0.000 F 
ATOM     17  C   UNL     1       6.027   4.990  15.161  0.00  0.00    +0.000 A 
ATOM     18  C   UNL     1       4.858   5.509  15.738  0.00  0.00    +0.000 A 
BRANCH  17  19
ATOM     19  C   UNL     1       5.933   4.183  13.904  0.00  0.00    +0.000 C 
ATOM     20  F   UNL     1       6.724   4.607  12.883  0.00  0.00    +0.000 F 
ATOM     21  F   UNL     1       6.264   2.875  14.107  0.00  0.00    +0.000 F 
ATOM     22  F   UNL     1       4.665   4.158  13.399  0.00  0.00    +0.000 F 
ENDBRANCH  17  19
ENDBRANCH   8  12
BRANCH   1  24
ATOM     23  O   UNL     1       0.453  11.544  21.383  0.00  0.00    +0.000 OA
ATOM     24  S   UNL     1       0.386  11.042  20.027  0.00  0.00    +0.000 S 
ATOM     25  O   UNL     1       1.108  11.682  18.951  0.00  0.00    +0.000 OA
BRANCH  24  26
ATOM     26  N   UNL     1      -1.278  10.987  19.560  0.00  0.00    +0.000 NA
ATOM     27  C   UNL     1      -1.525  10.167  18.336  0.00  0.00    +0.000 C 
ATOM     28  C   UNL     1      -3.020  10.047  18.070  0.00  0.00    +0.000 C 
ATOM     29  C   UNL     1      -3.696  11.410  17.968  0.00  0.00    +0.000 C 
ATOM     30  C   UNL     1      -3.369  12.277  19.178  0.00  0.00    +0.000 C 
ATOM     31  C   UNL     1      -1.868  12.357  19.442  0.00  0.00    +0.000 C 
BRANCH  29  32
ATOM     32  O   UNL     1      -3.337  12.066  16.754  0.00  0.00    +0.000 OA
ATOM     33  H   UNL     1      -2.457  12.468  16.841  0.00  0.00    +0.000 HD
ENDBRANCH  29  32
ENDBRANCH  24  26
ENDBRANCH   1  24
BRANCH  10  34
ATOM     34  C   UNL     1       2.438   4.465  21.230  0.00  0.00    +0.000 C 
ATOM     35  C   UNL     1       1.373   3.376  21.237  0.00  0.00    +0.000 C 
ATOM     36  C   UNL     1       2.759   3.032  20.821  0.00  0.00    +0.000 C 
ENDBRANCH  10  34
TORSDOF 6
ENDMDL
MODEL 4
REMARK VINA RESULT:      -8.7      5.798      9.640
REMARK  Name = 
REMARK  6 active torsions:
REMARK  status: ('A' for Active; 'I' for Inactive)
REMARK    1  A    between atoms: S_2  and  C_4
REMARK    2  A    between atoms: S_2  and  N_28
REMARK    3  A    between atoms: N_11  and  C_12
REMARK    4  A    between atoms: C_17  and  C_18
REMARK    5  A    between atoms: N_24  and  C_25
REMARK    6  A    between atoms: C_31  and  O_32
REMARK                            x       y       z     vdW  Elec       q    Type
REMARK                         _______ _______ _______ _____ _____    ______ ____
ROOT
ATOM      1  C   UNL     1       0.937   9.760  20.132  0.00  0.00    +0.000 A 
ATOM      2  C   UNL     1       0.363   9.027  21.174  0.00  0.00    +0.000 A 
ATOM      3  C   UNL     1       0.622   7.660  21.308  0.00  0.00    +0.000 A 
ATOM      4  C   UNL     1       1.484   7.062  20.373  0.00  0.00    +0.000 A 
ATOM      5  C   UNL     1       2.066   7.777  19.319  0.00  0.00    +0.000 A 
ATOM      6  C   UNL     1       1.785   9.156  19.190  0.00  0.00    +0.000 A 
ATOM      7  C   UNL     1       2.904   6.830  18.654  0.00  0.00    +0.000 A 
ATOM      8  N   UNL     1       3.713   7.110  17.597  0.00  0.00    +0.000 N 
ATOM      9  N   UNL     1       2.803   5.625  19.211  0.00  0.00    +0.000 NA
ATOM     10  N   UNL     1       1.999   5.792  20.260  0.00  0.00    +0.000 N 
ATOM     11  H   UNL     1       3.581   7.964  17.070  0.00  0.00    +0.000 HD
ENDROOT
BRANCH   8  12
ATOM     12  C   UNL     1       4.846   6.362  17.193  0.00  0.00    +0.000 A 
ATOM     13  C   UNL     1       6.023   6.401  17.944  0.00  0.00    +0.000 A 
ATOM     14  C   UNL     1       7.177   5.752  17.485  0.00  0.00    +0.000 A 
ATOM     15  C   UNL     1       7.165   5.075  16.267  0.00  0.00    +0.000 A 
ATOM     16  F   UNL     1       8.291   4.480  15.856  0.00  0.00    +0.000 F 
ATOM     17  C   UNL     1       6.018   5.027  15.489  0.00  0.00    +0.000 A 
ATOM     18  C   UNL     1       4.866   5.667  15.971  0.00  0.00    +0.000 A 
BRANCH  17  19
ATOM     19  C   UNL     1       5.979   4.343  14.158  0.00  0.00    +0.000 C 
ATOM     20  F   UNL     1       6.831   4.843  13.224  0.00  0.00    +0.000 F 
ATOM     21  F   UNL     1       6.277   3.015  14.254  0.00  0.00    +0.000 F 
ATOM     22  F   UNL     1       4.740   4.393  13.587  0.00  0.00    +0.000 F 
ENDBRANCH  17  19
ENDBRANCH   8  12
BRANCH   1  24
ATOM     23  O   UNL     1       1.362  12.066  21.246  0.00  0.00    +0.000 OA
ATOM     24  S   UNL     1       0.675  11.520  20.095  0.00  0.00    +0.000 S 
ATOM     25  O   UNL     1       0.951  11.998  18.759  0.00  0.00    +0.000 OA
BRANCH  24  26
ATOM     26  N   UNL     1      -1.025  11.691  20.355  0.00  0.00    +0.000 NA
ATOM     27  C   UNL     1      -1.770  12.140  19.142  0.00  0.00    +0.000 C 
ATOM     28  C   UNL     1      -3.271  12.129  19.406  0.00  0.00    +0.000 C 
ATOM     29  C   UNL     1      -3.645  12.965  20.626  0.00  0.00    +0.000 C 
ATOM     30  C   UNL     1      -2.818  12.563  21.841  0.00  0.00    +0.000 C 
ATOM     31  C   UNL     1      -1.322  12.551  21.544  0.00  0.00    +0.000 C 
BRANCH  29  32
ATOM     32  O   UNL     1      -3.509  14.357  20.350  0.00  0.00    +0.000 OA
ATOM     33  H   UNL     1      -2.569  14.602  20.329  0.00  0.00    +0.000 HD
ENDBRANCH  29  32
ENDBRANCH  24  26
ENDBRANCH   1  24
BRANCH  10  34
ATOM     34  C   UNL     1       1.792   4.706  21.203  0.00  0.00    +0.000 C 
ATOM     35  C   UNL     1       1.125   3.404  20.774  0.00  0.00    +0.000 C 
ATOM     36  C   UNL     1       2.582   3.408  21.073  0.00  0.00    +0.000 C 
ENDBRANCH  10  34
TORSDOF 6
ENDMDL
MODEL 5
REMARK VINA RESULT:      -8.6      6.651     11.360
REMARK  Name = 
REMARK  6 active torsions:
REMARK  status: ('A' for Active; 'I' for Inactive)
REMARK    1  A    between atoms: S_2  and  C_4
REMARK    2  A    between atoms: S_2  and  N_28
REMARK    3  A    between atoms: N_11  and  C_12
REMARK    4  A    between atoms: C_17  and  C_18
REMARK    5  A    between atoms: N_24  and  C_25
REMARK    6  A    between atoms: C_31  and  O_32
REMARK                            x       y       z     vdW  Elec       q    Type
REMARK                         _______ _______ _______ _____ _____    ______ ____
ROOT
ATOM      1  C   UNL     1      -2.598  12.567  20.600  0.00  0.00    +0.000 A 
ATOM      2  C   UNL     1      -3.682  12.469  19.724  0.00  0.00    +0.000 A 
ATOM      3  C   UNL     1      -3.587  11.703  18.559  0.00  0.00    +0.000 A 
ATOM      4  C   UNL     1      -2.378  11.032  18.313  0.00  0.00    +0.000 A 
ATOM      5  C   UNL     1      -1.277  11.121  19.175  0.00  0.00    +0.000 A 
ATOM      6  C   UNL     1      -1.385  11.908  20.343  0.00  0.00    +0.000 A 
ATOM      7  C   UNL     1      -0.294  10.257  18.602  0.00  0.00    +0.000 A 
ATOM      8  N   UNL     1       0.924   9.990  19.146  0.00  0.00    +0.000 N 
ATOM      9  N   UNL     1      -0.725   9.730  17.459  0.00  0.00    +0.000 NA
ATOM     10  N   UNL     1      -1.981  10.157  17.329  0.00  0.00    +0.000 N 
ATOM     11  H   UNL     1       1.293  10.585  19.877  0.00  0.00    +0.000 HD
ENDROOT
BRANCH   8  12
ATOM     12  C   UNL     1       1.729   8.858  18.873  0.00  0.00    +0.000 A 
ATOM     13  C   UNL     1       2.605   8.859  17.785  0.00  0.00    +0.000 A 
ATOM     14  C   UNL     1       3.318   7.700  17.449  0.00  0.00    +0.000 A 
ATOM     15  C   UNL     1       3.147   6.531  18.189  0.00  0.00    +0.000 A 
ATOM     16  F   UNL     1       3.836   5.442  17.829  0.00  0.00    +0.000 F 
ATOM     17  C   UNL     1       2.277   6.490  19.268  0.00  0.00    +0.000 A 
ATOM     18  C   UNL     1       1.584   7.664  19.602  0.00  0.00    +0.000 A 
BRANCH  17  19
ATOM     19  C   UNL     1       2.041   5.244  20.061  0.00  0.00    +0.000 C 
ATOM     20  F   UNL     1       3.128   4.762  20.721  0.00  0.00    +0.000 F 
ATOM     21  F   UNL     1       1.079   5.414  21.013  0.00  0.00    +0.000 F 
ATOM     22  F   UNL     1       1.598   4.212  19.285  0.00  0.00    +0.000 F 
ENDBRANCH  17  19
ENDBRANCH   8  12
BRANCH   1  24
ATOM     23  O   UNL     1      -1.797  12.979  23.035  0.00  0.00    +0.000 OA
ATOM     24  S   UNL     1      -2.826  13.447  22.131  0.00  0.00    +0.000 S 
ATOM     25  O   UNL     1      -2.985  14.853  21.835  0.00  0.00    +0.000 OA
BRANCH  24  26
ATOM     26  N   UNL     1      -4.350  12.875  22.713  0.00  0.00    +0.000 NA
ATOM     27  C   UNL     1      -5.518  13.598  22.130  0.00  0.00    +0.000 C 
ATOM     28  C   UNL     1      -6.822  12.948  22.576  0.00  0.00    +0.000 C 
ATOM     29  C   UNL     1      -6.928  12.859  24.095  0.00  0.00    +0.000 C 
ATOM     30  C   UNL     1      -5.692  12.200  24.694  0.00  0.00    +0.000 C 
ATOM     31  C   UNL     1      -4.399  12.848  24.209  0.00  0.00    +0.000 C 
BRANCH  29  32
ATOM     32  O   UNL     1      -7.151  14.147  24.665  0.00  0.00    +0.000 OA
ATOM     33  H   UNL     1      -6.978  14.122  25.621  0.00  0.00    +0.000 HD
ENDBRANCH  29  32
ENDBRANCH  24  26
ENDBRANCH   1  24
BRANCH  10  34
ATOM     34  C   UNL     1      -2.823   9.642  16.263  0.00  0.00    +0.000 C 
ATOM     35  C   UNL     1      -3.903  10.507  15.623  0.00  0.00    +0.000 C 
ATOM     36  C   UNL     1      -2.682  10.174  14.841  0.00  0.00    +0.000 C 
ENDBRANCH  10  34
TORSDOF 6
ENDMDL
MODEL 6
REMARK VINA RESULT:      -8.6      6.009      9.717
REMARK  Name = 
REMARK  6 active torsions:
REMARK  status: ('A' for Active; 'I' for Inactive)
REMARK    1  A    between atoms: S_2  and  C_4
REMARK    2  A    between atoms: S_2  and  N_28
REMARK    3  A    between atoms: N_11  and  C_12
REMARK    4  A    between atoms: C_17  and  C_18
REMARK    5  A    between atoms: N_24  and  C_25
REMARK    6  A    between atoms: C_31  and  O_32
REMARK                            x       y       z     vdW  Elec       q    Type
REMARK                         _______ _______ _______ _____ _____    ______ ____
ROOT
ATOM      1  C   UNL     1       0.326  13.493  20.068  0.00  0.00    +0.000 A 
ATOM      2  C   UNL     1      -1.022  13.569  19.708  0.00  0.00    +0.000 A 
ATOM      3  C   UNL     1      -1.615  12.552  18.954  0.00  0.00    +0.000 A 
ATOM      4  C   UNL     1      -0.814  11.457  18.589  0.00  0.00    +0.000 A 
ATOM      5  C   UNL     1       0.539  11.363  18.935  0.00  0.00    +0.000 A 
ATOM      6  C   UNL     1       1.127  12.404  19.688  0.00  0.00    +0.000 A 
ATOM      7  C   UNL     1       0.957  10.091  18.434  0.00  0.00    +0.000 A 
ATOM      8  N   UNL     1       2.196   9.556  18.600  0.00  0.00    +0.000 N 
ATOM      9  N   UNL     1      -0.032   9.482  17.786  0.00  0.00    +0.000 NA
ATOM     10  N   UNL     1      -1.089  10.279  17.932  0.00  0.00    +0.000 N 
ATOM     11  H   UNL     1       2.969  10.144  18.887  0.00  0.00    +0.000 HD
ENDROOT
BRANCH   8  12
ATOM     12  C   UNL     1       2.528   8.182  18.519  0.00  0.00    +0.000 A 
ATOM     13  C   UNL     1       2.071   7.285  19.488  0.00  0.00    +0.000 A 
ATOM     14  C   UNL     1       2.491   5.949  19.471  0.00  0.00    +0.000 A 
ATOM     15  C   UNL     1       3.382   5.505  18.495  0.00  0.00    +0.000 A 
ATOM     16  F   UNL     1       3.770   4.225  18.520  0.00  0.00    +0.000 F 
ATOM     17  C   UNL     1       3.866   6.369  17.525  0.00  0.00    +0.000 A 
ATOM     18  C   UNL     1       3.422   7.700  17.545  0.00  0.00    +0.000 A 
BRANCH  17  19
ATOM     19  C   UNL     1       4.852   5.938  16.485  0.00  0.00    +0.000 C 
ATOM     20  F   UNL     1       4.589   4.739  15.899  0.00  0.00    +0.000 F 
ATOM     21  F   UNL     1       4.946   6.834  15.462  0.00  0.00    +0.000 F 
ATOM     22  F   UNL     1       6.118   5.829  16.985  0.00  0.00    +0.000 F 
ENDBRANCH  17  19
ENDBRANCH   8  12
BRANCH   1  24
ATOM     23  O   UNL     1      -0.138  15.547  21.587  0.00  0.00    +0.000 OA
ATOM     24  S   UNL     1       0.986  14.751  21.140  0.00  0.00    +0.000 S 
ATOM     25  O   UNL     1       1.887  14.127  22.083  0.00  0.00    +0.000 OA
BRANCH  24  26
ATOM     26  N   UNL     1       1.947  15.728  20.087  0.00  0.00    +0.000 NA
ATOM     27  C   UNL     1       1.319  15.962  18.754  0.00  0.00    +0.000 C 
ATOM     28  C   UNL     1       2.152  16.943  17.938  0.00  0.00    +0.000 C 
ATOM     29  C   UNL     1       3.599  16.486  17.794  0.00  0.00    +0.000 C 
ATOM     30  C   UNL     1       4.210  16.163  19.152  0.00  0.00    +0.000 C 
ATOM     31  C   UNL     1       3.344  15.203  19.962  0.00  0.00    +0.000 C 
BRANCH  29  32
ATOM     32  O   UNL     1       3.695  15.372  16.910  0.00  0.00    +0.000 OA
ATOM     33  H   UNL     1       4.553  14.929  17.024  0.00  0.00    +0.000 HD
ENDBRANCH  29  32
ENDBRANCH  24  26
ENDBRANCH   1  24
BRANCH  10  34
ATOM     34  C   UNL     1      -2.402   9.846  17.483  0.00  0.00    +0.000 C 
ATOM     35  C   UNL     1      -3.362  10.815  16.802  0.00  0.00    +0.000 C 
ATOM     36  C   UNL     1      -2.714   9.747  15.993  0.00  0.00    +0.000 C 
ENDBRANCH  10  34
TORSDOF 6
ENDMDL
MODEL 7
REMARK VINA RESULT:      -8.6      5.730      8.995
REMARK  Name = 
REMARK  6 active torsions:
REMARK  status: ('A' for Active; 'I' for Inactive)
REMARK    1  A    between atoms: S_2  and  C_4
REMARK    2  A    between atoms: S_2  and  N_28
REMARK    3  A    between atoms: N_11  and  C_12
REMARK    4  A    between atoms: C_17  and  C_18
REMARK    5  A    between atoms: N_24  and  C_25
REMARK    6  A    between atoms: C_31  and  O_32
REMARK                            x       y       z     vdW  Elec       q    Type
REMARK                         _______ _______ _______ _____ _____    ______ ____
ROOT
ATOM      1  C   UNL     1       0.886   9.595  19.912  0.00  0.00    +0.000 A 
ATOM      2  C   UNL     1       0.447   8.866  21.020  0.00  0.00    +0.000 A 
ATOM      3  C   UNL     1       0.834   7.534  21.192  0.00  0.00    +0.000 A 
ATOM      4  C   UNL     1       1.682   6.968  20.225  0.00  0.00    +0.000 A 
ATOM      5  C   UNL     1       2.129   7.679  19.105  0.00  0.00    +0.000 A 
ATOM      6  C   UNL     1       1.721   9.022  18.939  0.00  0.00    +0.000 A 
ATOM      7  C   UNL     1       3.003   6.777  18.423  0.00  0.00    +0.000 A 
ATOM      8  N   UNL     1       3.713   7.074  17.303  0.00  0.00    +0.000 N 
ATOM      9  N   UNL     1       3.044   5.596  19.035  0.00  0.00    +0.000 NA
ATOM     10  N   UNL     1       2.299   5.742  20.129  0.00  0.00    +0.000 N 
ATOM     11  H   UNL     1       3.472   7.889  16.751  0.00  0.00    +0.000 HD
ENDROOT
BRANCH   8  12
ATOM     12  C   UNL     1       4.878   6.407  16.853  0.00  0.00    +0.000 A 
ATOM     13  C   UNL     1       6.111   6.643  17.468  0.00  0.00    +0.000 A 
ATOM     14  C   UNL     1       7.280   6.070  16.952  0.00  0.00    +0.000 A 
ATOM     15  C   UNL     1       7.227   5.273  15.810  0.00  0.00    +0.000 A 
ATOM     16  F   UNL     1       8.368   4.755  15.340  0.00  0.00    +0.000 F 
ATOM     17  C   UNL     1       6.025   5.028  15.166  0.00  0.00    +0.000 A 
ATOM     18  C   UNL     1       4.859   5.594  15.706  0.00  0.00    +0.000 A 
BRANCH  17  19
ATOM     19  C   UNL     1       5.935   4.208  13.917  0.00  0.00    +0.000 C 
ATOM     20  F   UNL     1       6.707   4.640  12.884  0.00  0.00    +0.000 F 
ATOM     21  F   UNL     1       6.296   2.909  14.127  0.00  0.00    +0.000 F 
ATOM     22  F   UNL     1       4.663   4.152  13.424  0.00  0.00    +0.000 F 
ENDBRANCH  17  19
ENDBRANCH   8  12
BRANCH   1  24
ATOM     23  O   UNL     1       0.006  11.709  21.135  0.00  0.00    +0.000 OA
ATOM     24  S   UNL     1       0.469  11.323  19.820  0.00  0.00    +0.000 S 
ATOM     25  O   UNL     1       1.552  12.024  19.168  0.00  0.00    +0.000 OA
BRANCH  24  26
ATOM     26  N   UNL     1      -0.884  11.365  18.744  0.00  0.00    +0.000 NA
ATOM     27  C   UNL     1      -2.187  11.592  19.436  0.00  0.00    +0.000 C 
ATOM     28  C   UNL     1      -3.307  11.760  18.417  0.00  0.00    +0.000 C 
ATOM     29  C   UNL     1      -3.390  10.579  17.456  0.00  0.00    +0.000 C 
ATOM     30  C   UNL     1      -2.036  10.295  16.818  0.00  0.00    +0.000 C 
ATOM     31  C   UNL     1      -0.925  10.161  17.855  0.00  0.00    +0.000 C 
BRANCH  29  32
ATOM     32  O   UNL     1      -3.901   9.423  18.113  0.00  0.00    +0.000 OA
ATOM     33  H   UNL     1      -4.736   9.636  18.562  0.00  0.00    +0.000 HD
ENDBRANCH  29  32
ENDBRANCH  24  26
ENDBRANCH   1  24
BRANCH  10  34
ATOM     34  C   UNL     1       2.250   4.688  21.129  0.00  0.00    +0.000 C 
ATOM     35  C   UNL     1       1.257   3.537  21.013  0.00  0.00    +0.000 C 
ATOM     36  C   UNL     1       2.703   3.274  20.783  0.00  0.00    +0.000 C 
ENDBRANCH  10  34
TORSDOF 6
ENDMDL
MODEL 8
REMARK VINA RESULT:      -8.6      6.078      9.547
REMARK  Name = 
REMARK  6 active torsions:
REMARK  status: ('A' for Active; 'I' for Inactive)
REMARK    1  A    between atoms: S_2  and  C_4
REMARK    2  A    between atoms: S_2  and  N_28
REMARK    3  A    between atoms: N_11  and  C_12
REMARK    4  A    between atoms: C_17  and  C_18
REMARK    5  A    between atoms: N_24  and  C_25
REMARK    6  A    between atoms: C_31  and  O_32
REMARK                            x       y       z     vdW  Elec       q    Type
REMARK                         _______ _______ _______ _____ _____    ______ ____
ROOT
ATOM      1  C   UNL     1       0.927  13.520  19.747  0.00  0.00    +0.000 A 
ATOM      2  C   UNL     1      -0.366  13.770  19.281  0.00  0.00    +0.000 A 
ATOM      3  C   UNL     1      -1.096  12.767  18.638  0.00  0.00    +0.000 A 
ATOM      4  C   UNL     1      -0.491  11.507  18.494  0.00  0.00    +0.000 A 
ATOM      5  C   UNL     1       0.805  11.236  18.949  0.00  0.00    +0.000 A 
ATOM      6  C   UNL     1       1.535  12.264  19.587  0.00  0.00    +0.000 A 
ATOM      7  C   UNL     1       1.009   9.850  18.667  0.00  0.00    +0.000 A 
ATOM      8  N   UNL     1       2.121   9.142  18.999  0.00  0.00    +0.000 N 
ATOM      9  N   UNL     1      -0.042   9.328  18.041  0.00  0.00    +0.000 NA
ATOM     10  N   UNL     1      -0.943  10.308  17.993  0.00  0.00    +0.000 N 
ATOM     11  H   UNL     1       2.973   9.625  19.256  0.00  0.00    +0.000 HD
ENDROOT
BRANCH   8  12
ATOM     12  C   UNL     1       2.203   7.735  19.140  0.00  0.00    +0.000 A 
ATOM     13  C   UNL     1       1.691   7.108  20.279  0.00  0.00    +0.000 A 
ATOM     14  C   UNL     1       1.871   5.732  20.470  0.00  0.00    +0.000 A 
ATOM     15  C   UNL     1       2.577   4.979  19.533  0.00  0.00    +0.000 A 
ATOM     16  F   UNL     1       2.739   3.669  19.758  0.00  0.00    +0.000 F 
ATOM     17  C   UNL     1       3.110   5.570  18.398  0.00  0.00    +0.000 A 
ATOM     18  C   UNL     1       2.905   6.945  18.212  0.00  0.00    +0.000 A 
BRANCH  17  19
ATOM     19  C   UNL     1       3.905   4.800  17.391  0.00  0.00    +0.000 C 
ATOM     20  F   UNL     1       4.991   4.147  17.885  0.00  0.00    +0.000 F 
ATOM     21  F   UNL     1       3.157   3.847  16.764  0.00  0.00    +0.000 F 
ATOM     22  F   UNL     1       4.382   5.597  16.390  0.00  0.00    +0.000 F 
ENDBRANCH  17  19
ENDBRANCH   8  12
BRANCH   1  24
ATOM     23  O   UNL     1       1.057  16.033  20.388  0.00  0.00    +0.000 OA
ATOM     24  S   UNL     1       1.752  14.796  20.675  0.00  0.00    +0.000 S 
ATOM     25  O   UNL     1       1.936  14.333  22.032  0.00  0.00    +0.000 OA
BRANCH  24  26
ATOM     26  N   UNL     1       3.319  14.884  19.951  0.00  0.00    +0.000 NA
ATOM     27  C   UNL     1       4.329  15.581  20.803  0.00  0.00    +0.000 C 
ATOM     28  C   UNL     1       5.711  15.494  20.167  0.00  0.00    +0.000 C 
ATOM     29  C   UNL     1       5.722  16.035  18.742  0.00  0.00    +0.000 C 
ATOM     30  C   UNL     1       4.632  15.385  17.900  0.00  0.00    +0.000 C 
ATOM     31  C   UNL     1       3.263  15.457  18.570  0.00  0.00    +0.000 C 
BRANCH  29  32
ATOM     32  O   UNL     1       5.598  17.455  18.736  0.00  0.00    +0.000 OA
ATOM     33  H   UNL     1       5.838  17.814  19.606  0.00  0.00    +0.000 HD
ENDBRANCH  29  32
ENDBRANCH  24  26
ENDBRANCH   1  24
BRANCH  10  34
ATOM     34  C   UNL     1      -2.290  10.043  17.514  0.00  0.00    +0.000 C 
ATOM     35  C   UNL     1      -3.046  11.070  16.681  0.00  0.00    +0.000 C 
ATOM     36  C   UNL     1      -2.552   9.828  16.028  0.00  0.00    +0.000 C 
ENDBRANCH  10  34
TORSDOF 6
ENDMDL
MODEL 9
REMARK VINA RESULT:      -8.6      5.608      9.478
REMARK  Name = 
REMARK  6 active torsions:
REMARK  status: ('A' for Active; 'I' for Inactive)
REMARK    1  A    between atoms: S_2  and  C_4
REMARK    2  A    between atoms: S_2  and  N_28
REMARK    3  A    between atoms: N_11  and  C_12
REMARK    4  A    between atoms: C_17  and  C_18
REMARK    5  A    between atoms: N_24  and  C_25
REMARK    6  A    between atoms: C_31  and  O_32
REMARK                            x       y       z     vdW  Elec       q    Type
REMARK                         _______ _______ _______ _____ _____    ______ ____
ROOT
ATOM      1  C   UNL     1       0.622  10.064  20.268  0.00  0.00    +0.000 A 
ATOM      2  C   UNL     1       0.111   9.269  21.297  0.00  0.00    +0.000 A 
ATOM      3  C   UNL     1       0.432   7.911  21.372  0.00  0.00    +0.000 A 
ATOM      4  C   UNL     1       1.290   7.386  20.391  0.00  0.00    +0.000 A 
ATOM      5  C   UNL     1       1.809   8.163  19.349  0.00  0.00    +0.000 A 
ATOM      6  C   UNL     1       1.467   9.532  19.280  0.00  0.00    +0.000 A 
ATOM      7  C   UNL     1       2.666   7.278  18.625  0.00  0.00    +0.000 A 
ATOM      8  N   UNL     1       3.431   7.631  17.557  0.00  0.00    +0.000 N 
ATOM      9  N   UNL     1       2.633   6.051  19.138  0.00  0.00    +0.000 NA
ATOM     10  N   UNL     1       1.854   6.144  20.215  0.00  0.00    +0.000 N 
ATOM     11  H   UNL     1       3.247   8.497  17.066  0.00  0.00    +0.000 HD
ENDROOT
BRANCH   8  12
ATOM     12  C   UNL     1       4.581   6.948  17.093  0.00  0.00    +0.000 A 
ATOM     13  C   UNL     1       4.659   6.514  15.767  0.00  0.00    +0.000 A 
ATOM     14  C   UNL     1       5.746   5.742  15.338  0.00  0.00    +0.000 A 
ATOM     15  C   UNL     1       6.753   5.387  16.234  0.00  0.00    +0.000 A 
ATOM     16  F   UNL     1       7.768   4.637  15.789  0.00  0.00    +0.000 F 
ATOM     17  C   UNL     1       6.702   5.789  17.560  0.00  0.00    +0.000 A 
ATOM     18  C   UNL     1       5.616   6.577  17.970  0.00  0.00    +0.000 A 
BRANCH  17  19
ATOM     19  C   UNL     1       7.745   5.395  18.558  0.00  0.00    +0.000 C 
ATOM     20  F   UNL     1       8.496   4.314  18.216  0.00  0.00    +0.000 F 
ATOM     21  F   UNL     1       8.635   6.400  18.796  0.00  0.00    +0.000 F 
ATOM     22  F   UNL     1       7.207   5.095  19.777  0.00  0.00    +0.000 F 
ENDBRANCH  17  19
ENDBRANCH   8  12
BRANCH   1  24
ATOM     23  O   UNL     1       0.893  12.326  21.514  0.00  0.00    +0.000 OA
ATOM     24  S   UNL     1       0.286  11.812  20.304  0.00  0.00    +0.000 S 
ATOM     25  O   UNL     1       0.603  12.369  19.008  0.00  0.00    +0.000 OA
BRANCH  24  26
ATOM     26  N   UNL     1      -1.430  11.898  20.489  0.00  0.00    +0.000 NA
ATOM     27  C   UNL     1      -2.148  12.237  19.225  0.00  0.00    +0.000 C 
ATOM     28  C   UNL     1      -3.656  12.155  19.431  0.00  0.00    +0.000 C 
ATOM     29  C   UNL     1      -4.126  13.032  20.585  0.00  0.00    +0.000 C 
ATOM     30  C   UNL     1      -3.329  12.746  21.852  0.00  0.00    +0.000 C 
ATOM     31  C   UNL     1      -1.823  12.804  21.614  0.00  0.00    +0.000 C 
BRANCH  29  32
ATOM     32  O   UNL     1      -4.056  14.413  20.236  0.00  0.00    +0.000 OA
ATOM     33  H   UNL     1      -4.903  14.705  19.861  0.00  0.00    +0.000 HD
ENDBRANCH  29  32
ENDBRANCH  24  26
ENDBRANCH   1  24
BRANCH  10  34
ATOM     34  C   UNL     1       1.721   5.016  21.123  0.00  0.00    +0.000 C 
ATOM     35  C   UNL     1       1.107   3.700  20.660  0.00  0.00    +0.000 C 
ATOM     36  C   UNL     1       2.570   3.764  20.928  0.00  0.00    +0.000 C 
ENDBRANCH  10  34
TORSDOF 6
ENDMDL
