MODEL 1
REMARK VINA RESULT:      -8.4      0.000      0.000
REMARK  Name = 
REMARK  11 active torsions:
REMARK  status: ('A' for Active; 'I' for Inactive)
REMARK    1  A    between atoms: C_1  and  C_2
REMARK    2  A    between atoms: C_3  and  N_4
REMARK    3  A    between atoms: N_4  and  C_5
REMARK    4  A    between atoms: C_6  and  C_7
REMARK    5  A    between atoms: C_12  and  C_13
REMARK    6  A    between atoms: C_14  and  C_15
REMARK    7  A    between atoms: C_18  and  C_19
REMARK    8  A    between atoms: C_19  and  N_20
REMARK    9  A    between atoms: C_23  and  N_24
REMARK   10  A    between atoms: N_24  and  C_25
REMARK   11  A    between atoms: N_24  and  C_26
REMARK                            x       y       z     vdW  Elec       q    Type
REMARK                         _______ _______ _______ _____ _____    ______ ____
ROOT
ATOM      1  C   UNL     1       5.163   5.199  16.524  0.00  0.00    +0.000 A 
ATOM      2  C   UNL     1       6.184   4.983  15.562  0.00  0.00    +0.000 A 
ATOM      3  C   UNL     1       7.279   5.830  15.538  0.00  0.00    +0.000 A 
ATOM      4  N   UNL     1       7.423   6.909  16.328  0.00  0.00    +0.000 NA
ATOM      5  C   UNL     1       6.406   7.157  17.181  0.00  0.00    +0.000 A 
ATOM      6  C   UNL     1       5.252   6.370  17.323  0.00  0.00    +0.000 A 
ENDROOT
BRANCH   1   7
ATOM      7  N   UNL     1       4.096   4.247  16.664  0.00  0.00    +0.000 N 
ATOM      8  H   UNL     1       3.242   4.573  16.212  0.00  0.00    +0.000 HD
BRANCH   7  11
ATOM      9  C   UNL     1       1.245   4.390  17.564  0.00  0.00    +0.000 C 
ATOM     10  C   UNL     1       2.362   3.811  18.384  0.00  0.00    +0.000 A 
ATOM     11  C   UNL     1       3.689   3.664  17.909  0.00  0.00    +0.000 A 
ATOM     12  C   UNL     1       4.645   2.992  18.701  0.00  0.00    +0.000 A 
ATOM     13  C   UNL     1       4.330   2.415  19.928  0.00  0.00    +0.000 A 
ATOM     14  C   UNL     1       3.051   2.656  20.418  0.00  0.00    +0.000 A 
ATOM     15  N   UNL     1       2.491   2.296  21.622  0.00  0.00    +0.000 N 
ATOM     16  C   UNL     1       1.219   2.787  21.717  0.00  0.00    +0.000 A 
ATOM     17  C   UNL     1       0.927   3.420  20.531  0.00  0.00    +0.000 A 
ATOM     18  C   UNL     1       2.081   3.348  19.696  0.00  0.00    +0.000 A 
ATOM     19  H   UNL     1       2.973   1.777  22.342  0.00  0.00    +0.000 HD
ENDBRANCH   7  11
ENDBRANCH   1   7
BRANCH   2  20
ATOM     20  C   UNL     1       6.179   3.892  14.643  0.00  0.00    +0.000 C 
ATOM     21  N   UNL     1       6.186   3.039  13.846  0.00  0.00    +0.000 NA
ENDBRANCH   2  20
BRANCH   6  22
ATOM     22  C   UNL     1       4.302   6.843  18.344  0.00  0.00    +0.000 C 
ATOM     23  C   UNL     1       3.099   7.381  18.093  0.00  0.00    +0.000 C 
BRANCH  23  24
ATOM     24  C   UNL     1       2.217   7.940  19.126  0.00  0.00    +0.000 A 
ATOM     25  C   UNL     1       1.966   7.187  20.266  0.00  0.00    +0.000 A 
ATOM     26  C   UNL     1       1.099   7.693  21.228  0.00  0.00    +0.000 A 
ATOM     27  C   UNL     1       0.511   8.941  21.027  0.00  0.00    +0.000 A 
ATOM     28  C   UNL     1       0.827   9.627  19.857  0.00  0.00    +0.000 A 
ATOM     29  N   UNL     1       1.664   9.156  18.907  0.00  0.00    +0.000 NA
BRANCH  27  30
ATOM     30  C   UNL     1      -0.438   9.524  22.037  0.00  0.00    +0.000 C 
BRANCH  30  31
ATOM     31  N   UNL     1      -0.698  10.964  21.830  0.00  0.00    +0.000 NA
ATOM     32  C   UNL     1      -1.638  11.173  20.714  0.00  0.00    +0.000 C 
ATOM     33  C   UNL     1      -2.067  12.633  20.567  0.00  0.00    +0.000 C 
ATOM     34  C   UNL     1      -2.697  13.181  21.861  0.00  0.00    +0.000 C 
ATOM     35  C   UNL     1      -1.612  13.008  22.944  0.00  0.00    +0.000 C 
ATOM     36  C   UNL     1      -1.176  11.552  23.092  0.00  0.00    +0.000 C 
BRANCH  34  37
ATOM     37  N   UNL     1      -3.994  12.534  22.210  0.00  0.00    +0.000 NA
ATOM     38  C   UNL     1      -4.569  13.082  23.445  0.00  0.00    +0.000 C 
ATOM     39  C   UNL     1      -4.990  12.684  21.140  0.00  0.00    +0.000 C 
ENDBRANCH  34  37
ENDBRANCH  30  31
ENDBRANCH  27  30
ENDBRANCH  23  24
ENDBRANCH   6  22
TORSDOF 8
ENDMDL
MODEL 2
REMARK VINA RESULT:      -8.0      6.157     10.244
REMARK  Name = 
REMARK  11 active torsions:
REMARK  status: ('A' for Active; 'I' for Inactive)
REMARK    1  A    between atoms: C_1  and  C_2
REMARK    2  A    between atoms: C_3  and  N_4
REMARK    3  A    between atoms: N_4  and  C_5
REMARK    4  A    between atoms: C_6  and  C_7
REMARK    5  A    between atoms: C_12  and  C_13
REMARK    6  A    between atoms: C_14  and  C_15
REMARK    7  A    between atoms: C_18  and  C_19
REMARK    8  A    between atoms: C_19  and  N_20
REMARK    9  A    between atoms: C_23  and  N_24
REMARK   10  A    between atoms: N_24  and  C_25
REMARK   11  A    between atoms: N_24  and  C_26
REMARK                            x       y       z     vdW  Elec       q    Type
REMARK                         _______ _______ _______ _____ _____    ______ ____
ROOT
ATOM      1  C   UNL     1       9.806  12.987  19.241  0.00  0.00    +0.000 A 
ATOM      2  C   UNL     1      10.658  14.118  19.147  0.00  0.00    +0.000 A 
ATOM      3  C   UNL     1      11.843  14.013  18.439  0.00  0.00    +0.000 A 
ATOM      4  N   UNL     1      12.296  12.877  17.879  0.00  0.00    +0.000 NA
ATOM      5  C   UNL     1      11.520  11.784  18.048  0.00  0.00    +0.000 A 
ATOM      6  C   UNL     1      10.289  11.757  18.721  0.00  0.00    +0.000 A 
ENDROOT
BRANCH   1   7
ATOM      7  N   UNL     1       8.506  13.116  19.840  0.00  0.00    +0.000 N 
ATOM      8  H   UNL     1       8.009  13.933  19.484  0.00  0.00    +0.000 HD
BRANCH   7  11
ATOM      9  C   UNL     1       6.799  15.202  21.143  0.00  0.00    +0.000 C 
ATOM     10  C   UNL     1       7.530  14.121  21.888  0.00  0.00    +0.000 A 
ATOM     11  C   UNL     1       8.258  13.084  21.251  0.00  0.00    +0.000 A 
ATOM     12  C   UNL     1       8.805  12.038  22.024  0.00  0.00    +0.000 A 
ATOM     13  C   UNL     1       8.622  11.948  23.401  0.00  0.00    +0.000 A 
ATOM     14  C   UNL     1       7.990  13.024  24.016  0.00  0.00    +0.000 A 
ATOM     15  N   UNL     1       7.751  13.254  25.351  0.00  0.00    +0.000 N 
ATOM     16  C   UNL     1       7.149  14.469  25.520  0.00  0.00    +0.000 A 
ATOM     17  C   UNL     1       6.937  15.006  24.273  0.00  0.00    +0.000 A 
ATOM     18  C   UNL     1       7.467  14.102  23.306  0.00  0.00    +0.000 A 
ATOM     19  H   UNL     1       8.023  12.626  26.095  0.00  0.00    +0.000 HD
ENDBRANCH   7  11
ENDBRANCH   1   7
BRANCH   2  20
ATOM     20  C   UNL     1      10.332  15.395  19.693  0.00  0.00    +0.000 C 
ATOM     21  N   UNL     1      10.010  16.434  20.116  0.00  0.00    +0.000 NA
ENDBRANCH   2  20
BRANCH   6  22
ATOM     22  C   UNL     1       9.626  10.442  18.744  0.00  0.00    +0.000 C 
ATOM     23  C   UNL     1       8.789   9.981  17.802  0.00  0.00    +0.000 C 
BRANCH  23  24
ATOM     24  C   UNL     1       8.059   8.709  17.903  0.00  0.00    +0.000 A 
ATOM     25  C   UNL     1       8.524   7.744  18.788  0.00  0.00    +0.000 A 
ATOM     26  C   UNL     1       7.862   6.523  18.856  0.00  0.00    +0.000 A 
ATOM     27  C   UNL     1       6.752   6.301  18.043  0.00  0.00    +0.000 A 
ATOM     28  C   UNL     1       6.356   7.330  17.192  0.00  0.00    +0.000 A 
ATOM     29  N   UNL     1       6.982   8.524  17.104  0.00  0.00    +0.000 NA
BRANCH  27  30
ATOM     30  C   UNL     1       6.011   4.994  18.079  0.00  0.00    +0.000 C 
BRANCH  30  31
ATOM     31  N   UNL     1       4.543   5.153  18.007  0.00  0.00    +0.000 NA
ATOM     32  C   UNL     1       3.909   3.935  17.471  0.00  0.00    +0.000 C 
ATOM     33  C   UNL     1       2.383   3.987  17.533  0.00  0.00    +0.000 C 
ATOM     34  C   UNL     1       1.872   4.227  18.966  0.00  0.00    +0.000 C 
ATOM     35  C   UNL     1       2.509   5.562  19.404  0.00  0.00    +0.000 C 
ATOM     36  C   UNL     1       4.034   5.518  19.339  0.00  0.00    +0.000 C 
BRANCH  34  37
ATOM     37  N   UNL     1       2.159   3.098  19.896  0.00  0.00    +0.000 NA
ATOM     38  C   UNL     1       1.498   3.271  21.196  0.00  0.00    +0.000 C 
ATOM     39  C   UNL     1       1.736   1.805  19.341  0.00  0.00    +0.000 C 
ENDBRANCH  34  37
ENDBRANCH  30  31
ENDBRANCH  27  30
ENDBRANCH  23  24
ENDBRANCH   6  22
TORSDOF 8
ENDMDL
MODEL 3
REMARK VINA RESULT:      -7.9      1.019      1.358
REMARK  Name = 
REMARK  11 active torsions:
REMARK  status: ('A' for Active; 'I' for Inactive)
REMARK    1  A    between atoms: C_1  and  C_2
REMARK    2  A    between atoms: C_3  and  N_4
REMARK    3  A    between atoms: N_4  and  C_5
REMARK    4  A    between atoms: C_6  and  C_7
REMARK    5  A    between atoms: C_12  and  C_13
REMARK    6  A    between atoms: C_14  and  C_15
REMARK    7  A    between atoms: C_18  and  C_19
REMARK    8  A    between atoms: C_19  and  N_20
REMARK    9  A    between atoms: C_23  and  N_24
REMARK   10  A    between atoms: N_24  and  C_25
REMARK   11  A    between atoms: N_24  and  C_26
REMARK                            x       y       z     vdW  Elec       q    Type
REMARK                         _______ _______ _______ _____ _____    ______ ____
ROOT
ATOM      1  C   UNL     1       5.136   5.451  16.637  0.00  0.00    +0.000 A 
ATOM      2  C   UNL     1       6.218   5.102  15.789  0.00  0.00    +0.000 A 
ATOM      3  C   UNL     1       7.356   5.892  15.786  0.00  0.00    +0.000 A 
ATOM      4  N   UNL     1       7.491   7.031  16.487  0.00  0.00    +0.000 NA
ATOM      5  C   UNL     1       6.423   7.403  17.224  0.00  0.00    +0.000 A 
ATOM      6  C   UNL     1       5.221   6.685  17.335  0.00  0.00    +0.000 A 
ENDROOT
BRANCH   1   7
ATOM      7  N   UNL     1       4.012   4.565  16.768  0.00  0.00    +0.000 N 
ATOM      8  H   UNL     1       3.159   4.986  16.399  0.00  0.00    +0.000 HD
BRANCH   7  11
ATOM      9  C   UNL     1       1.156   4.513  17.663  0.00  0.00    +0.000 C 
ATOM     10  C   UNL     1       2.302   3.962  18.462  0.00  0.00    +0.000 A 
ATOM     11  C   UNL     1       3.637   3.908  17.985  0.00  0.00    +0.000 A 
ATOM     12  C   UNL     1       4.627   3.256  18.751  0.00  0.00    +0.000 A 
ATOM     13  C   UNL     1       4.343   2.611  19.951  0.00  0.00    +0.000 A 
ATOM     14  C   UNL     1       3.052   2.759  20.447  0.00  0.00    +0.000 A 
ATOM     15  N   UNL     1       2.511   2.317  21.632  0.00  0.00    +0.000 N 
ATOM     16  C   UNL     1       1.214   2.734  21.743  0.00  0.00    +0.000 A 
ATOM     17  C   UNL     1       0.889   3.400  20.585  0.00  0.00    +0.000 A 
ATOM     18  C   UNL     1       2.046   3.427  19.752  0.00  0.00    +0.000 A 
ATOM     19  H   UNL     1       3.021   1.795  22.331  0.00  0.00    +0.000 HD
ENDBRANCH   7  11
ENDBRANCH   1   7
BRANCH   2  20
ATOM     20  C   UNL     1       6.231   3.932  14.973  0.00  0.00    +0.000 C 
ATOM     21  N   UNL     1       6.226   3.010  14.257  0.00  0.00    +0.000 NA
ENDBRANCH   2  20
BRANCH   6  22
ATOM     22  C   UNL     1       4.218   7.293  18.226  0.00  0.00    +0.000 C 
ATOM     23  C   UNL     1       2.991   7.687  17.854  0.00  0.00    +0.000 C 
BRANCH  23  24
ATOM     24  C   UNL     1       2.048   8.386  18.739  0.00  0.00    +0.000 A 
ATOM     25  C   UNL     1       1.362   9.487  18.243  0.00  0.00    +0.000 A 
ATOM     26  C   UNL     1       0.501  10.177  19.088  0.00  0.00    +0.000 A 
ATOM     27  C   UNL     1       0.344   9.745  20.405  0.00  0.00    +0.000 A 
ATOM     28  C   UNL     1       1.068   8.626  20.810  0.00  0.00    +0.000 A 
ATOM     29  N   UNL     1       1.913   7.940  20.010  0.00  0.00    +0.000 NA
BRANCH  27  30
ATOM     30  C   UNL     1      -0.571  10.464  21.356  0.00  0.00    +0.000 C 
BRANCH  30  31
ATOM     31  N   UNL     1      -0.787  11.882  20.997  0.00  0.00    +0.000 NA
ATOM     32  C   UNL     1      -2.223  12.169  20.832  0.00  0.00    +0.000 C 
ATOM     33  C   UNL     1      -2.510  13.655  20.626  0.00  0.00    +0.000 C 
ATOM     34  C   UNL     1      -1.957  14.515  21.778  0.00  0.00    +0.000 C 
ATOM     35  C   UNL     1      -0.444  14.222  21.812  0.00  0.00    +0.000 C 
ATOM     36  C   UNL     1      -0.151  12.736  22.014  0.00  0.00    +0.000 C 
BRANCH  34  37
ATOM     37  N   UNL     1      -2.640  14.269  23.081  0.00  0.00    +0.000 NA
ATOM     38  C   UNL     1      -2.077  15.089  24.162  0.00  0.00    +0.000 C 
ATOM     39  C   UNL     1      -4.081  14.542  23.009  0.00  0.00    +0.000 C 
ENDBRANCH  34  37
ENDBRANCH  30  31
ENDBRANCH  27  30
ENDBRANCH  23  24
ENDBRANCH   6  22
TORSDOF 8
ENDMDL
MODEL 4
REMARK VINA RESULT:      -7.8      2.801      5.383
REMARK  Name = 
REMARK  11 active torsions:
REMARK  status: ('A' for Active; 'I' for Inactive)
REMARK    1  A    between atoms: C_1  and  C_2
REMARK    2  A    between atoms: C_3  and  N_4
REMARK    3  A    between atoms: N_4  and  C_5
REMARK    4  A    between atoms: C_6  and  C_7
REMARK    5  A    between atoms: C_12  and  C_13
REMARK    6  A    between atoms: C_14  and  C_15
REMARK    7  A    between atoms: C_18  and  C_19
REMARK    8  A    between atoms: C_19  and  N_20
REMARK    9  A    between atoms: C_23  and  N_24
REMARK   10  A    between atoms: N_24  and  C_25
REMARK   11  A    between atoms: N_24  and  C_26
REMARK                            x       y       z     vdW  Elec       q    Type
REMARK                         _______ _______ _______ _____ _____    ______ ____
ROOT
ATOM      1  C   UNL     1       3.548   4.199  19.864  0.00  0.00    +0.000 A 
ATOM      2  C   UNL     1       3.367   2.842  20.235  0.00  0.00    +0.000 A 
ATOM      3  C   UNL     1       2.088   2.310  20.247  0.00  0.00    +0.000 A 
ATOM      4  N   UNL     1       0.970   3.014  19.996  0.00  0.00    +0.000 NA
ATOM      5  C   UNL     1       1.145   4.326  19.729  0.00  0.00    +0.000 A 
ATOM      6  C   UNL     1       2.382   4.985  19.663  0.00  0.00    +0.000 A 
ENDROOT
BRANCH   1   7
ATOM      7  N   UNL     1       4.875   4.727  19.700  0.00  0.00    +0.000 N 
ATOM      8  H   UNL     1       5.021   5.557  20.275  0.00  0.00    +0.000 HD
BRANCH   7  11
ATOM      9  C   UNL     1       3.927   3.364  17.208  0.00  0.00    +0.000 C 
ATOM     10  C   UNL     1       5.102   4.298  17.266  0.00  0.00    +0.000 A 
ATOM     11  C   UNL     1       5.482   5.009  18.432  0.00  0.00    +0.000 A 
ATOM     12  C   UNL     1       6.521   5.962  18.362  0.00  0.00    +0.000 A 
ATOM     13  C   UNL     1       7.169   6.278  17.172  0.00  0.00    +0.000 A 
ATOM     14  C   UNL     1       6.849   5.501  16.064  0.00  0.00    +0.000 A 
ATOM     15  N   UNL     1       7.381   5.521  14.795  0.00  0.00    +0.000 N 
ATOM     16  C   UNL     1       6.810   4.544  14.029  0.00  0.00    +0.000 A 
ATOM     17  C   UNL     1       5.848   3.925  14.791  0.00  0.00    +0.000 A 
ATOM     18  C   UNL     1       5.862   4.519  16.087  0.00  0.00    +0.000 A 
ATOM     19  H   UNL     1       8.118   6.145  14.496  0.00  0.00    +0.000 HD
ENDBRANCH   7  11
ENDBRANCH   1   7
BRANCH   2  20
ATOM     20  C   UNL     1       4.446   1.960  20.542  0.00  0.00    +0.000 C 
ATOM     21  N   UNL     1       5.358   1.259  20.742  0.00  0.00    +0.000 NA
ENDBRANCH   2  20
BRANCH   6  22
ATOM     22  C   UNL     1       2.303   6.417  19.327  0.00  0.00    +0.000 C 
ATOM     23  C   UNL     1       1.752   7.364  20.101  0.00  0.00    +0.000 C 
BRANCH  23  24
ATOM     24  C   UNL     1       1.593   8.768  19.696  0.00  0.00    +0.000 A 
ATOM     25  C   UNL     1       1.016   9.657  20.592  0.00  0.00    +0.000 A 
ATOM     26  C   UNL     1       0.825  10.977  20.199  0.00  0.00    +0.000 A 
ATOM     27  C   UNL     1       1.222  11.373  18.922  0.00  0.00    +0.000 A 
ATOM     28  C   UNL     1       1.798  10.412  18.095  0.00  0.00    +0.000 A 
ATOM     29  N   UNL     1       1.993   9.124  18.452  0.00  0.00    +0.000 NA
BRANCH  27  30
ATOM     30  C   UNL     1       1.028  12.787  18.451  0.00  0.00    +0.000 C 
BRANCH  30  31
ATOM     31  N   UNL     1       0.720  13.730  19.547  0.00  0.00    +0.000 NA
ATOM     32  C   UNL     1       1.719  14.813  19.604  0.00  0.00    +0.000 C 
ATOM     33  C   UNL     1       1.354  15.902  20.612  0.00  0.00    +0.000 C 
ATOM     34  C   UNL     1      -0.030  16.513  20.324  0.00  0.00    +0.000 C 
ATOM     35  C   UNL     1      -1.016  15.328  20.378  0.00  0.00    +0.000 C 
ATOM     36  C   UNL     1      -0.652  14.233  19.376  0.00  0.00    +0.000 C 
BRANCH  34  37
ATOM     37  N   UNL     1      -0.088  17.275  19.043  0.00  0.00    +0.000 NA
ATOM     38  C   UNL     1      -1.441  17.765  18.752  0.00  0.00    +0.000 C 
ATOM     39  C   UNL     1       0.821  18.429  19.047  0.00  0.00    +0.000 C 
ENDBRANCH  34  37
ENDBRANCH  30  31
ENDBRANCH  27  30
ENDBRANCH  23  24
ENDBRANCH   6  22
TORSDOF 8
ENDMDL
MODEL 5
REMARK VINA RESULT:      -7.8      3.265      5.728
REMARK  Name = 
REMARK  11 active torsions:
REMARK  status: ('A' for Active; 'I' for Inactive)
REMARK    1  A    between atoms: C_1  and  C_2
REMARK    2  A    between atoms: C_3  and  N_4
REMARK    3  A    between atoms: N_4  and  C_5
REMARK    4  A    between atoms: C_6  and  C_7
REMARK    5  A    between atoms: C_12  and  C_13
REMARK    6  A    between atoms: C_14  and  C_15
REMARK    7  A    between atoms: C_18  and  C_19
REMARK    8  A    between atoms: C_19  and  N_20
REMARK    9  A    between atoms: C_23  and  N_24
REMARK   10  A    between atoms: N_24  and  C_25
REMARK   11  A    between atoms: N_24  and  C_26
REMARK                            x       y       z     vdW  Elec       q    Type
REMARK                         _______ _______ _______ _____ _____    ______ ____
ROOT
ATOM      1  C   UNL     1       3.482   4.152  19.795  0.00  0.00    +0.000 A 
ATOM      2  C   UNL     1       3.327   2.788  20.156  0.00  0.00    +0.000 A 
ATOM      3  C   UNL     1       2.062   2.224  20.131  0.00  0.00    +0.000 A 
ATOM      4  N   UNL     1       0.934   2.900  19.854  0.00  0.00    +0.000 NA
ATOM      5  C   UNL     1       1.081   4.217  19.597  0.00  0.00    +0.000 A 
ATOM      6  C   UNL     1       2.302   4.908  19.566  0.00  0.00    +0.000 A 
ENDROOT
BRANCH   1   7
ATOM      7  N   UNL     1       4.799   4.714  19.668  0.00  0.00    +0.000 N 
ATOM      8  H   UNL     1       4.903   5.555  20.236  0.00  0.00    +0.000 HD
BRANCH   7  11
ATOM      9  C   UNL     1       3.860   3.422  17.136  0.00  0.00    +0.000 C 
ATOM     10  C   UNL     1       5.062   4.318  17.232  0.00  0.00    +0.000 A 
ATOM     11  C   UNL     1       5.440   4.999  18.417  0.00  0.00    +0.000 A 
ATOM     12  C   UNL     1       6.508   5.920  18.384  0.00  0.00    +0.000 A 
ATOM     13  C   UNL     1       7.191   6.235  17.212  0.00  0.00    +0.000 A 
ATOM     14  C   UNL     1       6.869   5.486  16.085  0.00  0.00    +0.000 A 
ATOM     15  N   UNL     1       7.427   5.510  14.828  0.00  0.00    +0.000 N 
ATOM     16  C   UNL     1       6.842   4.564  14.034  0.00  0.00    +0.000 A 
ATOM     17  C   UNL     1       5.846   3.962  14.766  0.00  0.00    +0.000 A 
ATOM     18  C   UNL     1       5.852   4.535  16.072  0.00  0.00    +0.000 A 
ATOM     19  H   UNL     1       8.188   6.115  14.554  0.00  0.00    +0.000 HD
ENDBRANCH   7  11
ENDBRANCH   1   7
BRANCH   2  20
ATOM     20  C   UNL     1       4.420   1.934  20.487  0.00  0.00    +0.000 C 
ATOM     21  N   UNL     1       5.350   1.284  20.762  0.00  0.00    +0.000 NA
ENDBRANCH   2  20
BRANCH   6  22
ATOM     22  C   UNL     1       2.195   6.340  19.235  0.00  0.00    +0.000 C 
ATOM     23  C   UNL     1       1.783   7.300  20.076  0.00  0.00    +0.000 C 
BRANCH  23  24
ATOM     24  C   UNL     1       1.585   8.704  19.688  0.00  0.00    +0.000 A 
ATOM     25  C   UNL     1       2.093   9.134  18.469  0.00  0.00    +0.000 A 
ATOM     26  C   UNL     1       1.945  10.470  18.115  0.00  0.00    +0.000 A 
ATOM     27  C   UNL     1       1.289  11.339  18.986  0.00  0.00    +0.000 A 
ATOM     28  C   UNL     1       0.807  10.815  20.183  0.00  0.00    +0.000 A 
ATOM     29  N   UNL     1       0.940   9.522  20.551  0.00  0.00    +0.000 NA
BRANCH  27  30
ATOM     30  C   UNL     1       1.113  12.793  18.647  0.00  0.00    +0.000 C 
BRANCH  30  31
ATOM     31  N   UNL     1       2.338  13.594  18.859  0.00  0.00    +0.000 NA
ATOM     32  C   UNL     1       2.192  14.939  18.274  0.00  0.00    +0.000 C 
ATOM     33  C   UNL     1       3.365  15.860  18.610  0.00  0.00    +0.000 C 
ATOM     34  C   UNL     1       3.573  15.995  20.130  0.00  0.00    +0.000 C 
ATOM     35  C   UNL     1       3.810  14.558  20.636  0.00  0.00    +0.000 C 
ATOM     36  C   UNL     1       2.644  13.631  20.298  0.00  0.00    +0.000 C 
BRANCH  34  37
ATOM     37  N   UNL     1       2.452  16.693  20.823  0.00  0.00    +0.000 NA
ATOM     38  C   UNL     1       2.681  16.803  22.270  0.00  0.00    +0.000 C 
ATOM     39  C   UNL     1       2.233  18.045  20.294  0.00  0.00    +0.000 C 
ENDBRANCH  34  37
ENDBRANCH  30  31
ENDBRANCH  27  30
ENDBRANCH  23  24
ENDBRANCH   6  22
TORSDOF 8
ENDMDL
MODEL 6
REMARK VINA RESULT:      -7.8      3.064      5.476
REMARK  Name = 
REMARK  11 active torsions:
REMARK  status: ('A' for Active; 'I' for Inactive)
REMARK    1  A    between atoms: C_1  and  C_2
REMARK    2  A    between atoms: C_3  and  N_4
REMARK    3  A    between atoms: N_4  and  C_5
REMARK    4  A    between atoms: C_6  and  C_7
REMARK    5  A    between atoms: C_12  and  C_13
REMARK    6  A    between atoms: C_14  and  C_15
REMARK    7  A    between atoms: C_18  and  C_19
REMARK    8  A    between atoms: C_19  and  N_20
REMARK    9  A    between atoms: C_23  and  N_24
REMARK   10  A    between atoms: N_24  and  C_25
REMARK   11  A    between atoms: N_24  and  C_26
REMARK                            x       y       z     vdW  Elec       q    Type
REMARK                         _______ _______ _______ _____ _____    ______ ____
ROOT
ATOM      1  C   UNL     1       3.239   4.481  20.126  0.00  0.00    +0.000 A 
ATOM      2  C   UNL     1       3.179   3.066  20.206  0.00  0.00    +0.000 A 
ATOM      3  C   UNL     1       1.944   2.439  20.165  0.00  0.00    +0.000 A 
ATOM      4  N   UNL     1       0.765   3.086  20.126  0.00  0.00    +0.000 NA
ATOM      5  C   UNL     1       0.830   4.434  20.139  0.00  0.00    +0.000 A 
ATOM      6  C   UNL     1       2.010   5.192  20.155  0.00  0.00    +0.000 A 
ENDROOT
BRANCH   1   7
ATOM      7  N   UNL     1       4.512   5.139  20.015  0.00  0.00    +0.000 N 
ATOM      8  H   UNL     1       4.472   6.094  20.373  0.00  0.00    +0.000 HD
BRANCH   7  11
ATOM      9  C   UNL     1       3.235   4.719  17.340  0.00  0.00    +0.000 C 
ATOM     10  C   UNL     1       4.710   4.906  17.552  0.00  0.00    +0.000 A 
ATOM     11  C   UNL     1       5.291   5.198  18.812  0.00  0.00    +0.000 A 
ATOM     12  C   UNL     1       6.670   5.485  18.897  0.00  0.00    +0.000 A 
ATOM     13  C   UNL     1       7.493   5.543  17.777  0.00  0.00    +0.000 A 
ATOM     14  C   UNL     1       6.926   5.158  16.566  0.00  0.00    +0.000 A 
ATOM     15  N   UNL     1       7.507   5.032  15.326  0.00  0.00    +0.000 N 
ATOM     16  C   UNL     1       6.592   4.571  14.421  0.00  0.00    +0.000 A 
ATOM     17  C   UNL     1       5.385   4.459  15.069  0.00  0.00    +0.000 A 
ATOM     18  C   UNL     1       5.580   4.826  16.433  0.00  0.00    +0.000 A 
ATOM     19  H   UNL     1       8.481   5.217  15.132  0.00  0.00    +0.000 HD
ENDBRANCH   7  11
ENDBRANCH   1   7
BRANCH   2  20
ATOM     20  C   UNL     1       4.335   2.232  20.264  0.00  0.00    +0.000 C 
ATOM     21  N   UNL     1       5.247   1.507  20.340  0.00  0.00    +0.000 NA
ENDBRANCH   2  20
BRANCH   6  22
ATOM     22  C   UNL     1       1.809   6.652  20.139  0.00  0.00    +0.000 C 
ATOM     23  C   UNL     1       1.130   7.349  21.062  0.00  0.00    +0.000 C 
BRANCH  23  24
ATOM     24  C   UNL     1       0.855   8.790  20.966  0.00  0.00    +0.000 A 
ATOM     25  C   UNL     1       0.297   9.435  22.062  0.00  0.00    +0.000 A 
ATOM     26  C   UNL     1      -0.003  10.789  21.962  0.00  0.00    +0.000 A 
ATOM     27  C   UNL     1       0.268  11.463  20.771  0.00  0.00    +0.000 A 
ATOM     28  C   UNL     1       0.835  10.734  19.729  0.00  0.00    +0.000 A 
ATOM     29  N   UNL     1       1.134   9.419  19.799  0.00  0.00    +0.000 NA
BRANCH  27  30
ATOM     30  C   UNL     1      -0.046  12.924  20.616  0.00  0.00    +0.000 C 
BRANCH  30  31
ATOM     31  N   UNL     1       1.034  13.687  19.956  0.00  0.00    +0.000 NA
ATOM     32  C   UNL     1       0.492  14.870  19.263  0.00  0.00    +0.000 C 
ATOM     33  C   UNL     1       1.586  15.780  18.705  0.00  0.00    +0.000 C 
ATOM     34  C   UNL     1       2.562  16.246  19.801  0.00  0.00    +0.000 C 
ATOM     35  C   UNL     1       3.146  14.951  20.401  0.00  0.00    +0.000 C 
ATOM     36  C   UNL     1       2.057  14.034  20.956  0.00  0.00    +0.000 C 
BRANCH  34  37
ATOM     37  N   UNL     1       1.933  17.140  20.816  0.00  0.00    +0.000 NA
ATOM     38  C   UNL     1       2.885  17.549  21.857  0.00  0.00    +0.000 C 
ATOM     39  C   UNL     1       1.375  18.356  20.209  0.00  0.00    +0.000 C 
ENDBRANCH  34  37
ENDBRANCH  30  31
ENDBRANCH  27  30
ENDBRANCH  23  24
ENDBRANCH   6  22
TORSDOF 8
ENDMDL
MODEL 7
REMARK VINA RESULT:      -7.8      2.081      4.872
REMARK  Name = 
REMARK  11 active torsions:
REMARK  status: ('A' for Active; 'I' for Inactive)
REMARK    1  A    between atoms: C_1  and  C_2
REMARK    2  A    between atoms: C_3  and  N_4
REMARK    3  A    between atoms: N_4  and  C_5
REMARK    4  A    between atoms: C_6  and  C_7
REMARK    5  A    between atoms: C_12  and  C_13
REMARK    6  A    between atoms: C_14  and  C_15
REMARK    7  A    between atoms: C_18  and  C_19
REMARK    8  A    between atoms: C_19  and  N_20
REMARK    9  A    between atoms: C_23  and  N_24
REMARK   10  A    between atoms: N_24  and  C_25
REMARK   11  A    between atoms: N_24  and  C_26
REMARK                            x       y       z     vdW  Elec       q    Type
REMARK                         _______ _______ _______ _____ _____    ______ ____
ROOT
ATOM      1  C   UNL     1       3.141   4.500  20.202  0.00  0.00    +0.000 A 
ATOM      2  C   UNL     1       3.119   3.082  20.232  0.00  0.00    +0.000 A 
ATOM      3  C   UNL     1       1.901   2.425  20.207  0.00  0.00    +0.000 A 
ATOM      4  N   UNL     1       0.705   3.040  20.228  0.00  0.00    +0.000 NA
ATOM      5  C   UNL     1       0.735   4.389  20.288  0.00  0.00    +0.000 A 
ATOM      6  C   UNL     1       1.896   5.177  20.295  0.00  0.00    +0.000 A 
ENDROOT
BRANCH   1   7
ATOM      7  N   UNL     1       4.392   5.196  20.075  0.00  0.00    +0.000 N 
ATOM      8  H   UNL     1       4.301   6.180  20.329  0.00  0.00    +0.000 HD
BRANCH   7  11
ATOM      9  C   UNL     1       3.183   5.010  17.343  0.00  0.00    +0.000 C 
ATOM     10  C   UNL     1       4.659   4.980  17.617  0.00  0.00    +0.000 A 
ATOM     11  C   UNL     1       5.222   5.164  18.906  0.00  0.00    +0.000 A 
ATOM     12  C   UNL     1       6.623   5.248  19.051  0.00  0.00    +0.000 A 
ATOM     13  C   UNL     1       7.493   5.207  17.966  0.00  0.00    +0.000 A 
ATOM     14  C   UNL     1       6.929   4.929  16.726  0.00  0.00    +0.000 A 
ATOM     15  N   UNL     1       7.538   4.742  15.507  0.00  0.00    +0.000 N 
ATOM     16  C   UNL     1       6.606   4.432  14.556  0.00  0.00    +0.000 A 
ATOM     17  C   UNL     1       5.368   4.483  15.153  0.00  0.00    +0.000 A 
ATOM     18  C   UNL     1       5.556   4.795  16.532  0.00  0.00    +0.000 A 
ATOM     19  H   UNL     1       8.536   4.788  15.356  0.00  0.00    +0.000 HD
ENDBRANCH   7  11
ENDBRANCH   1   7
BRANCH   2  20
ATOM     20  C   UNL     1       4.298   2.278  20.223  0.00  0.00    +0.000 C 
ATOM     21  N   UNL     1       5.239   1.590  20.167  0.00  0.00    +0.000 NA
ENDBRANCH   2  20
BRANCH   6  22
ATOM     22  C   UNL     1       1.657   6.630  20.339  0.00  0.00    +0.000 C 
ATOM     23  C   UNL     1       1.020   7.281  21.324  0.00  0.00    +0.000 C 
BRANCH  23  24
ATOM     24  C   UNL     1       0.703   8.715  21.291  0.00  0.00    +0.000 A 
ATOM     25  C   UNL     1       0.057   9.279  22.384  0.00  0.00    +0.000 A 
ATOM     26  C   UNL     1      -0.282  10.627  22.341  0.00  0.00    +0.000 A 
ATOM     27  C   UNL     1       0.038  11.376  21.210  0.00  0.00    +0.000 A 
ATOM     28  C   UNL     1       0.692  10.726  20.166  0.00  0.00    +0.000 A 
ATOM     29  N   UNL     1       1.031   9.419  20.181  0.00  0.00    +0.000 NA
BRANCH  27  30
ATOM     30  C   UNL     1      -0.316  12.834  21.117  0.00  0.00    +0.000 C 
BRANCH  30  31
ATOM     31  N   UNL     1      -1.289  13.264  22.142  0.00  0.00    +0.000 NA
ATOM     32  C   UNL     1      -0.716  14.318  23.000  0.00  0.00    +0.000 C 
ATOM     33  C   UNL     1      -1.738  14.913  23.968  0.00  0.00    +0.000 C 
ATOM     34  C   UNL     1      -2.967  15.480  23.233  0.00  0.00    +0.000 C 
ATOM     35  C   UNL     1      -3.550  14.290  22.443  0.00  0.00    +0.000 C 
ATOM     36  C   UNL     1      -2.531  13.688  21.477  0.00  0.00    +0.000 C 
BRANCH  34  37
ATOM     37  N   UNL     1      -2.655  16.663  22.381  0.00  0.00    +0.000 NA
ATOM     38  C   UNL     1      -3.793  17.051  21.537  0.00  0.00    +0.000 C 
ATOM     39  C   UNL     1      -2.264  17.831  23.181  0.00  0.00    +0.000 C 
ENDBRANCH  34  37
ENDBRANCH  30  31
ENDBRANCH  27  30
ENDBRANCH  23  24
ENDBRANCH   6  22
TORSDOF 8
ENDMDL
MODEL 8
REMARK VINA RESULT:      -7.7      2.895      5.613
REMARK  Name = 
REMARK  11 active torsions:
REMARK  status: ('A' for Active; 'I' for Inactive)
REMARK    1  A    between atoms: C_1  and  C_2
REMARK    2  A    between atoms: C_3  and  N_4
REMARK    3  A    between atoms: N_4  and  C_5
REMARK    4  A    between atoms: C_6  and  C_7
REMARK    5  A    between atoms: C_12  and  C_13
REMARK    6  A    between atoms: C_14  and  C_15
REMARK    7  A    between atoms: C_18  and  C_19
REMARK    8  A    between atoms: C_19  and  N_20
REMARK    9  A    between atoms: C_23  and  N_24
REMARK   10  A    between atoms: N_24  and  C_25
REMARK   11  A    between atoms: N_24  and  C_26
REMARK                            x       y       z     vdW  Elec       q    Type
REMARK                         _______ _______ _______ _____ _____    ______ ____
ROOT
ATOM      1  C   UNL     1       3.281   4.115  20.171  0.00  0.00    +0.000 A 
ATOM      2  C   UNL     1       3.260   2.827  20.767  0.00  0.00    +0.000 A 
ATOM      3  C   UNL     1       2.051   2.296  21.182  0.00  0.00    +0.000 A 
ATOM      4  N   UNL     1       0.876   2.948  21.129  0.00  0.00    +0.000 NA
ATOM      5  C   UNL     1       0.919   4.206  20.641  0.00  0.00    +0.000 A 
ATOM      6  C   UNL     1       2.069   4.855  20.166  0.00  0.00    +0.000 A 
ENDROOT
BRANCH   1   7
ATOM      7  N   UNL     1       4.499   4.620  19.598  0.00  0.00    +0.000 N 
ATOM      8  H   UNL     1       4.613   5.617  19.781  0.00  0.00    +0.000 HD
BRANCH   7  11
ATOM      9  C   UNL     1       7.229   5.418  18.665  0.00  0.00    +0.000 C 
ATOM     10  C   UNL     1       6.152   4.880  17.766  0.00  0.00    +0.000 A 
ATOM     11  C   UNL     1       4.897   4.418  18.235  0.00  0.00    +0.000 A 
ATOM     12  C   UNL     1       3.995   3.811  17.336  0.00  0.00    +0.000 A 
ATOM     13  C   UNL     1       4.303   3.596  15.996  0.00  0.00    +0.000 A 
ATOM     14  C   UNL     1       5.496   4.143  15.536  0.00  0.00    +0.000 A 
ATOM     15  N   UNL     1       6.016   4.169  14.263  0.00  0.00    +0.000 N 
ATOM     16  C   UNL     1       7.194   4.862  14.248  0.00  0.00    +0.000 A 
ATOM     17  C   UNL     1       7.474   5.236  15.541  0.00  0.00    +0.000 A 
ATOM     18  C   UNL     1       6.404   4.789  16.372  0.00  0.00    +0.000 A 
ATOM     19  H   UNL     1       5.564   3.765  13.454  0.00  0.00    +0.000 HD
ENDBRANCH   7  11
ENDBRANCH   1   7
BRANCH   2  20
ATOM     20  C   UNL     1       4.420   2.008  20.909  0.00  0.00    +0.000 C 
ATOM     21  N   UNL     1       5.381   1.367  21.078  0.00  0.00    +0.000 NA
ENDBRANCH   2  20
BRANCH   6  22
ATOM     22  C   UNL     1       1.845   6.220  19.660  0.00  0.00    +0.000 C 
ATOM     23  C   UNL     1       1.777   7.325  20.419  0.00  0.00    +0.000 C 
BRANCH  23  24
ATOM     24  C   UNL     1       1.448   8.660  19.899  0.00  0.00    +0.000 A 
ATOM     25  C   UNL     1       0.659   9.499  20.675  0.00  0.00    +0.000 A 
ATOM     26  C   UNL     1       0.310  10.747  20.172  0.00  0.00    +0.000 A 
ATOM     27  C   UNL     1       0.763  11.124  18.908  0.00  0.00    +0.000 A 
ATOM     28  C   UNL     1       1.555  10.219  18.206  0.00  0.00    +0.000 A 
ATOM     29  N   UNL     1       1.907   9.001  18.672  0.00  0.00    +0.000 NA
BRANCH  27  30
ATOM     30  C   UNL     1       0.404  12.460  18.320  0.00  0.00    +0.000 C 
BRANCH  30  31
ATOM     31  N   UNL     1       0.714  13.594  19.217  0.00  0.00    +0.000 NA
ATOM     32  C   UNL     1       1.754  14.458  18.629  0.00  0.00    +0.000 C 
ATOM     33  C   UNL     1       1.991  15.733  19.438  0.00  0.00    +0.000 C 
ATOM     34  C   UNL     1       0.699  16.553  19.614  0.00  0.00    +0.000 C 
ATOM     35  C   UNL     1      -0.292  15.602  20.317  0.00  0.00    +0.000 C 
ATOM     36  C   UNL     1      -0.528  14.324  19.515  0.00  0.00    +0.000 C 
BRANCH  34  37
ATOM     37  N   UNL     1       0.176  17.117  18.336  0.00  0.00    +0.000 NA
ATOM     38  C   UNL     1      -1.095  17.829  18.526  0.00  0.00    +0.000 C 
ATOM     39  C   UNL     1       1.128  18.046  17.713  0.00  0.00    +0.000 C 
ENDBRANCH  34  37
ENDBRANCH  30  31
ENDBRANCH  27  30
ENDBRANCH  23  24
ENDBRANCH   6  22
TORSDOF 8
ENDMDL
MODEL 9
REMARK VINA RESULT:      -7.6      1.024      1.740
REMARK  Name = 
REMARK  11 active torsions:
REMARK  status: ('A' for Active; 'I' for Inactive)
REMARK    1  A    between atoms: C_1  and  C_2
REMARK    2  A    between atoms: C_3  and  N_4
REMARK    3  A    between atoms: N_4  and  C_5
REMARK    4  A    between atoms: C_6  and  C_7
REMARK    5  A    between atoms: C_12  and  C_13
REMARK    6  A    between atoms: C_14  and  C_15
REMARK    7  A    between atoms: C_18  and  C_19
REMARK    8  A    between atoms: C_19  and  N_20
REMARK    9  A    between atoms: C_23  and  N_24
REMARK   10  A    between atoms: N_24  and  C_25
REMARK   11  A    between atoms: N_24  and  C_26
REMARK                            x       y       z     vdW  Elec       q    Type
REMARK                         _______ _______ _______ _____ _____    ______ ____
ROOT
ATOM      1  C   UNL     1       4.951   5.406  16.530  0.00  0.00    +0.000 A 
ATOM      2  C   UNL     1       6.088   5.131  15.728  0.00  0.00    +0.000 A 
ATOM      3  C   UNL     1       7.211   5.932  15.851  0.00  0.00    +0.000 A 
ATOM      4  N   UNL     1       7.285   7.020  16.639  0.00  0.00    +0.000 NA
ATOM      5  C   UNL     1       6.168   7.325  17.333  0.00  0.00    +0.000 A 
ATOM      6  C   UNL     1       4.974   6.587  17.318  0.00  0.00    +0.000 A 
ENDROOT
BRANCH   1   7
ATOM      7  N   UNL     1       3.835   4.500  16.528  0.00  0.00    +0.000 N 
ATOM      8  H   UNL     1       3.175   4.720  15.782  0.00  0.00    +0.000 HD
BRANCH   7  11
ATOM      9  C   UNL     1       5.125   3.653  19.093  0.00  0.00    +0.000 C 
ATOM     10  C   UNL     1       3.640   3.698  18.868  0.00  0.00    +0.000 A 
ATOM     11  C   UNL     1       3.041   4.190  17.681  0.00  0.00    +0.000 A 
ATOM     12  C   UNL     1       1.638   4.315  17.606  0.00  0.00    +0.000 A 
ATOM     13  C   UNL     1       0.800   4.018  18.677  0.00  0.00    +0.000 A 
ATOM     14  C   UNL     1       1.399   3.445  19.795  0.00  0.00    +0.000 A 
ATOM     15  N   UNL     1       0.825   2.973  20.952  0.00  0.00    +0.000 N 
ATOM     16  C   UNL     1       1.781   2.438  21.769  0.00  0.00    +0.000 A 
ATOM     17  C   UNL     1       3.000   2.625  21.162  0.00  0.00    +0.000 A 
ATOM     18  C   UNL     1       2.775   3.261  19.906  0.00  0.00    +0.000 A 
ATOM     19  H   UNL     1      -0.167   2.987  21.143  0.00  0.00    +0.000 HD
ENDBRANCH   7  11
ENDBRANCH   1   7
BRANCH   2  20
ATOM     20  C   UNL     1       6.169   4.023  14.833  0.00  0.00    +0.000 C 
ATOM     21  N   UNL     1       6.215   3.153  14.056  0.00  0.00    +0.000 NA
ENDBRANCH   2  20
BRANCH   6  22
ATOM     22  C   UNL     1       3.909   7.118  18.186  0.00  0.00    +0.000 C 
ATOM     23  C   UNL     1       2.935   7.953  17.794  0.00  0.00    +0.000 C 
BRANCH  23  24
ATOM     24  C   UNL     1       1.947   8.549  18.704  0.00  0.00    +0.000 A 
ATOM     25  C   UNL     1       1.166   9.600  18.241  0.00  0.00    +0.000 A 
ATOM     26  C   UNL     1       0.259  10.195  19.111  0.00  0.00    +0.000 A 
ATOM     27  C   UNL     1       0.153   9.720  20.418  0.00  0.00    +0.000 A 
ATOM     28  C   UNL     1       0.974   8.657  20.790  0.00  0.00    +0.000 A 
ATOM     29  N   UNL     1       1.864   8.064  19.965  0.00  0.00    +0.000 NA
BRANCH  27  30
ATOM     30  C   UNL     1      -0.808  10.337  21.394  0.00  0.00    +0.000 C 
BRANCH  30  31
ATOM     31  N   UNL     1      -0.886  11.810  21.285  0.00  0.00    +0.000 NA
ATOM     32  C   UNL     1      -2.147  12.222  20.643  0.00  0.00    +0.000 C 
ATOM     33  C   UNL     1      -2.350  13.737  20.657  0.00  0.00    +0.000 C 
ATOM     34  C   UNL     1      -2.304  14.311  22.086  0.00  0.00    +0.000 C 
ATOM     35  C   UNL     1      -0.921  13.913  22.639  0.00  0.00    +0.000 C 
ATOM     36  C   UNL     1      -0.711  12.400  22.622  0.00  0.00    +0.000 C 
BRANCH  34  37
ATOM     37  N   UNL     1      -3.439  13.861  22.943  0.00  0.00    +0.000 NA
ATOM     38  C   UNL     1      -3.346  14.395  24.308  0.00  0.00    +0.000 C 
ATOM     39  C   UNL     1      -4.740  14.258  22.388  0.00  0.00    +0.000 C 
ENDBRANCH  34  37
ENDBRANCH  30  31
ENDBRANCH  27  30
ENDBRANCH  23  24
ENDBRANCH   6  22
TORSDOF 8
ENDMDL
