MODEL 1
REMARK VINA RESULT:      -7.2      0.000      0.000
REMARK  Name = 
REMARK  5 active torsions:
REMARK  status: ('A' for Active; 'I' for Inactive)
REMARK    1  A    between atoms: C_1  and  C_2
REMARK    2  A    between atoms: C_2  and  N_3
REMARK    3  A    between atoms: C_5  and  N_6
REMARK    4  A    between atoms: C_7  and  C_9
REMARK    5  A    between atoms: C_12  and  O_13
REMARK                            x       y       z     vdW  Elec       q    Type
REMARK                         _______ _______ _______ _____ _____    ______ ____
ROOT
ATOM      1  N   UNL     1       3.898   7.251  17.832  0.00  0.00    +0.000 NA
ATOM      2  C   UNL     1       4.139   5.991  17.591  0.00  0.00    +0.000 A 
ATOM      3  C   UNL     1       5.554   5.662  17.069  0.00  0.00    +0.000 A 
ATOM      4  C   UNL     1       5.843   4.378  16.753  0.00  0.00    +0.000 A 
ATOM      5  O   UNL     1       4.957   3.340  16.889  0.00  0.00    +0.000 OA
ATOM      6  C   UNL     1       3.737   3.545  17.453  0.00  0.00    +0.000 A 
ATOM      7  C   UNL     1       3.013   2.360  17.662  0.00  0.00    +0.000 A 
ATOM      8  C   UNL     1       1.739   2.402  18.204  0.00  0.00    +0.000 A 
ATOM      9  C   UNL     1       1.184   3.636  18.502  0.00  0.00    +0.000 A 
ATOM     10  C   UNL     1       1.918   4.812  18.285  0.00  0.00    +0.000 A 
ATOM     11  C   UNL     1       3.230   4.795  17.781  0.00  0.00    +0.000 A 
ENDROOT
BRANCH   3  12
ATOM     12  N   UNL     1       6.399   6.781  16.991  0.00  0.00    +0.000 N 
ATOM     13  C   UNL     1       7.483   7.131  17.767  0.00  0.00    +0.000 C 
ATOM     14  O   UNL     1       7.928   6.467  18.698  0.00  0.00    +0.000 OA
ATOM     15  H   UNL     1       6.115   7.415  16.242  0.00  0.00    +0.000 HD
BRANCH  13  16
ATOM     16  C   UNL     1       8.155   8.420  17.427  0.00  0.00    +0.000 C 
ATOM     17  C   UNL     1       7.499   9.725  17.844  0.00  0.00    +0.000 C 
ATOM     18  C   UNL     1       8.743   9.262  18.542  0.00  0.00    +0.000 C 
ENDBRANCH  13  16
ENDBRANCH   3  12
BRANCH   1  20
ATOM     19  C   UNL     1       2.145   8.992  17.685  0.00  0.00    +0.000 C 
ATOM     20  C   UNL     1       2.616   7.714  18.350  0.00  0.00    +0.000 C 
ENDBRANCH   1  20
BRANCH   4  21
ATOM     21  O   UNL     1       7.047   3.935  16.249  0.00  0.00    +0.000 OA
ATOM     22  H   UNL     1       7.457   4.628  15.696  0.00  0.00    +0.000 HD
ENDBRANCH   4  21
TORSDOF 4
ENDMDL
MODEL 2
REMARK VINA RESULT:      -6.8      2.763      4.751
REMARK  Name = 
REMARK  5 active torsions:
REMARK  status: ('A' for Active; 'I' for Inactive)
REMARK    1  A    between atoms: C_1  and  C_2
REMARK    2  A    between atoms: C_2  and  N_3
REMARK    3  A    between atoms: C_5  and  N_6
REMARK    4  A    between atoms: C_7  and  C_9
REMARK    5  A    between atoms: C_12  and  O_13
REMARK                            x       y       z     vdW  Elec       q    Type
REMARK                         _______ _______ _______ _____ _____    ______ ____
ROOT
ATOM      1  N   UNL     1       3.722   2.891  17.132  0.00  0.00    +0.000 NA
ATOM      2  C   UNL     1       3.763   4.166  17.407  0.00  0.00    +0.000 A 
ATOM      3  C   UNL     1       4.583   5.042  16.436  0.00  0.00    +0.000 A 
ATOM      4  C   UNL     1       4.704   6.364  16.701  0.00  0.00    +0.000 A 
ATOM      5  O   UNL     1       4.120   6.981  17.777  0.00  0.00    +0.000 OA
ATOM      6  C   UNL     1       3.291   6.290  18.604  0.00  0.00    +0.000 A 
ATOM      7  C   UNL     1       2.655   7.099  19.559  0.00  0.00    +0.000 A 
ATOM      8  C   UNL     1       1.798   6.539  20.493  0.00  0.00    +0.000 A 
ATOM      9  C   UNL     1       1.611   5.167  20.485  0.00  0.00    +0.000 A 
ATOM     10  C   UNL     1       2.255   4.371  19.526  0.00  0.00    +0.000 A 
ATOM     11  C   UNL     1       3.092   4.918  18.537  0.00  0.00    +0.000 A 
ENDROOT
BRANCH   3  12
ATOM     12  N   UNL     1       5.116   4.328  15.350  0.00  0.00    +0.000 N 
ATOM     13  C   UNL     1       6.320   4.475  14.695  0.00  0.00    +0.000 C 
ATOM     14  O   UNL     1       7.186   5.294  14.988  0.00  0.00    +0.000 OA
ATOM     15  H   UNL     1       4.468   3.612  15.016  0.00  0.00    +0.000 HD
BRANCH  13  16
ATOM     16  C   UNL     1       6.569   3.555  13.546  0.00  0.00    +0.000 C 
ATOM     17  C   UNL     1       5.604   3.562  12.373  0.00  0.00    +0.000 C 
ATOM     18  C   UNL     1       6.979   4.139  12.208  0.00  0.00    +0.000 C 
ENDBRANCH  13  16
ENDBRANCH   3  12
BRANCH   1  20
ATOM     19  C   UNL     1       3.865   1.088  18.821  0.00  0.00    +0.000 C 
ATOM     20  C   UNL     1       2.970   1.943  17.944  0.00  0.00    +0.000 C 
ENDBRANCH   1  20
BRANCH   4  21
ATOM     21  O   UNL     1       5.424   7.263  15.947  0.00  0.00    +0.000 OA
ATOM     22  H   UNL     1       4.821   7.883  15.493  0.00  0.00    +0.000 HD
ENDBRANCH   4  21
TORSDOF 4
ENDMDL
MODEL 3
REMARK VINA RESULT:      -6.8      1.100      1.100
REMARK  Name = 
REMARK  5 active torsions:
REMARK  status: ('A' for Active; 'I' for Inactive)
REMARK    1  A    between atoms: C_1  and  C_2
REMARK    2  A    between atoms: C_2  and  N_3
REMARK    3  A    between atoms: C_5  and  N_6
REMARK    4  A    between atoms: C_7  and  C_9
REMARK    5  A    between atoms: C_12  and  O_13
REMARK                            x       y       z     vdW  Elec       q    Type
REMARK                         _______ _______ _______ _____ _____    ______ ____
ROOT
ATOM      1  N   UNL     1       3.727   7.225  17.880  0.00  0.00    +0.000 NA
ATOM      2  C   UNL     1       4.105   6.017  18.200  0.00  0.00    +0.000 A 
ATOM      3  C   UNL     1       5.611   5.719  18.052  0.00  0.00    +0.000 A 
ATOM      4  C   UNL     1       6.052   4.467  18.320  0.00  0.00    +0.000 A 
ATOM      5  O   UNL     1       5.238   3.445  18.738  0.00  0.00    +0.000 OA
ATOM      6  C   UNL     1       3.924   3.673  18.999  0.00  0.00    +0.000 A 
ATOM      7  C   UNL     1       3.268   2.568  19.564  0.00  0.00    +0.000 A 
ATOM      8  C   UNL     1       1.917   2.632  19.864  0.00  0.00    +0.000 A 
ATOM      9  C   UNL     1       1.224   3.792  19.563  0.00  0.00    +0.000 A 
ATOM     10  C   UNL     1       1.891   4.888  18.996  0.00  0.00    +0.000 A 
ATOM     11  C   UNL     1       3.271   4.867  18.726  0.00  0.00    +0.000 A 
ENDROOT
BRANCH   3  12
ATOM     12  N   UNL     1       6.368   6.832  17.649  0.00  0.00    +0.000 N 
ATOM     13  C   UNL     1       7.590   7.285  18.097  0.00  0.00    +0.000 C 
ATOM     14  O   UNL     1       8.270   6.741  18.962  0.00  0.00    +0.000 OA
ATOM     15  H   UNL     1       5.889   7.369  16.924  0.00  0.00    +0.000 HD
BRANCH  13  16
ATOM     16  C   UNL     1       8.109   8.533  17.464  0.00  0.00    +0.000 C 
ATOM     17  C   UNL     1       7.491   9.866  17.848  0.00  0.00    +0.000 C 
ATOM     18  C   UNL     1       8.876   9.528  18.313  0.00  0.00    +0.000 C 
ENDBRANCH  13  16
ENDBRANCH   3  12
BRANCH   1  20
ATOM     19  C   UNL     1       2.190   9.164  17.853  0.00  0.00    +0.000 C 
ATOM     20  C   UNL     1       2.340   7.662  17.988  0.00  0.00    +0.000 C 
ENDBRANCH   1  20
BRANCH   4  21
ATOM     21  O   UNL     1       7.358   4.043  18.206  0.00  0.00    +0.000 OA
ATOM     22  H   UNL     1       7.955   4.655  18.678  0.00  0.00    +0.000 HD
ENDBRANCH   4  21
TORSDOF 4
ENDMDL
MODEL 4
REMARK VINA RESULT:      -6.5      4.066      6.361
REMARK  Name = 
REMARK  5 active torsions:
REMARK  status: ('A' for Active; 'I' for Inactive)
REMARK    1  A    between atoms: C_1  and  C_2
REMARK    2  A    between atoms: C_2  and  N_3
REMARK    3  A    between atoms: C_5  and  N_6
REMARK    4  A    between atoms: C_7  and  C_9
REMARK    5  A    between atoms: C_12  and  O_13
REMARK                            x       y       z     vdW  Elec       q    Type
REMARK                         _______ _______ _______ _____ _____    ______ ____
ROOT
ATOM      1  N   UNL     1       1.966   5.441  20.784  0.00  0.00    +0.000 NA
ATOM      2  C   UNL     1       2.380   6.188  19.798  0.00  0.00    +0.000 A 
ATOM      3  C   UNL     1       1.883   7.649  19.801  0.00  0.00    +0.000 A 
ATOM      4  C   UNL     1       2.238   8.456  18.773  0.00  0.00    +0.000 A 
ATOM      5  O   UNL     1       3.037   8.056  17.732  0.00  0.00    +0.000 OA
ATOM      6  C   UNL     1       3.602   6.819  17.730  0.00  0.00    +0.000 A 
ATOM      7  C   UNL     1       4.511   6.623  16.679  0.00  0.00    +0.000 A 
ATOM      8  C   UNL     1       5.152   5.404  16.523  0.00  0.00    +0.000 A 
ATOM      9  C   UNL     1       4.850   4.379  17.403  0.00  0.00    +0.000 A 
ATOM     10  C   UNL     1       3.937   4.588  18.447  0.00  0.00    +0.000 A 
ATOM     11  C   UNL     1       3.309   5.829  18.657  0.00  0.00    +0.000 A 
ENDROOT
BRANCH   3  12
ATOM     12  N   UNL     1       1.098   7.973  20.919  0.00  0.00    +0.000 N 
ATOM     13  C   UNL     1       0.058   8.870  21.045  0.00  0.00    +0.000 C 
ATOM     14  O   UNL     1      -0.392   9.560  20.135  0.00  0.00    +0.000 OA
ATOM     15  H   UNL     1       1.392   7.454  21.748  0.00  0.00    +0.000 HD
BRANCH  13  16
ATOM     16  C   UNL     1      -0.553   8.993  22.402  0.00  0.00    +0.000 C 
ATOM     17  C   UNL     1       0.284   9.550  23.540  0.00  0.00    +0.000 C 
ATOM     18  C   UNL     1      -0.830  10.373  22.965  0.00  0.00    +0.000 C 
ENDBRANCH  13  16
ENDBRANCH   3  12
BRANCH   1  20
ATOM     19  C   UNL     1       1.252   3.080  20.589  0.00  0.00    +0.000 C 
ATOM     20  C   UNL     1       2.368   4.048  20.929  0.00  0.00    +0.000 C 
ENDBRANCH   1  20
BRANCH   4  21
ATOM     21  O   UNL     1       1.850   9.769  18.621  0.00  0.00    +0.000 OA
ATOM     22  H   UNL     1       2.023  10.069  17.708  0.00  0.00    +0.000 HD
ENDBRANCH   4  21
TORSDOF 4
ENDMDL
MODEL 5
REMARK VINA RESULT:      -6.5      3.592      5.800
REMARK  Name = 
REMARK  5 active torsions:
REMARK  status: ('A' for Active; 'I' for Inactive)
REMARK    1  A    between atoms: C_1  and  C_2
REMARK    2  A    between atoms: C_2  and  N_3
REMARK    3  A    between atoms: C_5  and  N_6
REMARK    4  A    between atoms: C_7  and  C_9
REMARK    5  A    between atoms: C_12  and  O_13
REMARK                            x       y       z     vdW  Elec       q    Type
REMARK                         _______ _______ _______ _____ _____    ______ ____
ROOT
ATOM      1  N   UNL     1       2.029   5.722  20.658  0.00  0.00    +0.000 NA
ATOM      2  C   UNL     1       2.545   6.171  19.547  0.00  0.00    +0.000 A 
ATOM      3  C   UNL     1       2.295   7.662  19.239  0.00  0.00    +0.000 A 
ATOM      4  C   UNL     1       2.762   8.170  18.075  0.00  0.00    +0.000 A 
ATOM      5  O   UNL     1       3.469   7.440  17.154  0.00  0.00    +0.000 OA
ATOM      6  C   UNL     1       3.824   6.154  17.418  0.00  0.00    +0.000 A 
ATOM      7  C   UNL     1       4.673   5.600  16.448  0.00  0.00    +0.000 A 
ATOM      8  C   UNL     1       5.103   4.287  16.559  0.00  0.00    +0.000 A 
ATOM      9  C   UNL     1       4.651   3.528  17.625  0.00  0.00    +0.000 A 
ATOM     10  C   UNL     1       3.799   4.095  18.585  0.00  0.00    +0.000 A 
ATOM     11  C   UNL     1       3.387   5.437  18.523  0.00  0.00    +0.000 A 
ENDROOT
BRANCH   3  12
ATOM     12  N   UNL     1       1.589   8.334  20.252  0.00  0.00    +0.000 N 
ATOM     13  C   UNL     1       0.601   9.291  20.161  0.00  0.00    +0.000 C 
ATOM     14  O   UNL     1       0.132   9.723  19.113  0.00  0.00    +0.000 OA
ATOM     15  H   UNL     1       1.906   8.051  21.181  0.00  0.00    +0.000 HD
BRANCH  13  16
ATOM     16  C   UNL     1       0.074   9.826  21.451  0.00  0.00    +0.000 C 
ATOM     17  C   UNL     1      -0.654   8.887  22.397  0.00  0.00    +0.000 C 
ATOM     18  C   UNL     1       0.716   9.384  22.752  0.00  0.00    +0.000 C 
ENDBRANCH  13  16
ENDBRANCH   3  12
BRANCH   1  20
ATOM     19  C   UNL     1       1.046   3.451  20.678  0.00  0.00    +0.000 C 
ATOM     20  C   UNL     1       2.200   4.341  21.094  0.00  0.00    +0.000 C 
ENDBRANCH   1  20
BRANCH   4  21
ATOM     21  O   UNL     1       2.592   9.469  17.649  0.00  0.00    +0.000 OA
ATOM     22  H   UNL     1       2.850  10.093  18.355  0.00  0.00    +0.000 HD
ENDBRANCH   4  21
TORSDOF 4
ENDMDL
MODEL 6
REMARK VINA RESULT:      -6.2      3.794      6.166
REMARK  Name = 
REMARK  5 active torsions:
REMARK  status: ('A' for Active; 'I' for Inactive)
REMARK    1  A    between atoms: C_1  and  C_2
REMARK    2  A    between atoms: C_2  and  N_3
REMARK    3  A    between atoms: C_5  and  N_6
REMARK    4  A    between atoms: C_7  and  C_9
REMARK    5  A    between atoms: C_12  and  O_13
REMARK                            x       y       z     vdW  Elec       q    Type
REMARK                         _______ _______ _______ _____ _____    ______ ____
ROOT
ATOM      1  N   UNL     1       1.897   6.332  20.444  0.00  0.00    +0.000 NA
ATOM      2  C   UNL     1       2.415   6.838  19.358  0.00  0.00    +0.000 A 
ATOM      3  C   UNL     1       2.007   8.289  19.027  0.00  0.00    +0.000 A 
ATOM      4  C   UNL     1       2.471   8.848  17.884  0.00  0.00    +0.000 A 
ATOM      5  O   UNL     1       3.307   8.204  17.007  0.00  0.00    +0.000 OA
ATOM      6  C   UNL     1       3.796   6.970  17.299  0.00  0.00    +0.000 A 
ATOM      7  C   UNL     1       4.755   6.518  16.378  0.00  0.00    +0.000 A 
ATOM      8  C   UNL     1       5.330   5.266  16.521  0.00  0.00    +0.000 A 
ATOM      9  C   UNL     1       4.914   4.460  17.567  0.00  0.00    +0.000 A 
ATOM     10  C   UNL     1       3.953   4.923  18.478  0.00  0.00    +0.000 A 
ATOM     11  C   UNL     1       3.389   6.208  18.385  0.00  0.00    +0.000 A 
ENDROOT
BRANCH   3  12
ATOM     12  N   UNL     1       1.175   8.874  19.996  0.00  0.00    +0.000 N 
ATOM     13  C   UNL     1       0.111   9.738  19.850  0.00  0.00    +0.000 C 
ATOM     14  O   UNL     1      -0.322  10.147  18.777  0.00  0.00    +0.000 OA
ATOM     15  H   UNL     1       1.452   8.603  20.942  0.00  0.00    +0.000 HD
BRANCH  13  16
ATOM     16  C   UNL     1      -0.549  10.198  21.107  0.00  0.00    +0.000 C 
ATOM     17  C   UNL     1      -0.003  11.421  21.823  0.00  0.00    +0.000 C 
ATOM     18  C   UNL     1      -1.316  11.506  21.103  0.00  0.00    +0.000 C 
ENDBRANCH  13  16
ENDBRANCH   3  12
BRANCH   1  20
ATOM     19  C   UNL     1       1.103   3.993  20.579  0.00  0.00    +0.000 C 
ATOM     20  C   UNL     1       2.206   4.982  20.898  0.00  0.00    +0.000 C 
ENDBRANCH   1  20
BRANCH   4  21
ATOM     21  O   UNL     1       2.173  10.117  17.441  0.00  0.00    +0.000 OA
ATOM     22  H   UNL     1       1.274  10.372  17.727  0.00  0.00    +0.000 HD
ENDBRANCH   4  21
TORSDOF 4
ENDMDL
MODEL 7
REMARK VINA RESULT:      -6.1      6.537      9.169
REMARK  Name = 
REMARK  5 active torsions:
REMARK  status: ('A' for Active; 'I' for Inactive)
REMARK    1  A    between atoms: C_1  and  C_2
REMARK    2  A    between atoms: C_2  and  N_3
REMARK    3  A    between atoms: C_5  and  N_6
REMARK    4  A    between atoms: C_7  and  C_9
REMARK    5  A    between atoms: C_12  and  O_13
REMARK                            x       y       z     vdW  Elec       q    Type
REMARK                         _______ _______ _______ _____ _____    ______ ____
ROOT
ATOM      1  N   UNL     1      -1.177  11.758  19.748  0.00  0.00    +0.000 NA
ATOM      2  C   UNL     1      -0.453  10.832  20.315  0.00  0.00    +0.000 A 
ATOM      3  C   UNL     1      -0.610  10.691  21.843  0.00  0.00    +0.000 A 
ATOM      4  C   UNL     1       0.157   9.782  22.491  0.00  0.00    +0.000 A 
ATOM      5  O   UNL     1       1.056   8.958  21.864  0.00  0.00    +0.000 OA
ATOM      6  C   UNL     1       1.157   8.951  20.508  0.00  0.00    +0.000 A 
ATOM      7  C   UNL     1       2.006   7.946  20.018  0.00  0.00    +0.000 A 
ATOM      8  C   UNL     1       2.235   7.825  18.657  0.00  0.00    +0.000 A 
ATOM      9  C   UNL     1       1.639   8.733  17.799  0.00  0.00    +0.000 A 
ATOM     10  C   UNL     1       0.795   9.733  18.303  0.00  0.00    +0.000 A 
ATOM     11  C   UNL     1       0.507   9.850  19.675  0.00  0.00    +0.000 A 
ENDROOT
BRANCH   3  12
ATOM     12  N   UNL     1      -1.573  11.554  22.391  0.00  0.00    +0.000 N 
ATOM     13  C   UNL     1      -1.419  12.767  23.027  0.00  0.00    +0.000 C 
ATOM     14  O   UNL     1      -0.347  13.336  23.211  0.00  0.00    +0.000 OA
ATOM     15  H   UNL     1      -2.516  11.173  22.297  0.00  0.00    +0.000 HD
BRANCH  13  16
ATOM     16  C   UNL     1      -2.667  13.422  23.520  0.00  0.00    +0.000 C 
ATOM     17  C   UNL     1      -3.507  14.233  22.550  0.00  0.00    +0.000 C 
ATOM     18  C   UNL     1      -4.010  12.908  23.041  0.00  0.00    +0.000 C 
ENDBRANCH  13  16
ENDBRANCH   3  12
BRANCH   1  20
ATOM     19  C   UNL     1      -2.425  11.536  17.623  0.00  0.00    +0.000 C 
ATOM     20  C   UNL     1      -1.154  11.995  18.310  0.00  0.00    +0.000 C 
ENDBRANCH   1  20
BRANCH   4  21
ATOM     21  O   UNL     1       0.151   9.562  23.851  0.00  0.00    +0.000 OA
ATOM     22  H   UNL     1       0.661   8.757  24.065  0.00  0.00    +0.000 HD
ENDBRANCH   4  21
TORSDOF 4
ENDMDL
MODEL 8
REMARK VINA RESULT:      -6.0      0.938      1.030
REMARK  Name = 
REMARK  5 active torsions:
REMARK  status: ('A' for Active; 'I' for Inactive)
REMARK    1  A    between atoms: C_1  and  C_2
REMARK    2  A    between atoms: C_2  and  N_3
REMARK    3  A    between atoms: C_5  and  N_6
REMARK    4  A    between atoms: C_7  and  C_9
REMARK    5  A    between atoms: C_12  and  O_13
REMARK                            x       y       z     vdW  Elec       q    Type
REMARK                         _______ _______ _______ _____ _____    ______ ____
ROOT
ATOM      1  N   UNL     1       3.538   7.376  18.097  0.00  0.00    +0.000 NA
ATOM      2  C   UNL     1       4.049   6.181  17.974  0.00  0.00    +0.000 A 
ATOM      3  C   UNL     1       5.589   6.108  17.918  0.00  0.00    +0.000 A 
ATOM      4  C   UNL     1       6.173   4.899  17.738  0.00  0.00    +0.000 A 
ATOM      5  O   UNL     1       5.474   3.724  17.625  0.00  0.00    +0.000 OA
ATOM      6  C   UNL     1       4.124   3.707  17.784  0.00  0.00    +0.000 A 
ATOM      7  C   UNL     1       3.580   2.412  17.793  0.00  0.00    +0.000 A 
ATOM      8  C   UNL     1       2.213   2.226  17.919  0.00  0.00    +0.000 A 
ATOM      9  C   UNL     1       1.396   3.340  18.001  0.00  0.00    +0.000 A 
ATOM     10  C   UNL     1       1.952   4.628  17.987  0.00  0.00    +0.000 A 
ATOM     11  C   UNL     1       3.339   4.845  17.909  0.00  0.00    +0.000 A 
ENDROOT
BRANCH   3  12
ATOM     12  N   UNL     1       6.217   7.354  18.072  0.00  0.00    +0.000 N 
ATOM     13  C   UNL     1       7.336   7.868  17.451  0.00  0.00    +0.000 C 
ATOM     14  O   UNL     1       7.994   7.290  16.593  0.00  0.00    +0.000 OA
ATOM     15  H   UNL     1       5.749   7.926  18.777  0.00  0.00    +0.000 HD
BRANCH  13  16
ATOM     16  C   UNL     1       7.759   9.237  17.872  0.00  0.00    +0.000 C 
ATOM     17  C   UNL     1       8.835   9.383  18.933  0.00  0.00    +0.000 C 
ATOM     18  C   UNL     1       9.147   9.725  17.507  0.00  0.00    +0.000 C 
ENDBRANCH  13  16
ENDBRANCH   3  12
BRANCH   1  20
ATOM     19  C   UNL     1       1.698   8.985  17.711  0.00  0.00    +0.000 C 
ATOM     20  C   UNL     1       2.100   7.603  18.187  0.00  0.00    +0.000 C 
ENDBRANCH   1  20
BRANCH   4  21
ATOM     21  O   UNL     1       7.529   4.678  17.638  0.00  0.00    +0.000 OA
ATOM     22  H   UNL     1       7.812   4.732  16.705  0.00  0.00    +0.000 HD
ENDBRANCH   4  21
TORSDOF 4
ENDMDL
MODEL 9
REMARK VINA RESULT:      -5.9      5.417      8.253
REMARK  Name = 
REMARK  5 active torsions:
REMARK  status: ('A' for Active; 'I' for Inactive)
REMARK    1  A    between atoms: C_1  and  C_2
REMARK    2  A    between atoms: C_2  and  N_3
REMARK    3  A    between atoms: C_5  and  N_6
REMARK    4  A    between atoms: C_7  and  C_9
REMARK    5  A    between atoms: C_12  and  O_13
REMARK                            x       y       z     vdW  Elec       q    Type
REMARK                         _______ _______ _______ _____ _____    ______ ____
ROOT
ATOM      1  N   UNL     1      -0.563  10.154  18.632  0.00  0.00    +0.000 NA
ATOM      2  C   UNL     1      -0.375  10.408  19.898  0.00  0.00    +0.000 A 
ATOM      3  C   UNL     1       0.783   9.646  20.577  0.00  0.00    +0.000 A 
ATOM      4  C   UNL     1       0.990   9.831  21.902  0.00  0.00    +0.000 A 
ATOM      5  O   UNL     1       0.241  10.677  22.680  0.00  0.00    +0.000 OA
ATOM      6  C   UNL     1      -0.716  11.463  22.120  0.00  0.00    +0.000 A 
ATOM      7  C   UNL     1      -1.282  12.380  23.021  0.00  0.00    +0.000 A 
ATOM      8  C   UNL     1      -2.292  13.235  22.610  0.00  0.00    +0.000 A 
ATOM      9  C   UNL     1      -2.752  13.142  21.307  0.00  0.00    +0.000 A 
ATOM     10  C   UNL     1      -2.180  12.219  20.420  0.00  0.00    +0.000 A 
ATOM     11  C   UNL     1      -1.122  11.373  20.796  0.00  0.00    +0.000 A 
ENDROOT
BRANCH   3  12
ATOM     12  N   UNL     1       1.510   8.829  19.696  0.00  0.00    +0.000 N 
ATOM     13  C   UNL     1       1.876   7.505  19.810  0.00  0.00    +0.000 C 
ATOM     14  O   UNL     1       1.589   6.773  20.753  0.00  0.00    +0.000 OA
ATOM     15  H   UNL     1       1.808   9.343  18.866  0.00  0.00    +0.000 HD
BRANCH  13  16
ATOM     16  C   UNL     1       2.682   6.938  18.689  0.00  0.00    +0.000 C 
ATOM     17  C   UNL     1       3.681   5.833  18.983  0.00  0.00    +0.000 C 
ATOM     18  C   UNL     1       2.420   5.516  18.236  0.00  0.00    +0.000 C 
ENDBRANCH  13  16
ENDBRANCH   3  12
BRANCH   1  20
ATOM     19  C   UNL     1      -2.746   9.880  17.501  0.00  0.00    +0.000 C 
ATOM     20  C   UNL     1      -1.603  10.812  17.851  0.00  0.00    +0.000 C 
ENDBRANCH   1  20
BRANCH   4  21
ATOM     21  O   UNL     1       1.961   9.202  22.650  0.00  0.00    +0.000 OA
ATOM     22  H   UNL     1       2.849   9.477  22.351  0.00  0.00    +0.000 HD
ENDBRANCH   4  21
TORSDOF 4
ENDMDL
