MODEL 1
REMARK VINA RESULT:      -6.8      0.000      0.000
REMARK  Name = 
REMARK  6 active torsions:
REMARK  status: ('A' for Active; 'I' for Inactive)
REMARK    1  A    between atoms: C_1  and  C_2
REMARK    2  A    between atoms: C_2  and  O_3
REMARK    3  A    between atoms: O_3  and  C_4
REMARK    4  A    between atoms: C_4  and  C_6
REMARK    5  A    between atoms: N_13  and  C_14
REMARK    6  A    between atoms: C_14  and  C_15
REMARK                            x       y       z     vdW  Elec       q    Type
REMARK                         _______ _______ _______ _____ _____    ______ ____
ROOT
ATOM      1  C   UNL     1       0.906   9.690  19.552  0.00  0.00    +0.000 A 
ATOM      2  C   UNL     1       1.118   8.795  20.575  0.00  0.00    +0.000 A 
ATOM      3  N   UNL     1       1.893   7.700  20.253  0.00  0.00    +0.000 NA
ATOM      4  C   UNL     1       2.305   7.765  19.005  0.00  0.00    +0.000 A 
ATOM      5  N   UNL     1       3.083   6.816  18.423  0.00  0.00    +0.000 N 
ATOM      6  C   UNL     1       3.978   7.095  17.299  0.00  0.00    +0.000 C 
ATOM      7  C   UNL     1       5.429   6.647  17.616  0.00  0.00    +0.000 C 
ATOM      8  N   UNL     1       5.575   5.271  18.154  0.00  0.00    +0.000 NA
ATOM      9  C   UNL     1       4.678   5.161  19.334  0.00  0.00    +0.000 C 
ATOM     10  C   UNL     1       3.200   5.498  19.055  0.00  0.00    +0.000 C 
ATOM     11  S   UNL     1       1.722   9.154  18.154  0.00  0.00    +0.000 S 
ENDROOT
BRANCH   1  12
ATOM     12  C   UNL     1       0.188  10.937  19.536  0.00  0.00    +0.000 C 
ATOM     13  O   UNL     1       0.655  12.045  19.776  0.00  0.00    +0.000 OA
BRANCH  12  14
ATOM     14  O   UNL     1      -1.134  10.694  19.305  0.00  0.00    +0.000 OA
BRANCH  14  16
ATOM     15  C   UNL     1      -2.116   9.909  17.281  0.00  0.00    +0.000 C 
ATOM     16  C   UNL     1      -1.615  11.132  18.026  0.00  0.00    +0.000 C 
ENDBRANCH  14  16
ENDBRANCH  12  14
ENDBRANCH   1  12
BRANCH   8  17
ATOM     17  C   UNL     1       5.261   4.283  17.101  0.00  0.00    +0.000 C 
BRANCH  17  18
ATOM     18  C   UNL     1       5.973   4.529  15.824  0.00  0.00    +0.000 A 
ATOM     19  C   UNL     1       5.649   4.410  14.493  0.00  0.00    +0.000 A 
ATOM     20  C   UNL     1       6.818   4.797  13.820  0.00  0.00    +0.000 A 
ATOM     21  N   UNL     1       7.796   5.141  14.663  0.00  0.00    +0.000 NA
ATOM     22  O   UNL     1       7.261   4.971  15.927  0.00  0.00    +0.000 OA
ENDBRANCH  17  18
ENDBRANCH   8  17
TORSDOF 5
ENDMDL
MODEL 2
REMARK VINA RESULT:      -6.5      0.955      1.341
REMARK  Name = 
REMARK  6 active torsions:
REMARK  status: ('A' for Active; 'I' for Inactive)
REMARK    1  A    between atoms: C_1  and  C_2
REMARK    2  A    between atoms: C_2  and  O_3
REMARK    3  A    between atoms: O_3  and  C_4
REMARK    4  A    between atoms: C_4  and  C_6
REMARK    5  A    between atoms: N_13  and  C_14
REMARK    6  A    between atoms: C_14  and  C_15
REMARK                            x       y       z     vdW  Elec       q    Type
REMARK                         _______ _______ _______ _____ _____    ______ ____
ROOT
ATOM      1  C   UNL     1       0.781   9.563  19.713  0.00  0.00    +0.000 A 
ATOM      2  C   UNL     1       1.079   8.684  20.728  0.00  0.00    +0.000 A 
ATOM      3  N   UNL     1       1.889   7.625  20.375  0.00  0.00    +0.000 NA
ATOM      4  C   UNL     1       2.242   7.702  19.110  0.00  0.00    +0.000 A 
ATOM      5  N   UNL     1       3.036   6.786  18.496  0.00  0.00    +0.000 N 
ATOM      6  C   UNL     1       3.866   7.100  17.332  0.00  0.00    +0.000 C 
ATOM      7  C   UNL     1       5.348   6.721  17.585  0.00  0.00    +0.000 C 
ATOM      8  N   UNL     1       5.582   5.356  18.120  0.00  0.00    +0.000 NA
ATOM      9  C   UNL     1       4.744   5.211  19.339  0.00  0.00    +0.000 C 
ATOM     10  C   UNL     1       3.242   5.478  19.126  0.00  0.00    +0.000 C 
ATOM     11  S   UNL     1       1.557   9.058  18.281  0.00  0.00    +0.000 S 
ENDROOT
BRANCH   1  12
ATOM     12  C   UNL     1       0.006  10.775  19.726  0.00  0.00    +0.000 C 
ATOM     13  O   UNL     1      -0.943  11.020  20.463  0.00  0.00    +0.000 OA
BRANCH  12  14
ATOM     14  O   UNL     1       0.426  11.591  18.716  0.00  0.00    +0.000 OA
BRANCH  14  16
ATOM     15  C   UNL     1      -0.160  13.893  18.530  0.00  0.00    +0.000 C 
ATOM     16  C   UNL     1       0.824  12.907  19.128  0.00  0.00    +0.000 C 
ENDBRANCH  14  16
ENDBRANCH  12  14
ENDBRANCH   1  12
BRANCH   8  17
ATOM     17  C   UNL     1       5.266   4.350  17.085  0.00  0.00    +0.000 C 
BRANCH  17  18
ATOM     18  C   UNL     1       5.985   4.566  15.807  0.00  0.00    +0.000 A 
ATOM     19  C   UNL     1       5.672   4.407  14.477  0.00  0.00    +0.000 A 
ATOM     20  C   UNL     1       6.841   4.787  13.801  0.00  0.00    +0.000 A 
ATOM     21  N   UNL     1       7.810   5.164  14.641  0.00  0.00    +0.000 NA
ATOM     22  O   UNL     1       7.268   5.024  15.906  0.00  0.00    +0.000 OA
ENDBRANCH  17  18
ENDBRANCH   8  17
TORSDOF 5
ENDMDL
MODEL 3
REMARK VINA RESULT:      -6.4      1.140      1.539
REMARK  Name = 
REMARK  6 active torsions:
REMARK  status: ('A' for Active; 'I' for Inactive)
REMARK    1  A    between atoms: C_1  and  C_2
REMARK    2  A    between atoms: C_2  and  O_3
REMARK    3  A    between atoms: O_3  and  C_4
REMARK    4  A    between atoms: C_4  and  C_6
REMARK    5  A    between atoms: N_13  and  C_14
REMARK    6  A    between atoms: C_14  and  C_15
REMARK                            x       y       z     vdW  Elec       q    Type
REMARK                         _______ _______ _______ _____ _____    ______ ____
ROOT
ATOM      1  C   UNL     1       0.994   9.523  20.059  0.00  0.00    +0.000 A 
ATOM      2  C   UNL     1       1.123   8.489  20.957  0.00  0.00    +0.000 A 
ATOM      3  N   UNL     1       1.826   7.393  20.502  0.00  0.00    +0.000 NA
ATOM      4  C   UNL     1       2.267   7.591  19.278  0.00  0.00    +0.000 A 
ATOM      5  N   UNL     1       2.988   6.672  18.584  0.00  0.00    +0.000 N 
ATOM      6  C   UNL     1       3.922   7.031  17.516  0.00  0.00    +0.000 C 
ATOM      7  C   UNL     1       5.331   6.442  17.786  0.00  0.00    +0.000 C 
ATOM      8  N   UNL     1       5.370   5.001  18.139  0.00  0.00    +0.000 NA
ATOM      9  C   UNL     1       4.444   4.802  19.284  0.00  0.00    +0.000 C 
ATOM     10  C   UNL     1       3.000   5.278  19.037  0.00  0.00    +0.000 C 
ATOM     11  S   UNL     1       1.798   9.118  18.611  0.00  0.00    +0.000 S 
ENDROOT
BRANCH   1  12
ATOM     12  C   UNL     1       0.365  10.810  20.200  0.00  0.00    +0.000 C 
ATOM     13  O   UNL     1       0.896  11.899  20.014  0.00  0.00    +0.000 OA
BRANCH  12  14
ATOM     14  O   UNL     1      -0.903  10.643  20.672  0.00  0.00    +0.000 OA
BRANCH  14  16
ATOM     15  C   UNL     1      -1.143  11.226  22.970  0.00  0.00    +0.000 C 
ATOM     16  C   UNL     1      -1.367  11.686  21.542  0.00  0.00    +0.000 C 
ENDBRANCH  14  16
ENDBRANCH  12  14
ENDBRANCH   1  12
BRANCH   8  17
ATOM     17  C   UNL     1       5.009   4.185  16.962  0.00  0.00    +0.000 C 
BRANCH  17  18
ATOM     18  C   UNL     1       5.840   4.465  15.766  0.00  0.00    +0.000 A 
ATOM     19  C   UNL     1       5.641   4.398  14.407  0.00  0.00    +0.000 A 
ATOM     20  C   UNL     1       6.871   4.792  13.860  0.00  0.00    +0.000 A 
ATOM     21  N   UNL     1       7.770   5.092  14.803  0.00  0.00    +0.000 NA
ATOM     22  O   UNL     1       7.117   4.885  16.005  0.00  0.00    +0.000 OA
ENDBRANCH  17  18
ENDBRANCH   8  17
TORSDOF 5
ENDMDL
MODEL 4
REMARK VINA RESULT:      -6.3      1.977      2.598
REMARK  Name = 
REMARK  6 active torsions:
REMARK  status: ('A' for Active; 'I' for Inactive)
REMARK    1  A    between atoms: C_1  and  C_2
REMARK    2  A    between atoms: C_2  and  O_3
REMARK    3  A    between atoms: O_3  and  C_4
REMARK    4  A    between atoms: C_4  and  C_6
REMARK    5  A    between atoms: N_13  and  C_14
REMARK    6  A    between atoms: C_14  and  C_15
REMARK                            x       y       z     vdW  Elec       q    Type
REMARK                         _______ _______ _______ _____ _____    ______ ____
ROOT
ATOM      1  C   UNL     1       1.825   7.765  19.902  0.00  0.00    +0.000 A 
ATOM      2  C   UNL     1       2.192   6.578  20.496  0.00  0.00    +0.000 A 
ATOM      3  N   UNL     1       2.970   5.744  19.721  0.00  0.00    +0.000 NA
ATOM      4  C   UNL     1       3.232   6.293  18.554  0.00  0.00    +0.000 A 
ATOM      5  N   UNL     1       3.976   5.687  17.592  0.00  0.00    +0.000 N 
ATOM      6  C   UNL     1       4.722   6.429  16.575  0.00  0.00    +0.000 C 
ATOM      7  C   UNL     1       6.218   6.017  16.568  0.00  0.00    +0.000 C 
ATOM      8  N   UNL     1       6.482   4.556  16.540  0.00  0.00    +0.000 NA
ATOM      9  C   UNL     1       5.733   3.951  17.673  0.00  0.00    +0.000 C 
ATOM     10  C   UNL     1       4.221   4.244  17.676  0.00  0.00    +0.000 C 
ATOM     11  S   UNL     1       2.495   7.843  18.337  0.00  0.00    +0.000 S 
ENDROOT
BRANCH   1  12
ATOM     12  C   UNL     1       1.058   8.868  20.417  0.00  0.00    +0.000 C 
ATOM     13  O   UNL     1       0.788   9.903  19.818  0.00  0.00    +0.000 OA
BRANCH  12  14
ATOM     14  O   UNL     1       0.750   8.633  21.725  0.00  0.00    +0.000 OA
BRANCH  14  16
ATOM     15  C   UNL     1      -0.419  10.057  23.236  0.00  0.00    +0.000 C 
ATOM     16  C   UNL     1      -0.567   9.043  22.118  0.00  0.00    +0.000 C 
ENDBRANCH  14  16
ENDBRANCH  12  14
ENDBRANCH   1  12
BRANCH   8  17
ATOM     17  C   UNL     1       6.090   3.998  15.230  0.00  0.00    +0.000 C 
BRANCH  17  18
ATOM     18  C   UNL     1       6.859   4.556  14.092  0.00  0.00    +0.000 A 
ATOM     19  C   UNL     1       6.809   4.418  12.724  0.00  0.00    +0.000 A 
ATOM     20  C   UNL     1       7.855   5.228  12.259  0.00  0.00    +0.000 A 
ATOM     21  N   UNL     1       8.506   5.835  13.256  0.00  0.00    +0.000 NA
ATOM     22  O   UNL     1       7.876   5.410  14.412  0.00  0.00    +0.000 OA
ENDBRANCH  17  18
ENDBRANCH   8  17
TORSDOF 5
ENDMDL
MODEL 5
REMARK VINA RESULT:      -6.2      3.215      9.004
REMARK  Name = 
REMARK  6 active torsions:
REMARK  status: ('A' for Active; 'I' for Inactive)
REMARK    1  A    between atoms: C_1  and  C_2
REMARK    2  A    between atoms: C_2  and  O_3
REMARK    3  A    between atoms: O_3  and  C_4
REMARK    4  A    between atoms: C_4  and  C_6
REMARK    5  A    between atoms: N_13  and  C_14
REMARK    6  A    between atoms: C_14  and  C_15
REMARK                            x       y       z     vdW  Elec       q    Type
REMARK                         _______ _______ _______ _____ _____    ______ ____
ROOT
ATOM      1  C   UNL     1       3.516   5.900  18.328  0.00  0.00    +0.000 A 
ATOM      2  C   UNL     1       3.585   7.108  17.674  0.00  0.00    +0.000 A 
ATOM      3  N   UNL     1       2.811   8.117  18.209  0.00  0.00    +0.000 NA
ATOM      4  C   UNL     1       2.176   7.703  19.285  0.00  0.00    +0.000 A 
ATOM      5  N   UNL     1       1.340   8.491  20.011  0.00  0.00    +0.000 N 
ATOM      6  C   UNL     1       1.073   8.275  21.434  0.00  0.00    +0.000 C 
ATOM      7  C   UNL     1       1.359   9.559  22.256  0.00  0.00    +0.000 C 
ATOM      8  N   UNL     1       0.754  10.808  21.730  0.00  0.00    +0.000 NA
ATOM      9  C   UNL     1       1.178  10.939  20.311  0.00  0.00    +0.000 C 
ATOM     10  C   UNL     1       0.830   9.732  19.419  0.00  0.00    +0.000 C 
ATOM     11  S   UNL     1       2.467   6.040  19.665  0.00  0.00    +0.000 S 
ENDROOT
BRANCH   1  12
ATOM     12  C   UNL     1       4.201   4.660  18.074  0.00  0.00    +0.000 C 
ATOM     13  O   UNL     1       5.352   4.390  18.395  0.00  0.00    +0.000 OA
BRANCH  12  14
ATOM     14  O   UNL     1       3.401   3.847  17.326  0.00  0.00    +0.000 OA
BRANCH  14  16
ATOM     15  C   UNL     1       1.969   2.305  18.442  0.00  0.00    +0.000 C 
ATOM     16  C   UNL     1       3.322   2.490  17.782  0.00  0.00    +0.000 C 
ENDBRANCH  14  16
ENDBRANCH  12  14
ENDBRANCH   1  12
BRANCH   8  17
ATOM     17  C   UNL     1      -0.713  10.763  21.888  0.00  0.00    +0.000 C 
BRANCH  17  18
ATOM     18  C   UNL     1      -1.267  11.916  22.638  0.00  0.00    +0.000 A 
ATOM     19  C   UNL     1      -2.530  12.330  22.991  0.00  0.00    +0.000 A 
ATOM     20  C   UNL     1      -2.316  13.529  23.686  0.00  0.00    +0.000 A 
ATOM     21  N   UNL     1      -1.019  13.841  23.769  0.00  0.00    +0.000 NA
ATOM     22  O   UNL     1      -0.358  12.822  23.107  0.00  0.00    +0.000 OA
ENDBRANCH  17  18
ENDBRANCH   8  17
TORSDOF 5
ENDMDL
MODEL 6
REMARK VINA RESULT:      -6.2      3.053      9.103
REMARK  Name = 
REMARK  6 active torsions:
REMARK  status: ('A' for Active; 'I' for Inactive)
REMARK    1  A    between atoms: C_1  and  C_2
REMARK    2  A    between atoms: C_2  and  O_3
REMARK    3  A    between atoms: O_3  and  C_4
REMARK    4  A    between atoms: C_4  and  C_6
REMARK    5  A    between atoms: N_13  and  C_14
REMARK    6  A    between atoms: C_14  and  C_15
REMARK                            x       y       z     vdW  Elec       q    Type
REMARK                         _______ _______ _______ _____ _____    ______ ____
ROOT
ATOM      1  C   UNL     1       3.516   6.021  18.124  0.00  0.00    +0.000 A 
ATOM      2  C   UNL     1       3.541   7.267  17.539  0.00  0.00    +0.000 A 
ATOM      3  N   UNL     1       2.770   8.228  18.158  0.00  0.00    +0.000 NA
ATOM      4  C   UNL     1       2.181   7.741  19.229  0.00  0.00    +0.000 A 
ATOM      5  N   UNL     1       1.359   8.471  20.028  0.00  0.00    +0.000 N 
ATOM      6  C   UNL     1       1.146   8.168  21.445  0.00  0.00    +0.000 C 
ATOM      7  C   UNL     1       1.440   9.407  22.330  0.00  0.00    +0.000 C 
ATOM      8  N   UNL     1       0.796  10.674  21.899  0.00  0.00    +0.000 NA
ATOM      9  C   UNL     1       1.167  10.893  20.476  0.00  0.00    +0.000 C 
ATOM     10  C   UNL     1       0.807   9.733  19.528  0.00  0.00    +0.000 C 
ATOM     11  S   UNL     1       2.513   6.065  19.502  0.00  0.00    +0.000 S 
ENDROOT
BRANCH   1  12
ATOM     12  C   UNL     1       4.211   4.812  17.774  0.00  0.00    +0.000 C 
ATOM     13  O   UNL     1       4.470   3.881  18.529  0.00  0.00    +0.000 OA
BRANCH  12  14
ATOM     14  O   UNL     1       4.633   4.891  16.479  0.00  0.00    +0.000 OA
BRANCH  14  16
ATOM     15  C   UNL     1       7.005   4.703  16.348  0.00  0.00    +0.000 C 
ATOM     16  C   UNL     1       5.688   3.983  16.130  0.00  0.00    +0.000 C 
ENDBRANCH  14  16
ENDBRANCH  12  14
ENDBRANCH   1  12
BRANCH   8  17
ATOM     17  C   UNL     1      -0.664  10.592  22.104  0.00  0.00    +0.000 C 
BRANCH  17  18
ATOM     18  C   UNL     1      -1.241  11.793  22.754  0.00  0.00    +0.000 A 
ATOM     19  C   UNL     1      -2.513  12.214  23.065  0.00  0.00    +0.000 A 
ATOM     20  C   UNL     1      -2.324  13.469  23.660  0.00  0.00    +0.000 A 
ATOM     21  N   UNL     1      -1.033  13.808  23.726  0.00  0.00    +0.000 NA
ATOM     22  O   UNL     1      -0.351  12.749  23.153  0.00  0.00    +0.000 OA
ENDBRANCH  17  18
ENDBRANCH   8  17
TORSDOF 5
ENDMDL
MODEL 7
REMARK VINA RESULT:      -6.2      2.808      8.786
REMARK  Name = 
REMARK  6 active torsions:
REMARK  status: ('A' for Active; 'I' for Inactive)
REMARK    1  A    between atoms: C_1  and  C_2
REMARK    2  A    between atoms: C_2  and  O_3
REMARK    3  A    between atoms: O_3  and  C_4
REMARK    4  A    between atoms: C_4  and  C_6
REMARK    5  A    between atoms: N_13  and  C_14
REMARK    6  A    between atoms: C_14  and  C_15
REMARK                            x       y       z     vdW  Elec       q    Type
REMARK                         _______ _______ _______ _____ _____    ______ ____
ROOT
ATOM      1  C   UNL     1       3.175   4.921  18.538  0.00  0.00    +0.000 A 
ATOM      2  C   UNL     1       2.516   4.704  19.726  0.00  0.00    +0.000 A 
ATOM      3  N   UNL     1       1.988   5.829  20.326  0.00  0.00    +0.000 NA
ATOM      4  C   UNL     1       2.207   6.900  19.593  0.00  0.00    +0.000 A 
ATOM      5  N   UNL     1       1.799   8.146  19.947  0.00  0.00    +0.000 N 
ATOM      6  C   UNL     1       1.532   9.206  18.973  0.00  0.00    +0.000 C 
ATOM      7  C   UNL     1       0.104   9.785  19.157  0.00  0.00    +0.000 C 
ATOM      8  N   UNL     1      -0.266  10.158  20.545  0.00  0.00    +0.000 NA
ATOM      9  C   UNL     1      -0.024   8.966  21.400  0.00  0.00    +0.000 C 
ATOM     10  C   UNL     1       1.409   8.406  21.337  0.00  0.00    +0.000 C 
ATOM     11  S   UNL     1       3.112   6.580  18.153  0.00  0.00    +0.000 S 
ENDROOT
BRANCH   1  12
ATOM     12  C   UNL     1       3.808   3.993  17.639  0.00  0.00    +0.000 C 
ATOM     13  O   UNL     1       3.822   2.773  17.750  0.00  0.00    +0.000 OA
BRANCH  12  14
ATOM     14  O   UNL     1       4.485   4.685  16.678  0.00  0.00    +0.000 OA
BRANCH  14  16
ATOM     15  C   UNL     1       5.891   4.213  14.814  0.00  0.00    +0.000 C 
ATOM     16  C   UNL     1       5.762   4.135  16.323  0.00  0.00    +0.000 C 
ENDBRANCH  14  16
ENDBRANCH  12  14
ENDBRANCH   1  12
BRANCH   8  17
ATOM     17  C   UNL     1       0.511  11.338  20.974  0.00  0.00    +0.000 C 
BRANCH  17  18
ATOM     18  C   UNL     1      -0.226  12.230  21.901  0.00  0.00    +0.000 A 
ATOM     19  C   UNL     1      -1.395  12.134  22.619  0.00  0.00    +0.000 A 
ATOM     20  C   UNL     1      -1.498  13.370  23.274  0.00  0.00    +0.000 A 
ATOM     21  N   UNL     1      -0.469  14.176  22.997  0.00  0.00    +0.000 NA
ATOM     22  O   UNL     1       0.332  13.456  22.129  0.00  0.00    +0.000 OA
ENDBRANCH  17  18
ENDBRANCH   8  17
TORSDOF 5
ENDMDL
MODEL 8
REMARK VINA RESULT:      -6.1      2.161      2.927
REMARK  Name = 
REMARK  6 active torsions:
REMARK  status: ('A' for Active; 'I' for Inactive)
REMARK    1  A    between atoms: C_1  and  C_2
REMARK    2  A    between atoms: C_2  and  O_3
REMARK    3  A    between atoms: O_3  and  C_4
REMARK    4  A    between atoms: C_4  and  C_6
REMARK    5  A    between atoms: N_13  and  C_14
REMARK    6  A    between atoms: C_14  and  C_15
REMARK                            x       y       z     vdW  Elec       q    Type
REMARK                         _______ _______ _______ _____ _____    ______ ____
ROOT
ATOM      1  C   UNL     1       0.612  10.041  20.987  0.00  0.00    +0.000 A 
ATOM      2  C   UNL     1       0.949  10.068  19.654  0.00  0.00    +0.000 A 
ATOM      3  N   UNL     1       1.570   8.933  19.176  0.00  0.00    +0.000 NA
ATOM      4  C   UNL     1       1.682   8.024  20.121  0.00  0.00    +0.000 A 
ATOM      5  N   UNL     1       2.259   6.809  19.928  0.00  0.00    +0.000 N 
ATOM      6  C   UNL     1       1.924   5.629  20.727  0.00  0.00    +0.000 C 
ATOM      7  C   UNL     1       1.498   4.444  19.821  0.00  0.00    +0.000 C 
ATOM      8  N   UNL     1       2.406   4.144  18.685  0.00  0.00    +0.000 NA
ATOM      9  C   UNL     1       2.586   5.406  17.920  0.00  0.00    +0.000 C 
ATOM     10  C   UNL     1       3.105   6.596  18.749  0.00  0.00    +0.000 C 
ATOM     11  S   UNL     1       1.068   8.540  21.655  0.00  0.00    +0.000 S 
ENDROOT
BRANCH   1  12
ATOM     12  C   UNL     1      -0.064  11.017  21.799  0.00  0.00    +0.000 C 
ATOM     13  O   UNL     1      -0.316  10.916  22.995  0.00  0.00    +0.000 OA
BRANCH  12  14
ATOM     14  O   UNL     1      -0.477  12.052  21.012  0.00  0.00    +0.000 OA
BRANCH  14  16
ATOM     15  C   UNL     1      -2.410  12.202  19.628  0.00  0.00    +0.000 C 
ATOM     16  C   UNL     1      -1.887  12.313  21.047  0.00  0.00    +0.000 C 
ENDBRANCH  14  16
ENDBRANCH  12  14
ENDBRANCH   1  12
BRANCH   8  17
ATOM     17  C   UNL     1       3.680   3.594  19.190  0.00  0.00    +0.000 C 
BRANCH  17  18
ATOM     18  C   UNL     1       4.850   3.933  18.345  0.00  0.00    +0.000 A 
ATOM     19  C   UNL     1       5.101   3.951  16.993  0.00  0.00    +0.000 A 
ATOM     20  C   UNL     1       6.439   4.358  16.897  0.00  0.00    +0.000 A 
ATOM     21  N   UNL     1       6.985   4.587  18.096  0.00  0.00    +0.000 NA
ATOM     22  O   UNL     1       5.981   4.317  19.009  0.00  0.00    +0.000 OA
ENDBRANCH  17  18
ENDBRANCH   8  17
TORSDOF 5
ENDMDL
MODEL 9
REMARK VINA RESULT:      -6.1      1.564      2.030
REMARK  Name = 
REMARK  6 active torsions:
REMARK  status: ('A' for Active; 'I' for Inactive)
REMARK    1  A    between atoms: C_1  and  C_2
REMARK    2  A    between atoms: C_2  and  O_3
REMARK    3  A    between atoms: O_3  and  C_4
REMARK    4  A    between atoms: C_4  and  C_6
REMARK    5  A    between atoms: N_13  and  C_14
REMARK    6  A    between atoms: C_14  and  C_15
REMARK                            x       y       z     vdW  Elec       q    Type
REMARK                         _______ _______ _______ _____ _____    ______ ____
ROOT
ATOM      1  C   UNL     1       1.482   7.758  20.490  0.00  0.00    +0.000 A 
ATOM      2  C   UNL     1       1.758   6.481  20.921  0.00  0.00    +0.000 A 
ATOM      3  N   UNL     1       2.466   5.697  20.035  0.00  0.00    +0.000 NA
ATOM      4  C   UNL     1       2.765   6.370  18.944  0.00  0.00    +0.000 A 
ATOM      5  N   UNL     1       3.456   5.840  17.902  0.00  0.00    +0.000 N 
ATOM      6  C   UNL     1       4.253   6.648  16.977  0.00  0.00    +0.000 C 
ATOM      7  C   UNL     1       5.712   6.128  16.896  0.00  0.00    +0.000 C 
ATOM      8  N   UNL     1       5.863   4.667  16.677  0.00  0.00    +0.000 NA
ATOM      9  C   UNL     1       5.074   3.980  17.733  0.00  0.00    +0.000 C 
ATOM     10  C   UNL     1       3.589   4.383  17.796  0.00  0.00    +0.000 C 
ATOM     11  S   UNL     1       2.149   7.987  18.938  0.00  0.00    +0.000 S 
ENDROOT
BRANCH   1  12
ATOM     12  C   UNL     1       0.805   8.841  21.153  0.00  0.00    +0.000 C 
ATOM     13  O   UNL     1       0.196   8.772  22.215  0.00  0.00    +0.000 OA
BRANCH  12  14
ATOM     14  O   UNL     1       0.858   9.955  20.369  0.00  0.00    +0.000 OA
BRANCH  14  16
ATOM     15  C   UNL     1      -1.176  10.556  19.282  0.00  0.00    +0.000 C 
ATOM     16  C   UNL     1      -0.279  10.824  20.475  0.00  0.00    +0.000 C 
ENDBRANCH  14  16
ENDBRANCH  12  14
ENDBRANCH   1  12
BRANCH   8  17
ATOM     17  C   UNL     1       5.423   4.315  15.312  0.00  0.00    +0.000 C 
BRANCH  17  18
ATOM     18  C   UNL     1       6.439   4.594  14.269  0.00  0.00    +0.000 A 
ATOM     19  C   UNL     1       6.678   4.132  12.996  0.00  0.00    +0.000 A 
ATOM     20  C   UNL     1       7.830   4.821  12.591  0.00  0.00    +0.000 A 
ATOM     21  N   UNL     1       8.275   5.659  13.533  0.00  0.00    +0.000 NA
ATOM     22  O   UNL     1       7.396   5.514  14.591  0.00  0.00    +0.000 OA
ENDBRANCH  17  18
ENDBRANCH   8  17
TORSDOF 5
ENDMDL
