MODEL 1
REMARK VINA RESULT:      -6.8      0.000      0.000
REMARK  Name = 
REMARK  10 active torsions:
REMARK  status: ('A' for Active; 'I' for Inactive)
REMARK    1  A    between atoms: C_1  and  C_2
REMARK    2  A    between atoms: C_2  and  C_3
REMARK    3  A    between atoms: C_3  and  C_4
REMARK    4  A    between atoms: C_4  and  C_5
REMARK    5  A    between atoms: C_4  and  N_6
REMARK    6  A    between atoms: N_6  and  C_7
REMARK    7  A    between atoms: N_6  and  S_16
REMARK    8  A    between atoms: C_13  and  C_14
REMARK    9  A    between atoms: C_14  and  O_15
REMARK   10  A    between atoms: S_16  and  C_19
REMARK                            x       y       z     vdW  Elec       q    Type
REMARK                         _______ _______ _______ _____ _____    ______ ____
ROOT
ATOM      1  N   UNL     1       3.050   4.937  18.806  0.00  0.00    +0.000 N 
ENDROOT
BRANCH   1   2
ATOM      2  C   UNL     1       2.583   6.289  18.996  0.00  0.00    +0.000 A 
ATOM      3  C   UNL     1       1.937   6.576  20.201  0.00  0.00    +0.000 A 
ATOM      4  C   UNL     1       1.495   7.869  20.477  0.00  0.00    +0.000 A 
ATOM      5 CL   UNL     1       0.606   8.179  21.919  0.00  0.00    +0.000 Cl
ATOM      6  C   UNL     1       1.780   8.908  19.603  0.00  0.00    +0.000 A 
ATOM      7  C   UNL     1       2.475   8.641  18.425  0.00  0.00    +0.000 A 
ATOM      8  C   UNL     1       2.863   7.326  18.081  0.00  0.00    +0.000 A 
BRANCH   8   9
ATOM      9  C   UNL     1       3.653   7.100  16.814  0.00  0.00    +0.000 C 
BRANCH   9  10
ATOM     10  O   UNL     1       5.017   7.488  16.968  0.00  0.00    +0.000 OA
ATOM     11  H   UNL     1       5.040   8.172  17.655  0.00  0.00    +0.000 HD
ENDBRANCH   9  10
ENDBRANCH   8   9
ENDBRANCH   1   2
BRANCH   1  12
ATOM     12  S   UNL     1       4.720   4.606  19.059  0.00  0.00    +0.000 S 
ATOM     13  O   UNL     1       5.356   5.728  19.712  0.00  0.00    +0.000 OA
ATOM     14  O   UNL     1       4.782   3.292  19.678  0.00  0.00    +0.000 OA
BRANCH  12  15
ATOM     15  C   UNL     1       5.481   4.426  17.442  0.00  0.00    +0.000 A 
ATOM     16  C   UNL     1       4.689   3.933  16.383  0.00  0.00    +0.000 A 
ATOM     17  C   UNL     1       5.196   3.867  15.079  0.00  0.00    +0.000 A 
ATOM     18  C   UNL     1       6.478   4.325  14.817  0.00  0.00    +0.000 A 
ATOM     19 CL   UNL     1       7.077   4.341  13.204  0.00  0.00    +0.000 Cl
ATOM     20  C   UNL     1       7.298   4.731  15.864  0.00  0.00    +0.000 A 
ATOM     21  C   UNL     1       6.826   4.700  17.187  0.00  0.00    +0.000 A 
ATOM     22 CL   UNL     1       8.041   4.823  18.400  0.00  0.00    +0.000 Cl
ENDBRANCH  12  15
ENDBRANCH   1  12
BRANCH   1  23
ATOM     23  C   UNL     1       2.061   3.811  18.580  0.00  0.00    +0.000 C 
ATOM     24  C   UNL     1       1.253   4.067  17.310  0.00  0.00    +0.000 C 
BRANCH  23  25
ATOM     25  C   UNL     1       1.106   3.607  19.788  0.00  0.00    +0.000 C 
BRANCH  25  27
ATOM     26  C   UNL     1       2.173   3.103  22.000  0.00  0.00    +0.000 C 
ATOM     27  C   UNL     1       1.499   2.503  20.771  0.00  0.00    +0.000 C 
ENDBRANCH  25  27
ENDBRANCH  23  25
ENDBRANCH   1  23
TORSDOF 8
ENDMDL
MODEL 2
REMARK VINA RESULT:      -6.1      5.998      9.341
REMARK  Name = 
REMARK  10 active torsions:
REMARK  status: ('A' for Active; 'I' for Inactive)
REMARK    1  A    between atoms: C_1  and  C_2
REMARK    2  A    between atoms: C_2  and  C_3
REMARK    3  A    between atoms: C_3  and  C_4
REMARK    4  A    between atoms: C_4  and  C_5
REMARK    5  A    between atoms: C_4  and  N_6
REMARK    6  A    between atoms: N_6  and  C_7
REMARK    7  A    between atoms: N_6  and  S_16
REMARK    8  A    between atoms: C_13  and  C_14
REMARK    9  A    between atoms: C_14  and  O_15
REMARK   10  A    between atoms: S_16  and  C_19
REMARK                            x       y       z     vdW  Elec       q    Type
REMARK                         _______ _______ _______ _____ _____    ______ ____
ROOT
ATOM      1  N   UNL     1      -0.172  11.417  19.889  0.00  0.00    +0.000 N 
ENDROOT
BRANCH   1   2
ATOM      2  C   UNL     1       0.451  10.118  19.978  0.00  0.00    +0.000 A 
ATOM      3  C   UNL     1       1.307   9.750  18.937  0.00  0.00    +0.000 A 
ATOM      4  C   UNL     1       1.980   8.529  18.972  0.00  0.00    +0.000 A 
ATOM      5 CL   UNL     1       2.945   8.047  17.630  0.00  0.00    +0.000 Cl
ATOM      6  C   UNL     1       1.885   7.709  20.088  0.00  0.00    +0.000 A 
ATOM      7  C   UNL     1       1.078   8.095  21.156  0.00  0.00    +0.000 A 
ATOM      8  C   UNL     1       0.320   9.288  21.112  0.00  0.00    +0.000 A 
BRANCH   8   9
ATOM      9  C   UNL     1      -0.502   9.681  22.316  0.00  0.00    +0.000 C 
BRANCH   9  10
ATOM     10  O   UNL     1      -0.910   8.541  23.070  0.00  0.00    +0.000 OA
ATOM     11  H   UNL     1      -1.764   8.762  23.474  0.00  0.00    +0.000 HD
ENDBRANCH   9  10
ENDBRANCH   8   9
ENDBRANCH   1   2
BRANCH   1  12
ATOM     12  S   UNL     1       0.455  12.692  20.861  0.00  0.00    +0.000 S 
ATOM     13  O   UNL     1      -0.485  13.029  21.906  0.00  0.00    +0.000 OA
ATOM     14  O   UNL     1       1.808  12.297  21.218  0.00  0.00    +0.000 OA
BRANCH  12  15
ATOM     15  C   UNL     1       0.624  14.136  19.805  0.00  0.00    +0.000 A 
ATOM     16  C   UNL     1      -0.363  15.140  19.887  0.00  0.00    +0.000 A 
ATOM     17  C   UNL     1      -0.232  16.335  19.166  0.00  0.00    +0.000 A 
ATOM     18  C   UNL     1       0.899  16.548  18.392  0.00  0.00    +0.000 A 
ATOM     19 CL   UNL     1       1.119  18.049  17.580  0.00  0.00    +0.000 Cl
ATOM     20  C   UNL     1       1.835  15.533  18.235  0.00  0.00    +0.000 A 
ATOM     21  C   UNL     1       1.653  14.295  18.875  0.00  0.00    +0.000 A 
ATOM     22 CL   UNL     1       2.637  13.013  18.282  0.00  0.00    +0.000 Cl
ENDBRANCH  12  15
ENDBRANCH   1  12
BRANCH   1  23
ATOM     23  C   UNL     1      -1.220  11.691  18.830  0.00  0.00    +0.000 C 
ATOM     24  C   UNL     1      -2.523  12.147  19.483  0.00  0.00    +0.000 C 
BRANCH  23  25
ATOM     25  C   UNL     1      -1.482  10.460  17.920  0.00  0.00    +0.000 C 
BRANCH  25  27
ATOM     26  C   UNL     1      -2.754  10.888  15.802  0.00  0.00    +0.000 C 
ATOM     27  C   UNL     1      -2.855  10.407  17.247  0.00  0.00    +0.000 C 
ENDBRANCH  25  27
ENDBRANCH  23  25
ENDBRANCH   1  23
TORSDOF 8
ENDMDL
MODEL 3
REMARK VINA RESULT:      -6.1      5.845      9.798
REMARK  Name = 
REMARK  10 active torsions:
REMARK  status: ('A' for Active; 'I' for Inactive)
REMARK    1  A    between atoms: C_1  and  C_2
REMARK    2  A    between atoms: C_2  and  C_3
REMARK    3  A    between atoms: C_3  and  C_4
REMARK    4  A    between atoms: C_4  and  C_5
REMARK    5  A    between atoms: C_4  and  N_6
REMARK    6  A    between atoms: N_6  and  C_7
REMARK    7  A    between atoms: N_6  and  S_16
REMARK    8  A    between atoms: C_13  and  C_14
REMARK    9  A    between atoms: C_14  and  O_15
REMARK   10  A    between atoms: S_16  and  C_19
REMARK                            x       y       z     vdW  Elec       q    Type
REMARK                         _______ _______ _______ _____ _____    ______ ____
ROOT
ATOM      1  N   UNL     1       0.210  11.420  19.469  0.00  0.00    +0.000 N 
ENDROOT
BRANCH   1   2
ATOM      2  C   UNL     1       0.636  10.091  19.840  0.00  0.00    +0.000 A 
ATOM      3  C   UNL     1       1.467   9.417  18.942  0.00  0.00    +0.000 A 
ATOM      4  C   UNL     1       1.955   8.146  19.248  0.00  0.00    +0.000 A 
ATOM      5 CL   UNL     1       2.889   7.287  18.084  0.00  0.00    +0.000 Cl
ATOM      6  C   UNL     1       1.703   7.579  20.489  0.00  0.00    +0.000 A 
ATOM      7  C   UNL     1       0.922   8.270  21.412  0.00  0.00    +0.000 A 
ATOM      8  C   UNL     1       0.346   9.523  21.098  0.00  0.00    +0.000 A 
BRANCH   8   9
ATOM      9  C   UNL     1      -0.454  10.249  22.153  0.00  0.00    +0.000 C 
BRANCH   9  10
ATOM     10  O   UNL     1      -0.659   9.440  23.309  0.00  0.00    +0.000 OA
ATOM     11  H   UNL     1      -1.169   8.666  23.024  0.00  0.00    +0.000 HD
ENDBRANCH   9  10
ENDBRANCH   8   9
ENDBRANCH   1   2
BRANCH   1  12
ATOM     12  S   UNL     1       1.285  12.732  19.761  0.00  0.00    +0.000 S 
ATOM     13  O   UNL     1       1.919  12.579  21.051  0.00  0.00    +0.000 OA
ATOM     14  O   UNL     1       2.111  12.850  18.570  0.00  0.00    +0.000 OA
BRANCH  12  15
ATOM     15  C   UNL     1       0.296  14.230  19.825  0.00  0.00    +0.000 A 
ATOM     16  C   UNL     1       0.405  15.147  18.758  0.00  0.00    +0.000 A 
ATOM     17  C   UNL     1      -0.415  16.282  18.700  0.00  0.00    +0.000 A 
ATOM     18  C   UNL     1      -1.372  16.487  19.683  0.00  0.00    +0.000 A 
ATOM     19 CL   UNL     1      -2.451  17.824  19.572  0.00  0.00    +0.000 Cl
ATOM     20  C   UNL     1      -1.430  15.640  20.784  0.00  0.00    +0.000 A 
ATOM     21  C   UNL     1      -0.538  14.560  20.895  0.00  0.00    +0.000 A 
ATOM     22 CL   UNL     1      -0.436  13.854  22.462  0.00  0.00    +0.000 Cl
ENDBRANCH  12  15
ENDBRANCH   1  12
BRANCH   1  23
ATOM     23  C   UNL     1      -1.063  11.621  18.673  0.00  0.00    +0.000 C 
ATOM     24  C   UNL     1      -2.238  11.879  19.614  0.00  0.00    +0.000 C 
BRANCH  23  25
ATOM     25  C   UNL     1      -1.379  10.417  17.744  0.00  0.00    +0.000 C 
BRANCH  25  27
ATOM     26  C   UNL     1      -3.256  10.415  16.081  0.00  0.00    +0.000 C 
ATOM     27  C   UNL     1      -2.862  10.115  17.524  0.00  0.00    +0.000 C 
ENDBRANCH  25  27
ENDBRANCH  23  25
ENDBRANCH   1  23
TORSDOF 8
ENDMDL
MODEL 4
REMARK VINA RESULT:      -6.1      6.045      9.690
REMARK  Name = 
REMARK  10 active torsions:
REMARK  status: ('A' for Active; 'I' for Inactive)
REMARK    1  A    between atoms: C_1  and  C_2
REMARK    2  A    between atoms: C_2  and  C_3
REMARK    3  A    between atoms: C_3  and  C_4
REMARK    4  A    between atoms: C_4  and  C_5
REMARK    5  A    between atoms: C_4  and  N_6
REMARK    6  A    between atoms: N_6  and  C_7
REMARK    7  A    between atoms: N_6  and  S_16
REMARK    8  A    between atoms: C_13  and  C_14
REMARK    9  A    between atoms: C_14  and  O_15
REMARK   10  A    between atoms: S_16  and  C_19
REMARK                            x       y       z     vdW  Elec       q    Type
REMARK                         _______ _______ _______ _____ _____    ______ ____
ROOT
ATOM      1  N   UNL     1      -0.177  11.452  20.113  0.00  0.00    +0.000 N 
ENDROOT
BRANCH   1   2
ATOM      2  C   UNL     1       0.418  10.137  20.143  0.00  0.00    +0.000 A 
ATOM      3  C   UNL     1       1.276   9.803  19.092  0.00  0.00    +0.000 A 
ATOM      4  C   UNL     1       1.923   8.568  19.072  0.00  0.00    +0.000 A 
ATOM      5 CL   UNL     1       2.890   8.132  17.715  0.00  0.00    +0.000 Cl
ATOM      6  C   UNL     1       1.802   7.697  20.145  0.00  0.00    +0.000 A 
ATOM      7  C   UNL     1       0.994   8.047  21.225  0.00  0.00    +0.000 A 
ATOM      8  C   UNL     1       0.261   9.256  21.234  0.00  0.00    +0.000 A 
BRANCH   8   9
ATOM      9  C   UNL     1      -0.563   9.607  22.450  0.00  0.00    +0.000 C 
BRANCH   9  10
ATOM     10  O   UNL     1       0.258   9.979  23.554  0.00  0.00    +0.000 OA
ATOM     11  H   UNL     1      -0.308  10.459  24.178  0.00  0.00    +0.000 HD
ENDBRANCH   9  10
ENDBRANCH   8   9
ENDBRANCH   1   2
BRANCH   1  12
ATOM     12  S   UNL     1       0.520  12.686  21.090  0.00  0.00    +0.000 S 
ATOM     13  O   UNL     1      -0.217  12.817  22.327  0.00  0.00    +0.000 OA
ATOM     14  O   UNL     1       1.946  12.407  21.135  0.00  0.00    +0.000 OA
BRANCH  12  15
ATOM     15  C   UNL     1       0.349  14.236  20.197  0.00  0.00    +0.000 A 
ATOM     16  C   UNL     1       1.398  14.631  19.340  0.00  0.00    +0.000 A 
ATOM     17  C   UNL     1       1.279  15.775  18.541  0.00  0.00    +0.000 A 
ATOM     18  C   UNL     1       0.102  16.508  18.563  0.00  0.00    +0.000 A 
ATOM     19 CL   UNL     1      -0.095  17.858  17.514  0.00  0.00    +0.000 Cl
ATOM     20  C   UNL     1      -0.903  16.180  19.465  0.00  0.00    +0.000 A 
ATOM     21  C   UNL     1      -0.743  15.094  20.342  0.00  0.00    +0.000 A 
ATOM     22 CL   UNL     1      -1.848  15.048  21.661  0.00  0.00    +0.000 Cl
ENDBRANCH  12  15
ENDBRANCH   1  12
BRANCH   1  23
ATOM     23  C   UNL     1      -1.261  11.778  19.106  0.00  0.00    +0.000 C 
ATOM     24  C   UNL     1      -2.595  11.990  19.818  0.00  0.00    +0.000 C 
BRANCH  23  25
ATOM     25  C   UNL     1      -1.406  10.683  18.014  0.00  0.00    +0.000 C 
BRANCH  25  27
ATOM     26  C   UNL     1      -3.024   9.885  16.272  0.00  0.00    +0.000 C 
ATOM     27  C   UNL     1      -2.829  10.182  17.756  0.00  0.00    +0.000 C 
ENDBRANCH  25  27
ENDBRANCH  23  25
ENDBRANCH   1  23
TORSDOF 8
ENDMDL
MODEL 5
REMARK VINA RESULT:      -6.0      2.459      5.642
REMARK  Name = 
REMARK  10 active torsions:
REMARK  status: ('A' for Active; 'I' for Inactive)
REMARK    1  A    between atoms: C_1  and  C_2
REMARK    2  A    between atoms: C_2  and  C_3
REMARK    3  A    between atoms: C_3  and  C_4
REMARK    4  A    between atoms: C_4  and  C_5
REMARK    5  A    between atoms: C_4  and  N_6
REMARK    6  A    between atoms: N_6  and  C_7
REMARK    7  A    between atoms: N_6  and  S_16
REMARK    8  A    between atoms: C_13  and  C_14
REMARK    9  A    between atoms: C_14  and  O_15
REMARK   10  A    between atoms: S_16  and  C_19
REMARK                            x       y       z     vdW  Elec       q    Type
REMARK                         _______ _______ _______ _____ _____    ______ ____
ROOT
ATOM      1  N   UNL     1       3.340   5.108  17.521  0.00  0.00    +0.000 N 
ENDROOT
BRANCH   1   2
ATOM      2  C   UNL     1       4.673   4.811  17.052  0.00  0.00    +0.000 A 
ATOM      3  C   UNL     1       4.828   4.581  15.682  0.00  0.00    +0.000 A 
ATOM      4  C   UNL     1       6.091   4.329  15.146  0.00  0.00    +0.000 A 
ATOM      5 CL   UNL     1       6.248   3.942  13.475  0.00  0.00    +0.000 Cl
ATOM      6  C   UNL     1       7.220   4.403  15.949  0.00  0.00    +0.000 A 
ATOM      7  C   UNL     1       7.079   4.689  17.305  0.00  0.00    +0.000 A 
ATOM      8  C   UNL     1       5.805   4.867  17.892  0.00  0.00    +0.000 A 
BRANCH   8   9
ATOM      9  C   UNL     1       5.713   5.219  19.357  0.00  0.00    +0.000 C 
BRANCH   9  10
ATOM     10  O   UNL     1       7.003   5.366  19.945  0.00  0.00    +0.000 OA
ATOM     11  H   UNL     1       7.652   5.116  19.270  0.00  0.00    +0.000 HD
ENDBRANCH   9  10
ENDBRANCH   8   9
ENDBRANCH   1   2
BRANCH   1  12
ATOM     12  S   UNL     1       2.307   3.794  17.932  0.00  0.00    +0.000 S 
ATOM     13  O   UNL     1       1.122   4.283  18.599  0.00  0.00    +0.000 OA
ATOM     14  O   UNL     1       2.168   2.998  16.723  0.00  0.00    +0.000 OA
BRANCH  12  15
ATOM     15  C   UNL     1       3.195   2.761  19.103  0.00  0.00    +0.000 A 
ATOM     16  C   UNL     1       3.937   1.671  18.602  0.00  0.00    +0.000 A 
ATOM     17  C   UNL     1       4.732   0.892  19.453  0.00  0.00    +0.000 A 
ATOM     18  C   UNL     1       4.819   1.218  20.798  0.00  0.00    +0.000 A 
ATOM     19 CL   UNL     1       5.867   0.330  21.835  0.00  0.00    +0.000 Cl
ATOM     20  C   UNL     1       4.026   2.233  21.320  0.00  0.00    +0.000 A 
ATOM     21  C   UNL     1       3.150   2.948  20.486  0.00  0.00    +0.000 A 
ATOM     22 CL   UNL     1       1.949   3.870  21.305  0.00  0.00    +0.000 Cl
ENDBRANCH  12  15
ENDBRANCH   1  12
BRANCH   1  23
ATOM     23  C   UNL     1       2.938   6.537  17.824  0.00  0.00    +0.000 C 
ATOM     24  C   UNL     1       4.008   7.504  17.322  0.00  0.00    +0.000 C 
BRANCH  23  25
ATOM     25  C   UNL     1       2.674   6.772  19.336  0.00  0.00    +0.000 C 
BRANCH  25  27
ATOM     26  C   UNL     1       1.336   7.914  21.123  0.00  0.00    +0.000 C 
ATOM     27  C   UNL     1       1.835   8.003  19.684  0.00  0.00    +0.000 C 
ENDBRANCH  25  27
ENDBRANCH  23  25
ENDBRANCH   1  23
TORSDOF 8
ENDMDL
MODEL 6
REMARK VINA RESULT:      -5.9      1.632      2.462
REMARK  Name = 
REMARK  10 active torsions:
REMARK  status: ('A' for Active; 'I' for Inactive)
REMARK    1  A    between atoms: C_1  and  C_2
REMARK    2  A    between atoms: C_2  and  C_3
REMARK    3  A    between atoms: C_3  and  C_4
REMARK    4  A    between atoms: C_4  and  C_5
REMARK    5  A    between atoms: C_4  and  N_6
REMARK    6  A    between atoms: N_6  and  C_7
REMARK    7  A    between atoms: N_6  and  S_16
REMARK    8  A    between atoms: C_13  and  C_14
REMARK    9  A    between atoms: C_14  and  O_15
REMARK   10  A    between atoms: S_16  and  C_19
REMARK                            x       y       z     vdW  Elec       q    Type
REMARK                         _______ _______ _______ _____ _____    ______ ____
ROOT
ATOM      1  N   UNL     1       3.481   4.960  18.198  0.00  0.00    +0.000 N 
ENDROOT
BRANCH   1   2
ATOM      2  C   UNL     1       2.873   6.074  18.886  0.00  0.00    +0.000 A 
ATOM      3  C   UNL     1       2.694   7.251  18.156  0.00  0.00    +0.000 A 
ATOM      4  C   UNL     1       2.075   8.357  18.738  0.00  0.00    +0.000 A 
ATOM      5 CL   UNL     1       1.962   9.834  17.859  0.00  0.00    +0.000 Cl
ATOM      6  C   UNL     1       1.540   8.269  20.015  0.00  0.00    +0.000 A 
ATOM      7  C   UNL     1       1.663   7.079  20.729  0.00  0.00    +0.000 A 
ATOM      8  C   UNL     1       2.357   5.969  20.195  0.00  0.00    +0.000 A 
BRANCH   8   9
ATOM      9  C   UNL     1       2.421   4.689  20.994  0.00  0.00    +0.000 C 
BRANCH   9  10
ATOM     10  O   UNL     1       1.132   4.100  21.149  0.00  0.00    +0.000 OA
ATOM     11  H   UNL     1       0.779   3.955  20.257  0.00  0.00    +0.000 HD
ENDBRANCH   9  10
ENDBRANCH   8   9
ENDBRANCH   1   2
BRANCH   1  12
ATOM     12  S   UNL     1       5.144   4.628  18.492  0.00  0.00    +0.000 S 
ATOM     13  O   UNL     1       5.708   5.640  19.358  0.00  0.00    +0.000 OA
ATOM     14  O   UNL     1       5.212   3.231  18.890  0.00  0.00    +0.000 OA
BRANCH  12  15
ATOM     15  C   UNL     1       5.998   4.734  16.915  0.00  0.00    +0.000 A 
ATOM     16  C   UNL     1       5.764   3.721  15.961  0.00  0.00    +0.000 A 
ATOM     17  C   UNL     1       6.320   3.803  14.677  0.00  0.00    +0.000 A 
ATOM     18  C   UNL     1       7.079   4.909  14.328  0.00  0.00    +0.000 A 
ATOM     19 CL   UNL     1       7.686   5.069  12.726  0.00  0.00    +0.000 Cl
ATOM     20  C   UNL     1       7.389   5.869  15.285  0.00  0.00    +0.000 A 
ATOM     21  C   UNL     1       6.918   5.736  16.601  0.00  0.00    +0.000 A 
ATOM     22 CL   UNL     1       7.697   6.741  17.763  0.00  0.00    +0.000 Cl
ENDBRANCH  12  15
ENDBRANCH   1  12
BRANCH   1  23
ATOM     23  C   UNL     1       2.628   4.000  17.394  0.00  0.00    +0.000 C 
ATOM     24  C   UNL     1       1.150   4.359  17.541  0.00  0.00    +0.000 C 
BRANCH  23  25
ATOM     25  C   UNL     1       2.860   2.519  17.796  0.00  0.00    +0.000 C 
BRANCH  25  27
ATOM     26  C   UNL     1       0.681   1.741  18.761  0.00  0.00    +0.000 C 
ATOM     27  C   UNL     1       2.144   2.051  19.064  0.00  0.00    +0.000 C 
ENDBRANCH  25  27
ENDBRANCH  23  25
ENDBRANCH   1  23
TORSDOF 8
ENDMDL
MODEL 7
REMARK VINA RESULT:      -5.8      7.032     10.570
REMARK  Name = 
REMARK  10 active torsions:
REMARK  status: ('A' for Active; 'I' for Inactive)
REMARK    1  A    between atoms: C_1  and  C_2
REMARK    2  A    between atoms: C_2  and  C_3
REMARK    3  A    between atoms: C_3  and  C_4
REMARK    4  A    between atoms: C_4  and  C_5
REMARK    5  A    between atoms: C_4  and  N_6
REMARK    6  A    between atoms: N_6  and  C_7
REMARK    7  A    between atoms: N_6  and  S_16
REMARK    8  A    between atoms: C_13  and  C_14
REMARK    9  A    between atoms: C_14  and  O_15
REMARK   10  A    between atoms: S_16  and  C_19
REMARK                            x       y       z     vdW  Elec       q    Type
REMARK                         _______ _______ _______ _____ _____    ______ ____
ROOT
ATOM      1  N   UNL     1       0.343  12.613  19.540  0.00  0.00    +0.000 N 
ENDROOT
BRANCH   1   2
ATOM      2  C   UNL     1      -0.601  11.691  18.953  0.00  0.00    +0.000 A 
ATOM      3  C   UNL     1      -1.914  12.140  18.796  0.00  0.00    +0.000 A 
ATOM      4  C   UNL     1      -2.874  11.323  18.199  0.00  0.00    +0.000 A 
ATOM      5 CL   UNL     1      -4.511  11.851  18.112  0.00  0.00    +0.000 Cl
ATOM      6  C   UNL     1      -2.513  10.095  17.663  0.00  0.00    +0.000 A 
ATOM      7  C   UNL     1      -1.192   9.665  17.764  0.00  0.00    +0.000 A 
ATOM      8  C   UNL     1      -0.216  10.436  18.438  0.00  0.00    +0.000 A 
BRANCH   8   9
ATOM      9  C   UNL     1       1.210   9.943  18.478  0.00  0.00    +0.000 C 
BRANCH   9  10
ATOM     10  O   UNL     1       1.925  10.301  17.298  0.00  0.00    +0.000 OA
ATOM     11  H   UNL     1       2.851  10.052  17.442  0.00  0.00    +0.000 HD
ENDBRANCH   9  10
ENDBRANCH   8   9
ENDBRANCH   1   2
BRANCH   1  12
ATOM     12  S   UNL     1       0.707  12.453  21.214  0.00  0.00    +0.000 S 
ATOM     13  O   UNL     1       1.126  11.101  21.506  0.00  0.00    +0.000 OA
ATOM     14  O   UNL     1       1.592  13.560  21.542  0.00  0.00    +0.000 OA
BRANCH  12  15
ATOM     15  C   UNL     1      -0.813  12.752  22.124  0.00  0.00    +0.000 A 
ATOM     16  C   UNL     1      -1.297  14.075  22.199  0.00  0.00    +0.000 A 
ATOM     17  C   UNL     1      -2.528  14.356  22.805  0.00  0.00    +0.000 A 
ATOM     18  C   UNL     1      -3.299  13.317  23.305  0.00  0.00    +0.000 A 
ATOM     19 CL   UNL     1      -4.856  13.637  23.964  0.00  0.00    +0.000 Cl
ATOM     20  C   UNL     1      -2.795  12.021  23.317  0.00  0.00    +0.000 A 
ATOM     21  C   UNL     1      -1.515  11.754  22.803  0.00  0.00    +0.000 A 
ATOM     22 CL   UNL     1      -0.853  10.227  23.245  0.00  0.00    +0.000 Cl
ENDBRANCH  12  15
ENDBRANCH   1  12
BRANCH   1  23
ATOM     23  C   UNL     1       1.129  13.565  18.662  0.00  0.00    +0.000 C 
ATOM     24  C   UNL     1       2.627  13.362  18.875  0.00  0.00    +0.000 C 
BRANCH  23  25
ATOM     25  C   UNL     1       0.751  15.051  18.908  0.00  0.00    +0.000 C 
BRANCH  25  27
ATOM     26  C   UNL     1       1.794  16.882  20.267  0.00  0.00    +0.000 C 
ATOM     27  C   UNL     1       1.922  16.030  19.008  0.00  0.00    +0.000 C 
ENDBRANCH  25  27
ENDBRANCH  23  25
ENDBRANCH   1  23
TORSDOF 8
ENDMDL
MODEL 8
REMARK VINA RESULT:      -5.8      7.216      9.832
REMARK  Name = 
REMARK  10 active torsions:
REMARK  status: ('A' for Active; 'I' for Inactive)
REMARK    1  A    between atoms: C_1  and  C_2
REMARK    2  A    between atoms: C_2  and  C_3
REMARK    3  A    between atoms: C_3  and  C_4
REMARK    4  A    between atoms: C_4  and  C_5
REMARK    5  A    between atoms: C_4  and  N_6
REMARK    6  A    between atoms: N_6  and  C_7
REMARK    7  A    between atoms: N_6  and  S_16
REMARK    8  A    between atoms: C_13  and  C_14
REMARK    9  A    between atoms: C_14  and  O_15
REMARK   10  A    between atoms: S_16  and  C_19
REMARK                            x       y       z     vdW  Elec       q    Type
REMARK                         _______ _______ _______ _____ _____    ______ ____
ROOT
ATOM      1  N   UNL     1      -0.165  12.844  20.880  0.00  0.00    +0.000 N 
ENDROOT
BRANCH   1   2
ATOM      2  C   UNL     1      -0.188  11.513  21.438  0.00  0.00    +0.000 A 
ATOM      3  C   UNL     1       0.630  10.555  20.832  0.00  0.00    +0.000 A 
ATOM      4  C   UNL     1       0.695   9.258  21.340  0.00  0.00    +0.000 A 
ATOM      5 CL   UNL     1       1.624   8.064  20.516  0.00  0.00    +0.000 Cl
ATOM      6  C   UNL     1       0.026   8.929  22.510  0.00  0.00    +0.000 A 
ATOM      7  C   UNL     1      -0.745   9.895  23.153  0.00  0.00    +0.000 A 
ATOM      8  C   UNL     1      -0.896  11.194  22.616  0.00  0.00    +0.000 A 
BRANCH   8   9
ATOM      9  C   UNL     1      -1.707  12.215  23.378  0.00  0.00    +0.000 C 
BRANCH   9  10
ATOM     10  O   UNL     1      -3.062  11.799  23.536  0.00  0.00    +0.000 OA
ATOM     11  H   UNL     1      -3.348  11.440  22.683  0.00  0.00    +0.000 HD
ENDBRANCH   9  10
ENDBRANCH   8   9
ENDBRANCH   1   2
BRANCH   1  12
ATOM     12  S   UNL     1       1.169  13.865  21.259  0.00  0.00    +0.000 S 
ATOM     13  O   UNL     1       0.813  14.771  22.327  0.00  0.00    +0.000 OA
ATOM     14  O   UNL     1       2.316  12.986  21.422  0.00  0.00    +0.000 OA
BRANCH  12  15
ATOM     15  C   UNL     1       1.513  14.859  19.803  0.00  0.00    +0.000 A 
ATOM     16  C   UNL     1       1.072  16.199  19.792  0.00  0.00    +0.000 A 
ATOM     17  C   UNL     1       1.399  17.053  18.730  0.00  0.00    +0.000 A 
ATOM     18  C   UNL     1       2.197  16.587  17.696  0.00  0.00    +0.000 A 
ATOM     19 CL   UNL     1       2.687  17.651  16.436  0.00  0.00    +0.000 Cl
ATOM     20  C   UNL     1       2.564  15.247  17.652  0.00  0.00    +0.000 A 
ATOM     21  C   UNL     1       2.149  14.364  18.663  0.00  0.00    +0.000 A 
ATOM     22 CL   UNL     1       2.310  12.692  18.287  0.00  0.00    +0.000 Cl
ENDBRANCH  12  15
ENDBRANCH   1  12
BRANCH   1  23
ATOM     23  C   UNL     1      -1.186  13.255  19.841  0.00  0.00    +0.000 C 
ATOM     24  C   UNL     1      -2.130  14.309  20.417  0.00  0.00    +0.000 C 
BRANCH  23  25
ATOM     25  C   UNL     1      -2.001  12.050  19.298  0.00  0.00    +0.000 C 
BRANCH  25  27
ATOM     26  C   UNL     1      -2.295  10.198  17.634  0.00  0.00    +0.000 C 
ATOM     27  C   UNL     1      -1.547  11.490  17.949  0.00  0.00    +0.000 C 
ENDBRANCH  25  27
ENDBRANCH  23  25
ENDBRANCH   1  23
TORSDOF 8
ENDMDL
MODEL 9
REMARK VINA RESULT:      -5.8      4.978      7.225
REMARK  Name = 
REMARK  10 active torsions:
REMARK  status: ('A' for Active; 'I' for Inactive)
REMARK    1  A    between atoms: C_1  and  C_2
REMARK    2  A    between atoms: C_2  and  C_3
REMARK    3  A    between atoms: C_3  and  C_4
REMARK    4  A    between atoms: C_4  and  C_5
REMARK    5  A    between atoms: C_4  and  N_6
REMARK    6  A    between atoms: N_6  and  C_7
REMARK    7  A    between atoms: N_6  and  S_16
REMARK    8  A    between atoms: C_13  and  C_14
REMARK    9  A    between atoms: C_14  and  O_15
REMARK   10  A    between atoms: S_16  and  C_19
REMARK                            x       y       z     vdW  Elec       q    Type
REMARK                         _______ _______ _______ _____ _____    ______ ____
ROOT
ATOM      1  N   UNL     1       0.048  10.710  20.019  0.00  0.00    +0.000 N 
ENDROOT
BRANCH   1   2
ATOM      2  C   UNL     1       0.722  11.967  20.237  0.00  0.00    +0.000 A 
ATOM      3  C   UNL     1       1.634  12.378  19.261  0.00  0.00    +0.000 A 
ATOM      4  C   UNL     1       2.293  13.601  19.378  0.00  0.00    +0.000 A 
ATOM      5 CL   UNL     1       3.492  14.040  18.222  0.00  0.00    +0.000 Cl
ATOM      6  C   UNL     1       1.979  14.470  20.414  0.00  0.00    +0.000 A 
ATOM      7  C   UNL     1       1.029  14.092  21.360  0.00  0.00    +0.000 A 
ATOM      8  C   UNL     1       0.405  12.824  21.312  0.00  0.00    +0.000 A 
BRANCH   8   9
ATOM      9  C   UNL     1      -0.651  12.485  22.337  0.00  0.00    +0.000 C 
BRANCH   9  10
ATOM     10  O   UNL     1      -0.572  13.338  23.476  0.00  0.00    +0.000 OA
ATOM     11  H   UNL     1      -0.482  12.764  24.253  0.00  0.00    +0.000 HD
ENDBRANCH   9  10
ENDBRANCH   8   9
ENDBRANCH   1   2
BRANCH   1  12
ATOM     12  S   UNL     1       0.635   9.316  20.839  0.00  0.00    +0.000 S 
ATOM     13  O   UNL     1       1.496   9.707  21.933  0.00  0.00    +0.000 OA
ATOM     14  O   UNL     1      -0.529   8.488  21.111  0.00  0.00    +0.000 OA
BRANCH  12  15
ATOM     15  C   UNL     1       1.637   8.389  19.672  0.00  0.00    +0.000 A 
ATOM     16  C   UNL     1       1.952   8.994  18.436  0.00  0.00    +0.000 A 
ATOM     17  C   UNL     1       2.814   8.364  17.528  0.00  0.00    +0.000 A 
ATOM     18  C   UNL     1       3.394   7.150  17.863  0.00  0.00    +0.000 A 
ATOM     19 CL   UNL     1       4.530   6.414  16.800  0.00  0.00    +0.000 Cl
ATOM     20  C   UNL     1       3.025   6.504  19.037  0.00  0.00    +0.000 A 
ATOM     21  C   UNL     1       2.081   7.086  19.900  0.00  0.00    +0.000 A 
ATOM     22 CL   UNL     1       1.413   6.022  21.077  0.00  0.00    +0.000 Cl
ENDBRANCH  12  15
ENDBRANCH   1  12
BRANCH   1  23
ATOM     23  C   UNL     1      -1.252  10.664  19.243  0.00  0.00    +0.000 C 
ATOM     24  C   UNL     1      -1.017  10.073  17.854  0.00  0.00    +0.000 C 
BRANCH  23  25
ATOM     25  C   UNL     1      -1.922  12.060  19.122  0.00  0.00    +0.000 C 
BRANCH  25  27
ATOM     26  C   UNL     1      -3.812  13.024  20.458  0.00  0.00    +0.000 C 
ATOM     27  C   UNL     1      -3.440  12.092  19.309  0.00  0.00    +0.000 C 
ENDBRANCH  25  27
ENDBRANCH  23  25
ENDBRANCH   1  23
TORSDOF 8
ENDMDL
