MODEL 1
REMARK VINA RESULT:      -7.5      0.000      0.000
REMARK  Name = 
REMARK  7 active torsions:
REMARK  status: ('A' for Active; 'I' for Inactive)
REMARK    1  A    between atoms: C_1  and  O_2
REMARK    2  A    between atoms: O_2  and  C_3
REMARK    3  A    between atoms: C_5  and  N_6
REMARK    4  A    between atoms: C_9  and  C_10
REMARK    5  A    between atoms: C_12  and  N_13
REMARK    6  A    between atoms: N_13  and  C_14
REMARK    7  A    between atoms: N_13  and  C_15
REMARK                            x       y       z     vdW  Elec       q    Type
REMARK                         _______ _______ _______ _____ _____    ______ ____
ROOT
ATOM      1  N   UNL     1       4.762   3.363  18.174  0.00  0.00    +0.000 N 
ATOM      2  C   UNL     1       3.749   3.910  18.965  0.00  0.00    +0.000 A 
ATOM      3  N   UNL     1       3.187   3.117  19.880  0.00  0.00    +0.000 NA
ATOM      4  C   UNL     1       2.237   3.676  20.654  0.00  0.00    +0.000 A 
ATOM      5  C   UNL     1       1.568   2.801  21.674  0.00  0.00    +0.000 C 
ATOM      6  C   UNL     1       1.881   5.012  20.557  0.00  0.00    +0.000 A 
ATOM      7  C   UNL     1       2.522   5.785  19.614  0.00  0.00    +0.000 A 
ATOM      8  N   UNL     1       3.429   5.202  18.821  0.00  0.00    +0.000 NA
ATOM      9  H   UNL     1       5.123   2.522  18.596  0.00  0.00    +0.000 HD
ENDROOT
BRANCH   1  12
ATOM     10  C   UNL     1       5.770   4.299  14.712  0.00  0.00    +0.000 A 
ATOM     11  C   UNL     1       5.020   3.818  15.799  0.00  0.00    +0.000 A 
ATOM     12  C   UNL     1       5.476   3.949  17.119  0.00  0.00    +0.000 A 
ATOM     13  C   UNL     1       6.696   4.608  17.327  0.00  0.00    +0.000 A 
ATOM     14  C   UNL     1       7.456   5.085  16.261  0.00  0.00    +0.000 A 
ATOM     15  C   UNL     1       6.995   4.923  14.962  0.00  0.00    +0.000 A 
ATOM     16  F   UNL     1       7.771   5.386  13.972  0.00  0.00    +0.000 F 
BRANCH  10  18
ATOM     17  C   UNL     1       5.964   3.331  12.551  0.00  0.00    +0.000 C 
ATOM     18  O   UNL     1       5.197   4.080  13.488  0.00  0.00    +0.000 OA
ENDBRANCH  10  18
ENDBRANCH   1  12
BRANCH   7  19
ATOM     19  N   UNL     1       2.316   7.140  19.455  0.00  0.00    +0.000 N 
ATOM     20  C   UNL     1       2.652   7.760  18.174  0.00  0.00    +0.000 C 
ATOM     21  C   UNL     1       1.679   8.012  20.422  0.00  0.00    +0.000 C 
ENDBRANCH   7  19
TORSDOF 3
ENDMDL
MODEL 2
REMARK VINA RESULT:      -7.4      1.234      2.232
REMARK  Name = 
REMARK  7 active torsions:
REMARK  status: ('A' for Active; 'I' for Inactive)
REMARK    1  A    between atoms: C_1  and  O_2
REMARK    2  A    between atoms: O_2  and  C_3
REMARK    3  A    between atoms: C_5  and  N_6
REMARK    4  A    between atoms: C_9  and  C_10
REMARK    5  A    between atoms: C_12  and  N_13
REMARK    6  A    between atoms: N_13  and  C_14
REMARK    7  A    between atoms: N_13  and  C_15
REMARK                            x       y       z     vdW  Elec       q    Type
REMARK                         _______ _______ _______ _____ _____    ______ ____
ROOT
ATOM      1  N   UNL     1       4.809   3.281  18.060  0.00  0.00    +0.000 N 
ATOM      2  C   UNL     1       3.801   3.882  18.819  0.00  0.00    +0.000 A 
ATOM      3  N   UNL     1       3.232   3.148  19.777  0.00  0.00    +0.000 NA
ATOM      4  C   UNL     1       2.287   3.759  20.517  0.00  0.00    +0.000 A 
ATOM      5  C   UNL     1       1.609   2.950  21.585  0.00  0.00    +0.000 C 
ATOM      6  C   UNL     1       1.943   5.091  20.343  0.00  0.00    +0.000 A 
ATOM      7  C   UNL     1       2.591   5.802  19.358  0.00  0.00    +0.000 A 
ATOM      8  N   UNL     1       3.493   5.167  18.600  0.00  0.00    +0.000 NA
ATOM      9  H   UNL     1       5.162   2.462  18.531  0.00  0.00    +0.000 HD
ENDROOT
BRANCH   1  12
ATOM     10  C   UNL     1       7.000   5.528  16.054  0.00  0.00    +0.000 A 
ATOM     11  C   UNL     1       6.353   4.921  17.144  0.00  0.00    +0.000 A 
ATOM     12  C   UNL     1       5.528   3.799  16.974  0.00  0.00    +0.000 A 
ATOM     13  C   UNL     1       5.391   3.278  15.679  0.00  0.00    +0.000 A 
ATOM     14  C   UNL     1       6.019   3.872  14.586  0.00  0.00    +0.000 A 
ATOM     15  C   UNL     1       6.812   4.994  14.776  0.00  0.00    +0.000 A 
ATOM     16  F   UNL     1       7.381   5.536  13.691  0.00  0.00    +0.000 F 
BRANCH  10  18
ATOM     17  C   UNL     1       7.379   7.324  17.562  0.00  0.00    +0.000 C 
ATOM     18  O   UNL     1       7.756   6.621  16.383  0.00  0.00    +0.000 OA
ENDBRANCH  10  18
ENDBRANCH   1  12
BRANCH   7  19
ATOM     19  N   UNL     1       2.397   7.147  19.121  0.00  0.00    +0.000 N 
ATOM     20  C   UNL     1       1.808   7.972  20.175  0.00  0.00    +0.000 C 
ATOM     21  C   UNL     1       2.833   7.863  17.938  0.00  0.00    +0.000 C 
ENDBRANCH   7  19
TORSDOF 3
ENDMDL
MODEL 3
REMARK VINA RESULT:      -7.2      3.651      6.427
REMARK  Name = 
REMARK  7 active torsions:
REMARK  status: ('A' for Active; 'I' for Inactive)
REMARK    1  A    between atoms: C_1  and  O_2
REMARK    2  A    between atoms: O_2  and  C_3
REMARK    3  A    between atoms: C_5  and  N_6
REMARK    4  A    between atoms: C_9  and  C_10
REMARK    5  A    between atoms: C_12  and  N_13
REMARK    6  A    between atoms: N_13  and  C_14
REMARK    7  A    between atoms: N_13  and  C_15
REMARK                            x       y       z     vdW  Elec       q    Type
REMARK                         _______ _______ _______ _____ _____    ______ ____
ROOT
ATOM      1  N   UNL     1       3.580   3.555  16.973  0.00  0.00    +0.000 N 
ATOM      2  C   UNL     1       4.794   4.097  16.544  0.00  0.00    +0.000 A 
ATOM      3  N   UNL     1       5.114   3.946  15.257  0.00  0.00    +0.000 NA
ATOM      4  C   UNL     1       6.272   4.507  14.860  0.00  0.00    +0.000 A 
ATOM      5  C   UNL     1       6.673   4.330  13.423  0.00  0.00    +0.000 C 
ATOM      6  C   UNL     1       7.080   5.246  15.710  0.00  0.00    +0.000 A 
ATOM      7  C   UNL     1       6.676   5.391  17.019  0.00  0.00    +0.000 A 
ATOM      8  N   UNL     1       5.546   4.788  17.410  0.00  0.00    +0.000 NA
ATOM      9  H   UNL     1       2.980   3.367  16.185  0.00  0.00    +0.000 HD
ENDROOT
BRANCH   1  12
ATOM     10  C   UNL     1       3.121   2.716  20.574  0.00  0.00    +0.000 A 
ATOM     11  C   UNL     1       3.698   2.857  19.300  0.00  0.00    +0.000 A 
ATOM     12  C   UNL     1       3.030   3.525  18.263  0.00  0.00    +0.000 A 
ATOM     13  C   UNL     1       1.773   4.079  18.545  0.00  0.00    +0.000 A 
ATOM     14  C   UNL     1       1.183   3.942  19.800  0.00  0.00    +0.000 A 
ATOM     15  C   UNL     1       1.853   3.258  20.803  0.00  0.00    +0.000 A 
ATOM     16  F   UNL     1       1.236   3.142  21.987  0.00  0.00    +0.000 F 
BRANCH  10  18
ATOM     17  C   UNL     1       5.064   1.404  20.956  0.00  0.00    +0.000 C 
ATOM     18  O   UNL     1       3.892   2.026  21.471  0.00  0.00    +0.000 OA
ENDBRANCH  10  18
ENDBRANCH   1  12
BRANCH   7  19
ATOM     19  N   UNL     1       7.345   6.154  17.954  0.00  0.00    +0.000 N 
ATOM     20  C   UNL     1       7.631   7.555  17.649  0.00  0.00    +0.000 C 
ATOM     21  C   UNL     1       7.705   5.720  19.290  0.00  0.00    +0.000 C 
ENDBRANCH   7  19
TORSDOF 3
ENDMDL
MODEL 4
REMARK VINA RESULT:      -7.2      3.396      6.387
REMARK  Name = 
REMARK  7 active torsions:
REMARK  status: ('A' for Active; 'I' for Inactive)
REMARK    1  A    between atoms: C_1  and  O_2
REMARK    2  A    between atoms: O_2  and  C_3
REMARK    3  A    between atoms: C_5  and  N_6
REMARK    4  A    between atoms: C_9  and  C_10
REMARK    5  A    between atoms: C_12  and  N_13
REMARK    6  A    between atoms: N_13  and  C_14
REMARK    7  A    between atoms: N_13  and  C_15
REMARK                            x       y       z     vdW  Elec       q    Type
REMARK                         _______ _______ _______ _____ _____    ______ ____
ROOT
ATOM      1  N   UNL     1       3.655   3.630  16.936  0.00  0.00    +0.000 N 
ATOM      2  C   UNL     1       4.872   4.159  16.499  0.00  0.00    +0.000 A 
ATOM      3  N   UNL     1       5.187   3.994  15.212  0.00  0.00    +0.000 NA
ATOM      4  C   UNL     1       6.348   4.542  14.806  0.00  0.00    +0.000 A 
ATOM      5  C   UNL     1       6.743   4.350  13.370  0.00  0.00    +0.000 C 
ATOM      6  C   UNL     1       7.164   5.283  15.648  0.00  0.00    +0.000 A 
ATOM      7  C   UNL     1       6.765   5.443  16.957  0.00  0.00    +0.000 A 
ATOM      8  N   UNL     1       5.632   4.852  17.356  0.00  0.00    +0.000 NA
ATOM      9  H   UNL     1       3.051   3.440  16.151  0.00  0.00    +0.000 HD
ENDROOT
BRANCH   1  12
ATOM     10  C   UNL     1       2.222   4.843  20.153  0.00  0.00    +0.000 A 
ATOM     11  C   UNL     1       2.672   4.809  18.822  0.00  0.00    +0.000 A 
ATOM     12  C   UNL     1       3.108   3.616  18.227  0.00  0.00    +0.000 A 
ATOM     13  C   UNL     1       3.053   2.444  18.995  0.00  0.00    +0.000 A 
ATOM     14  C   UNL     1       2.617   2.461  20.319  0.00  0.00    +0.000 A 
ATOM     15  C   UNL     1       2.211   3.657  20.892  0.00  0.00    +0.000 A 
ATOM     16  F   UNL     1       1.815   3.622  22.172  0.00  0.00    +0.000 F 
BRANCH  10  18
ATOM     17  C   UNL     1       2.176   7.184  19.749  0.00  0.00    +0.000 C 
ATOM     18  O   UNL     1       1.845   6.085  20.591  0.00  0.00    +0.000 OA
ENDBRANCH  10  18
ENDBRANCH   1  12
BRANCH   7  19
ATOM     19  N   UNL     1       7.442   6.209  17.883  0.00  0.00    +0.000 N 
ATOM     20  C   UNL     1       7.658   7.628  17.603  0.00  0.00    +0.000 C 
ATOM     21  C   UNL     1       7.876   5.757  19.190  0.00  0.00    +0.000 C 
ENDBRANCH   7  19
TORSDOF 3
ENDMDL
MODEL 5
REMARK VINA RESULT:      -6.6      3.903      6.910
REMARK  Name = 
REMARK  7 active torsions:
REMARK  status: ('A' for Active; 'I' for Inactive)
REMARK    1  A    between atoms: C_1  and  O_2
REMARK    2  A    between atoms: O_2  and  C_3
REMARK    3  A    between atoms: C_5  and  N_6
REMARK    4  A    between atoms: C_9  and  C_10
REMARK    5  A    between atoms: C_12  and  N_13
REMARK    6  A    between atoms: N_13  and  C_14
REMARK    7  A    between atoms: N_13  and  C_15
REMARK                            x       y       z     vdW  Elec       q    Type
REMARK                         _______ _______ _______ _____ _____    ______ ____
ROOT
ATOM      1  N   UNL     1       3.189   7.453  17.963  0.00  0.00    +0.000 N 
ATOM      2  C   UNL     1       3.415   6.091  17.749  0.00  0.00    +0.000 A 
ATOM      3  N   UNL     1       4.397   5.756  16.910  0.00  0.00    +0.000 NA
ATOM      4  C   UNL     1       4.619   4.437  16.746  0.00  0.00    +0.000 A 
ATOM      5  C   UNL     1       5.700   4.028  15.787  0.00  0.00    +0.000 C 
ATOM      6  C   UNL     1       3.911   3.466  17.436  0.00  0.00    +0.000 A 
ATOM      7  C   UNL     1       2.931   3.880  18.311  0.00  0.00    +0.000 A 
ATOM      8  N   UNL     1       2.691   5.192  18.427  0.00  0.00    +0.000 NA
ATOM      9  H   UNL     1       3.988   7.993  17.668  0.00  0.00    +0.000 HD
ENDROOT
BRANCH   1  12
ATOM     10  C   UNL     1       0.493   9.813  18.984  0.00  0.00    +0.000 A 
ATOM     11  C   UNL     1       1.412   9.097  18.197  0.00  0.00    +0.000 A 
ATOM     12  C   UNL     1       2.203   8.076  18.743  0.00  0.00    +0.000 A 
ATOM     13  C   UNL     1       2.027   7.766  20.099  0.00  0.00    +0.000 A 
ATOM     14  C   UNL     1       1.127   8.470  20.896  0.00  0.00    +0.000 A 
ATOM     15  C   UNL     1       0.371   9.492  20.338  0.00  0.00    +0.000 A 
ATOM     16  F   UNL     1      -0.469  10.148  21.150  0.00  0.00    +0.000 F 
BRANCH  10  18
ATOM     17  C   UNL     1      -1.487  10.442  17.832  0.00  0.00    +0.000 C 
ATOM     18  O   UNL     1      -0.191  10.788  18.308  0.00  0.00    +0.000 OA
ENDBRANCH  10  18
ENDBRANCH   1  12
BRANCH   7  19
ATOM     19  N   UNL     1       2.198   3.027  19.111  0.00  0.00    +0.000 N 
ATOM     20  C   UNL     1       2.621   2.820  20.495  0.00  0.00    +0.000 C 
ATOM     21  C   UNL     1       0.955   2.384  18.735  0.00  0.00    +0.000 C 
ENDBRANCH   7  19
TORSDOF 3
ENDMDL
MODEL 6
REMARK VINA RESULT:      -6.5      3.994      7.141
REMARK  Name = 
REMARK  7 active torsions:
REMARK  status: ('A' for Active; 'I' for Inactive)
REMARK    1  A    between atoms: C_1  and  O_2
REMARK    2  A    between atoms: O_2  and  C_3
REMARK    3  A    between atoms: C_5  and  N_6
REMARK    4  A    between atoms: C_9  and  C_10
REMARK    5  A    between atoms: C_12  and  N_13
REMARK    6  A    between atoms: N_13  and  C_14
REMARK    7  A    between atoms: N_13  and  C_15
REMARK                            x       y       z     vdW  Elec       q    Type
REMARK                         _______ _______ _______ _____ _____    ______ ____
ROOT
ATOM      1  N   UNL     1       3.127   7.716  17.939  0.00  0.00    +0.000 N 
ATOM      2  C   UNL     1       3.214   6.329  17.800  0.00  0.00    +0.000 A 
ATOM      3  N   UNL     1       4.235   5.845  17.090  0.00  0.00    +0.000 NA
ATOM      4  C   UNL     1       4.316   4.503  16.998  0.00  0.00    +0.000 A 
ATOM      5  C   UNL     1       5.439   3.929  16.183  0.00  0.00    +0.000 C 
ATOM      6  C   UNL     1       3.429   3.652  17.638  0.00  0.00    +0.000 A 
ATOM      7  C   UNL     1       2.416   4.216  18.382  0.00  0.00    +0.000 A 
ATOM      8  N   UNL     1       2.321   5.550  18.424  0.00  0.00    +0.000 NA
ATOM      9  H   UNL     1       4.011   8.148  17.717  0.00  0.00    +0.000 HD
ENDROOT
BRANCH   1  12
ATOM     10  C   UNL     1       0.743   8.894  20.548  0.00  0.00    +0.000 A 
ATOM     11  C   UNL     1       1.799   8.217  19.913  0.00  0.00    +0.000 A 
ATOM     12  C   UNL     1       2.143   8.483  18.580  0.00  0.00    +0.000 A 
ATOM     13  C   UNL     1       1.417   9.473  17.902  0.00  0.00    +0.000 A 
ATOM     14  C   UNL     1       0.363  10.148  18.513  0.00  0.00    +0.000 A 
ATOM     15  C   UNL     1       0.026   9.852  19.826  0.00  0.00    +0.000 A 
ATOM     16  F   UNL     1      -1.005  10.519  20.362  0.00  0.00    +0.000 F 
BRANCH  10  18
ATOM     17  C   UNL     1       0.562   9.539  22.827  0.00  0.00    +0.000 C 
ATOM     18  O   UNL     1       0.523   8.510  21.844  0.00  0.00    +0.000 OA
ENDBRANCH  10  18
ENDBRANCH   1  12
BRANCH   7  19
ATOM     19  N   UNL     1       1.506   3.491  19.124  0.00  0.00    +0.000 N 
ATOM     20  C   UNL     1       1.021   4.047  20.386  0.00  0.00    +0.000 C 
ATOM     21  C   UNL     1       0.886   2.248  18.710  0.00  0.00    +0.000 C 
ENDBRANCH   7  19
TORSDOF 3
ENDMDL
MODEL 7
REMARK VINA RESULT:      -6.3      4.102      6.987
REMARK  Name = 
REMARK  7 active torsions:
REMARK  status: ('A' for Active; 'I' for Inactive)
REMARK    1  A    between atoms: C_1  and  O_2
REMARK    2  A    between atoms: O_2  and  C_3
REMARK    3  A    between atoms: C_5  and  N_6
REMARK    4  A    between atoms: C_9  and  C_10
REMARK    5  A    between atoms: C_12  and  N_13
REMARK    6  A    between atoms: N_13  and  C_14
REMARK    7  A    between atoms: N_13  and  C_15
REMARK                            x       y       z     vdW  Elec       q    Type
REMARK                         _______ _______ _______ _____ _____    ______ ____
ROOT
ATOM      1  N   UNL     1       2.097   6.372  20.265  0.00  0.00    +0.000 N 
ATOM      2  C   UNL     1       3.131   5.626  19.693  0.00  0.00    +0.000 A 
ATOM      3  N   UNL     1       3.246   4.349  20.065  0.00  0.00    +0.000 NA
ATOM      4  C   UNL     1       4.228   3.641  19.475  0.00  0.00    +0.000 A 
ATOM      5  C   UNL     1       4.400   2.209  19.894  0.00  0.00    +0.000 C 
ATOM      6  C   UNL     1       5.055   4.173  18.498  0.00  0.00    +0.000 A 
ATOM      7  C   UNL     1       4.863   5.488  18.137  0.00  0.00    +0.000 A 
ATOM      8  N   UNL     1       3.913   6.192  18.766  0.00  0.00    +0.000 NA
ATOM      9  H   UNL     1       1.405   5.761  20.670  0.00  0.00    +0.000 HD
ENDROOT
BRANCH   1  12
ATOM     10  C   UNL     1       0.907   9.821  21.016  0.00  0.00    +0.000 A 
ATOM     11  C   UNL     1       1.332   8.491  21.180  0.00  0.00    +0.000 A 
ATOM     12  C   UNL     1       1.784   7.728  20.093  0.00  0.00    +0.000 A 
ATOM     13  C   UNL     1       1.829   8.345  18.834  0.00  0.00    +0.000 A 
ATOM     14  C   UNL     1       1.405   9.659  18.653  0.00  0.00    +0.000 A 
ATOM     15  C   UNL     1       0.940  10.387  19.739  0.00  0.00    +0.000 A 
ATOM     16  F   UNL     1       0.530  11.642  19.508  0.00  0.00    +0.000 F 
BRANCH  10  18
ATOM     17  C   UNL     1      -0.026   9.566  23.187  0.00  0.00    +0.000 C 
ATOM     18  O   UNL     1       0.480  10.424  22.169  0.00  0.00    +0.000 OA
ENDBRANCH  10  18
ENDBRANCH   1  12
BRANCH   7  19
ATOM     19  N   UNL     1       5.565   6.125  17.134  0.00  0.00    +0.000 N 
ATOM     20  C   UNL     1       6.774   6.869  17.482  0.00  0.00    +0.000 C 
ATOM     21  C   UNL     1       5.274   6.034  15.717  0.00  0.00    +0.000 C 
ENDBRANCH   7  19
TORSDOF 3
ENDMDL
MODEL 8
REMARK VINA RESULT:      -6.3      3.611      6.564
REMARK  Name = 
REMARK  7 active torsions:
REMARK  status: ('A' for Active; 'I' for Inactive)
REMARK    1  A    between atoms: C_1  and  O_2
REMARK    2  A    between atoms: O_2  and  C_3
REMARK    3  A    between atoms: C_5  and  N_6
REMARK    4  A    between atoms: C_9  and  C_10
REMARK    5  A    between atoms: C_12  and  N_13
REMARK    6  A    between atoms: N_13  and  C_14
REMARK    7  A    between atoms: N_13  and  C_15
REMARK                            x       y       z     vdW  Elec       q    Type
REMARK                         _______ _______ _______ _____ _____    ______ ____
ROOT
ATOM      1  N   UNL     1       3.049   5.407  17.387  0.00  0.00    +0.000 N 
ATOM      2  C   UNL     1       4.389   5.319  17.003  0.00  0.00    +0.000 A 
ATOM      3  N   UNL     1       4.672   4.590  15.921  0.00  0.00    +0.000 NA
ATOM      4  C   UNL     1       5.967   4.548  15.551  0.00  0.00    +0.000 A 
ATOM      5  C   UNL     1       6.320   3.713  14.354  0.00  0.00    +0.000 C 
ATOM      6  C   UNL     1       6.960   5.254  16.211  0.00  0.00    +0.000 A 
ATOM      7  C   UNL     1       6.596   6.014  17.301  0.00  0.00    +0.000 A 
ATOM      8  N   UNL     1       5.313   6.007  17.685  0.00  0.00    +0.000 NA
ATOM      9  H   UNL     1       2.446   5.135  16.625  0.00  0.00    +0.000 HD
ENDROOT
BRANCH   1  12
ATOM     10  C   UNL     1       1.760   8.128  19.580  0.00  0.00    +0.000 A 
ATOM     11  C   UNL     1       2.221   7.431  18.450  0.00  0.00    +0.000 A 
ATOM     12  C   UNL     1       2.485   6.055  18.496  0.00  0.00    +0.000 A 
ATOM     13  C   UNL     1       2.245   5.383  19.703  0.00  0.00    +0.000 A 
ATOM     14  C   UNL     1       1.796   6.059  20.835  0.00  0.00    +0.000 A 
ATOM     15  C   UNL     1       1.562   7.425  20.771  0.00  0.00    +0.000 A 
ATOM     16  F   UNL     1       1.145   8.030  21.892  0.00  0.00    +0.000 F 
BRANCH  10  18
ATOM     17  C   UNL     1       1.712   9.938  18.041  0.00  0.00    +0.000 C 
ATOM     18  O   UNL     1       1.564   9.468  19.377  0.00  0.00    +0.000 OA
ENDBRANCH  10  18
ENDBRANCH   1  12
BRANCH   7  19
ATOM     19  N   UNL     1       7.466   6.818  18.008  0.00  0.00    +0.000 N 
ATOM     20  C   UNL     1       8.145   6.265  19.179  0.00  0.00    +0.000 C 
ATOM     21  C   UNL     1       7.866   8.158  17.630  0.00  0.00    +0.000 C 
ENDBRANCH   7  19
TORSDOF 3
ENDMDL
