MODEL 1
REMARK VINA RESULT:      -8.9      0.000      0.000
REMARK  Name = 
REMARK  6 active torsions:
REMARK  status: ('A' for Active; 'I' for Inactive)
REMARK    1  A    between atoms: C_2  and  N_3
REMARK    2  A    between atoms: C_4  and  C_5
REMARK    3  A    between atoms: C_8  and  O_9
REMARK    4  A    between atoms: N_12  and  C_13
REMARK    5  A    between atoms: N_23  and  C_24
REMARK    6  A    between atoms: C_24  and  N_25
REMARK                            x       y       z     vdW  Elec       q    Type
REMARK                         _______ _______ _______ _____ _____    ______ ____
ROOT
ATOM      1  C   UNL     1       1.505   8.637  19.759  0.00  0.00    +0.000 A 
ATOM      2  C   UNL     1       2.048   8.715  18.457  0.00  0.00    +0.000 A 
ATOM      3  C   UNL     1       2.770   7.653  17.874  0.00  0.00    +0.000 A 
ATOM      4  C   UNL     1       2.888   6.482  18.590  0.00  0.00    +0.000 A 
ATOM      5  C   UNL     1       2.317   6.416  19.865  0.00  0.00    +0.000 A 
ATOM      6  C   UNL     1       1.660   7.461  20.490  0.00  0.00    +0.000 A 
ATOM      7  C   UNL     1       2.431   5.036  20.313  0.00  0.00    +0.000 C 
ATOM      8  O   UNL     1       2.210   4.599  21.418  0.00  0.00    +0.000 OA
ATOM      9  C   UNL     1       2.926   4.258  19.082  0.00  0.00    +0.000 C 
ATOM     10  O   UNL     1       2.847   3.056  18.954  0.00  0.00    +0.000 OA
ATOM     11  N   UNL     1       3.397   5.222  18.201  0.00  0.00    +0.000 N 
ENDROOT
BRANCH   1  14
ATOM     12  O   UNL     1       1.547   9.669  22.518  0.00  0.00    +0.000 OA
ATOM     13  C   UNL     1       0.828  10.125  21.644  0.00  0.00    +0.000 C 
ATOM     14  N   UNL     1       0.759   9.671  20.353  0.00  0.00    +0.000 N 
ATOM     15  H   UNL     1       0.066  10.160  19.804  0.00  0.00    +0.000 HD
BRANCH  13  16
ATOM     16  N   UNL     1      -0.029  11.183  21.817  0.00  0.00    +0.000 NA
ATOM     17  C   UNL     1      -0.764  11.131  22.883  0.00  0.00    +0.000 C 
BRANCH  17  18
ATOM     18  C   UNL     1      -1.700  12.210  23.252  0.00  0.00    +0.000 A 
ATOM     19  C   UNL     1      -1.259  13.531  23.372  0.00  0.00    +0.000 A 
ATOM     20  C   UNL     1      -2.155  14.529  23.762  0.00  0.00    +0.000 A 
ATOM     21  C   UNL     1      -3.481  14.192  24.025  0.00  0.00    +0.000 A 
ATOM     22  C   UNL     1      -3.925  12.883  23.899  0.00  0.00    +0.000 A 
ATOM     23  C   UNL     1      -3.036  11.880  23.507  0.00  0.00    +0.000 A 
BRANCH  21  24
ATOM     24  O   UNL     1      -4.381  15.135  24.428  0.00  0.00    +0.000 OA
ATOM     25  H   UNL     1      -3.918  15.795  24.968  0.00  0.00    +0.000 HD
ENDBRANCH  21  24
ENDBRANCH  17  18
ENDBRANCH  13  16
ENDBRANCH   1  14
BRANCH  11  26
ATOM     26  C   UNL     1       4.102   4.897  16.980  0.00  0.00    +0.000 C 
BRANCH  26  27
ATOM     27  N   UNL     1       5.447   4.355  17.264  0.00  0.00    +0.000 NA
ATOM     28  C   UNL     1       6.293   5.347  17.979  0.00  0.00    +0.000 C 
ATOM     29  C   UNL     1       6.855   6.491  17.104  0.00  0.00    +0.000 C 
ATOM     30  O   UNL     1       7.516   6.012  15.929  0.00  0.00    +0.000 OA
ATOM     31  C   UNL     1       6.684   5.116  15.183  0.00  0.00    +0.000 C 
ATOM     32  C   UNL     1       6.228   3.946  16.070  0.00  0.00    +0.000 C 
ENDBRANCH  26  27
ENDBRANCH  11  26
TORSDOF 6
ENDMDL
MODEL 2
REMARK VINA RESULT:      -8.8      0.540      1.037
REMARK  Name = 
REMARK  6 active torsions:
REMARK  status: ('A' for Active; 'I' for Inactive)
REMARK    1  A    between atoms: C_2  and  N_3
REMARK    2  A    between atoms: C_4  and  C_5
REMARK    3  A    between atoms: C_8  and  O_9
REMARK    4  A    between atoms: N_12  and  C_13
REMARK    5  A    between atoms: N_23  and  C_24
REMARK    6  A    between atoms: C_24  and  N_25
REMARK                            x       y       z     vdW  Elec       q    Type
REMARK                         _______ _______ _______ _____ _____    ______ ____
ROOT
ATOM      1  C   UNL     1       1.473   8.574  19.748  0.00  0.00    +0.000 A 
ATOM      2  C   UNL     1       2.029   8.651  18.451  0.00  0.00    +0.000 A 
ATOM      3  C   UNL     1       2.778   7.598  17.886  0.00  0.00    +0.000 A 
ATOM      4  C   UNL     1       2.910   6.436  18.613  0.00  0.00    +0.000 A 
ATOM      5  C   UNL     1       2.326   6.370  19.882  0.00  0.00    +0.000 A 
ATOM      6  C   UNL     1       1.642   7.407  20.490  0.00  0.00    +0.000 A 
ATOM      7  C   UNL     1       2.461   4.996  20.343  0.00  0.00    +0.000 C 
ATOM      8  O   UNL     1       2.236   4.565  21.450  0.00  0.00    +0.000 OA
ATOM      9  C   UNL     1       2.986   4.218  19.124  0.00  0.00    +0.000 C 
ATOM     10  O   UNL     1       2.931   3.013  19.006  0.00  0.00    +0.000 OA
ATOM     11  N   UNL     1       3.448   5.183  18.241  0.00  0.00    +0.000 N 
ENDROOT
BRANCH   1  14
ATOM     12  O   UNL     1       1.513   9.678  22.479  0.00  0.00    +0.000 OA
ATOM     13  C   UNL     1       0.769  10.088  21.602  0.00  0.00    +0.000 C 
ATOM     14  N   UNL     1       0.700   9.598  20.325  0.00  0.00    +0.000 N 
ATOM     15  H   UNL     1      -0.014  10.050  19.771  0.00  0.00    +0.000 HD
BRANCH  13  16
ATOM     16  N   UNL     1      -0.120  11.122  21.759  0.00  0.00    +0.000 NA
ATOM     17  C   UNL     1      -0.777  11.121  22.876  0.00  0.00    +0.000 C 
BRANCH  17  18
ATOM     18  C   UNL     1      -1.732  12.188  23.231  0.00  0.00    +0.000 A 
ATOM     19  C   UNL     1      -1.329  13.525  23.276  0.00  0.00    +0.000 A 
ATOM     20  C   UNL     1      -2.241  14.513  23.655  0.00  0.00    +0.000 A 
ATOM     21  C   UNL     1      -3.545  14.150  23.982  0.00  0.00    +0.000 A 
ATOM     22  C   UNL     1      -3.953  12.823  23.930  0.00  0.00    +0.000 A 
ATOM     23  C   UNL     1      -3.048  11.831  23.550  0.00  0.00    +0.000 A 
BRANCH  21  24
ATOM     24  O   UNL     1      -4.459  15.082  24.376  0.00  0.00    +0.000 OA
ATOM     25  H   UNL     1      -4.165  15.954  24.067  0.00  0.00    +0.000 HD
ENDBRANCH  21  24
ENDBRANCH  17  18
ENDBRANCH  13  16
ENDBRANCH   1  14
BRANCH  11  26
ATOM     26  C   UNL     1       4.172   4.862  17.031  0.00  0.00    +0.000 C 
BRANCH  26  27
ATOM     27  N   UNL     1       5.225   5.861  16.753  0.00  0.00    +0.000 NA
ATOM     28  C   UNL     1       5.810   5.672  15.399  0.00  0.00    +0.000 C 
ATOM     29  C   UNL     1       6.793   4.486  15.262  0.00  0.00    +0.000 C 
ATOM     30  O   UNL     1       7.817   4.500  16.261  0.00  0.00    +0.000 OA
ATOM     31  C   UNL     1       7.267   4.601  17.580  0.00  0.00    +0.000 C 
ATOM     32  C   UNL     1       6.373   5.847  17.694  0.00  0.00    +0.000 C 
ENDBRANCH  26  27
ENDBRANCH  11  26
TORSDOF 6
ENDMDL
MODEL 3
REMARK VINA RESULT:      -8.7      1.047      1.226
REMARK  Name = 
REMARK  6 active torsions:
REMARK  status: ('A' for Active; 'I' for Inactive)
REMARK    1  A    between atoms: C_2  and  N_3
REMARK    2  A    between atoms: C_4  and  C_5
REMARK    3  A    between atoms: C_8  and  O_9
REMARK    4  A    between atoms: N_12  and  C_13
REMARK    5  A    between atoms: N_23  and  C_24
REMARK    6  A    between atoms: C_24  and  N_25
REMARK                            x       y       z     vdW  Elec       q    Type
REMARK                         _______ _______ _______ _____ _____    ______ ____
ROOT
ATOM      1  C   UNL     1       1.414   7.865  20.417  0.00  0.00    +0.000 A 
ATOM      2  C   UNL     1       1.948   8.201  19.152  0.00  0.00    +0.000 A 
ATOM      3  C   UNL     1       2.723   7.297  18.395  0.00  0.00    +0.000 A 
ATOM      4  C   UNL     1       2.902   6.025  18.892  0.00  0.00    +0.000 A 
ATOM      5  C   UNL     1       2.338   5.704  20.130  0.00  0.00    +0.000 A 
ATOM      6  C   UNL     1       1.630   6.587  20.927  0.00  0.00    +0.000 A 
ATOM      7  C   UNL     1       2.523   4.274  20.327  0.00  0.00    +0.000 C 
ATOM      8  O   UNL     1       2.328   3.637  21.335  0.00  0.00    +0.000 OA
ATOM      9  C   UNL     1       3.055   3.754  18.980  0.00  0.00    +0.000 C 
ATOM     10  O   UNL     1       3.036   2.592  18.640  0.00  0.00    +0.000 OA
ATOM     11  N   UNL     1       3.474   4.882  18.288  0.00  0.00    +0.000 N 
ENDROOT
BRANCH   1  14
ATOM     12  O   UNL     1       2.096   9.488  22.778  0.00  0.00    +0.000 OA
ATOM     13  C   UNL     1       0.989   9.485  22.266  0.00  0.00    +0.000 C 
ATOM     14  N   UNL     1       0.617   8.737  21.180  0.00  0.00    +0.000 N 
ATOM     15  H   UNL     1      -0.359   8.849  20.944  0.00  0.00    +0.000 HD
BRANCH  13  16
ATOM     16  N   UNL     1      -0.068  10.246  22.698  0.00  0.00    +0.000 NA
ATOM     17  C   UNL     1      -0.577  11.041  21.808  0.00  0.00    +0.000 C 
BRANCH  17  18
ATOM     18  C   UNL     1      -1.751  11.889  22.086  0.00  0.00    +0.000 A 
ATOM     19  C   UNL     1      -2.364  11.876  23.342  0.00  0.00    +0.000 A 
ATOM     20  C   UNL     1      -3.500  12.658  23.568  0.00  0.00    +0.000 A 
ATOM     21  C   UNL     1      -4.006  13.442  22.534  0.00  0.00    +0.000 A 
ATOM     22  C   UNL     1      -3.395  13.465  21.287  0.00  0.00    +0.000 A 
ATOM     23  C   UNL     1      -2.259  12.688  21.054  0.00  0.00    +0.000 A 
BRANCH  21  24
ATOM     24  O   UNL     1      -5.124  14.203  22.710  0.00  0.00    +0.000 OA
ATOM     25  H   UNL     1      -5.870  13.766  22.268  0.00  0.00    +0.000 HD
ENDBRANCH  21  24
ENDBRANCH  17  18
ENDBRANCH  13  16
ENDBRANCH   1  14
BRANCH  11  26
ATOM     26  C   UNL     1       4.191   4.816  17.034  0.00  0.00    +0.000 C 
BRANCH  26  27
ATOM     27  N   UNL     1       5.546   4.256  17.218  0.00  0.00    +0.000 NA
ATOM     28  C   UNL     1       6.447   5.225  17.899  0.00  0.00    +0.000 C 
ATOM     29  C   UNL     1       6.963   6.383  17.014  0.00  0.00    +0.000 C 
ATOM     30  O   UNL     1       7.542   5.924  15.788  0.00  0.00    +0.000 OA
ATOM     31  C   UNL     1       6.655   5.052  15.079  0.00  0.00    +0.000 C 
ATOM     32  C   UNL     1       6.245   3.867  15.968  0.00  0.00    +0.000 C 
ENDBRANCH  26  27
ENDBRANCH  11  26
TORSDOF 6
ENDMDL
MODEL 4
REMARK VINA RESULT:      -8.6      1.267      1.659
REMARK  Name = 
REMARK  6 active torsions:
REMARK  status: ('A' for Active; 'I' for Inactive)
REMARK    1  A    between atoms: C_2  and  N_3
REMARK    2  A    between atoms: C_4  and  C_5
REMARK    3  A    between atoms: C_8  and  O_9
REMARK    4  A    between atoms: N_12  and  C_13
REMARK    5  A    between atoms: N_23  and  C_24
REMARK    6  A    between atoms: C_24  and  N_25
REMARK                            x       y       z     vdW  Elec       q    Type
REMARK                         _______ _______ _______ _____ _____    ______ ____
ROOT
ATOM      1  C   UNL     1       1.505   7.814  20.349  0.00  0.00    +0.000 A 
ATOM      2  C   UNL     1       2.043   8.078  19.069  0.00  0.00    +0.000 A 
ATOM      3  C   UNL     1       2.792   7.122  18.351  0.00  0.00    +0.000 A 
ATOM      4  C   UNL     1       2.942   5.870  18.906  0.00  0.00    +0.000 A 
ATOM      5  C   UNL     1       2.375   5.620  20.159  0.00  0.00    +0.000 A 
ATOM      6  C   UNL     1       1.692   6.556  20.917  0.00  0.00    +0.000 A 
ATOM      7  C   UNL     1       2.526   4.197  20.421  0.00  0.00    +0.000 C 
ATOM      8  O   UNL     1       2.318   3.611  21.458  0.00  0.00    +0.000 OA
ATOM      9  C   UNL     1       3.039   3.603  19.098  0.00  0.00    +0.000 C 
ATOM     10  O   UNL     1       2.991   2.427  18.811  0.00  0.00    +0.000 OA
ATOM     11  N   UNL     1       3.483   4.687  18.354  0.00  0.00    +0.000 N 
ENDROOT
BRANCH   1  14
ATOM     12  O   UNL     1       2.176   9.383  22.750  0.00  0.00    +0.000 OA
ATOM     13  C   UNL     1       1.099   9.459  22.181  0.00  0.00    +0.000 C 
ATOM     14  N   UNL     1       0.733   8.740  21.073  0.00  0.00    +0.000 N 
ATOM     15  H   UNL     1      -0.219   8.921  20.787  0.00  0.00    +0.000 HD
BRANCH  13  16
ATOM     16  N   UNL     1       0.077  10.292  22.560  0.00  0.00    +0.000 NA
ATOM     17  C   UNL     1      -0.507  10.926  21.592  0.00  0.00    +0.000 C 
BRANCH  17  18
ATOM     18  C   UNL     1      -1.659  11.821  21.814  0.00  0.00    +0.000 A 
ATOM     19  C   UNL     1      -2.259  11.916  23.072  0.00  0.00    +0.000 A 
ATOM     20  C   UNL     1      -3.374  12.739  23.249  0.00  0.00    +0.000 A 
ATOM     21  C   UNL     1      -3.873  13.455  22.163  0.00  0.00    +0.000 A 
ATOM     22  C   UNL     1      -3.275  13.370  20.913  0.00  0.00    +0.000 A 
ATOM     23  C   UNL     1      -2.159  12.552  20.730  0.00  0.00    +0.000 A 
BRANCH  21  24
ATOM     24  O   UNL     1      -4.972  14.253  22.291  0.00  0.00    +0.000 OA
ATOM     25  H   UNL     1      -5.232  14.276  23.226  0.00  0.00    +0.000 HD
ENDBRANCH  21  24
ENDBRANCH  17  18
ENDBRANCH  13  16
ENDBRANCH   1  14
BRANCH  11  26
ATOM     26  C   UNL     1       4.194   4.546  17.102  0.00  0.00    +0.000 C 
BRANCH  26  27
ATOM     27  N   UNL     1       5.136   5.665  16.890  0.00  0.00    +0.000 NA
ATOM     28  C   UNL     1       5.673   5.667  15.502  0.00  0.00    +0.000 C 
ATOM     29  C   UNL     1       6.754   4.601  15.209  0.00  0.00    +0.000 C 
ATOM     30  O   UNL     1       7.818   4.618  16.167  0.00  0.00    +0.000 OA
ATOM     31  C   UNL     1       7.322   4.535  17.508  0.00  0.00    +0.000 C 
ATOM     32  C   UNL     1       6.322   5.670  17.781  0.00  0.00    +0.000 C 
ENDBRANCH  26  27
ENDBRANCH  11  26
TORSDOF 6
ENDMDL
MODEL 5
REMARK VINA RESULT:      -8.5      1.329      1.835
REMARK  Name = 
REMARK  6 active torsions:
REMARK  status: ('A' for Active; 'I' for Inactive)
REMARK    1  A    between atoms: C_2  and  N_3
REMARK    2  A    between atoms: C_4  and  C_5
REMARK    3  A    between atoms: C_8  and  O_9
REMARK    4  A    between atoms: N_12  and  C_13
REMARK    5  A    between atoms: N_23  and  C_24
REMARK    6  A    between atoms: C_24  and  N_25
REMARK                            x       y       z     vdW  Elec       q    Type
REMARK                         _______ _______ _______ _____ _____    ______ ____
ROOT
ATOM      1  C   UNL     1       1.506   8.992  19.407  0.00  0.00    +0.000 A 
ATOM      2  C   UNL     1       2.118   8.984  18.133  0.00  0.00    +0.000 A 
ATOM      3  C   UNL     1       2.862   7.884  17.658  0.00  0.00    +0.000 A 
ATOM      4  C   UNL     1       2.932   6.760  18.451  0.00  0.00    +0.000 A 
ATOM      5  C   UNL     1       2.293   6.777  19.694  0.00  0.00    +0.000 A 
ATOM      6  C   UNL     1       1.612   7.863  20.217  0.00  0.00    +0.000 A 
ATOM      7  C   UNL     1       2.371   5.428  20.234  0.00  0.00    +0.000 C 
ATOM      8  O   UNL     1       2.088   5.062  21.350  0.00  0.00    +0.000 OA
ATOM      9  C   UNL     1       2.925   4.572  19.082  0.00  0.00    +0.000 C 
ATOM     10  O   UNL     1       2.842   3.364  19.025  0.00  0.00    +0.000 OA
ATOM     11  N   UNL     1       3.450   5.476  18.169  0.00  0.00    +0.000 N 
ENDROOT
BRANCH   1  14
ATOM     12  O   UNL     1      -1.103  10.023  18.510  0.00  0.00    +0.000 OA
ATOM     13  C   UNL     1      -0.484  10.496  19.450  0.00  0.00    +0.000 C 
ATOM     14  N   UNL     1       0.738  10.064  19.894  0.00  0.00    +0.000 N 
ATOM     15  H   UNL     1       1.095  10.622  20.658  0.00  0.00    +0.000 HD
BRANCH  13  16
ATOM     16  N   UNL     1      -0.924  11.540  20.223  0.00  0.00    +0.000 NA
ATOM     17  C   UNL     1      -1.186  11.242  21.457  0.00  0.00    +0.000 C 
BRANCH  17  18
ATOM     18  C   UNL     1      -1.617  12.255  22.440  0.00  0.00    +0.000 A 
ATOM     19  C   UNL     1      -2.858  12.156  23.073  0.00  0.00    +0.000 A 
ATOM     20  C   UNL     1      -3.261  13.149  23.970  0.00  0.00    +0.000 A 
ATOM     21  C   UNL     1      -2.415  14.227  24.222  0.00  0.00    +0.000 A 
ATOM     22  C   UNL     1      -1.176  14.324  23.602  0.00  0.00    +0.000 A 
ATOM     23  C   UNL     1      -0.766  13.334  22.706  0.00  0.00    +0.000 A 
BRANCH  21  24
ATOM     24  O   UNL     1      -2.780  15.225  25.075  0.00  0.00    +0.000 OA
ATOM     25  H   UNL     1      -2.004  15.489  25.595  0.00  0.00    +0.000 HD
ENDBRANCH  21  24
ENDBRANCH  17  18
ENDBRANCH  13  16
ENDBRANCH   1  14
BRANCH  11  26
ATOM     26  C   UNL     1       4.216   5.072  17.010  0.00  0.00    +0.000 C 
BRANCH  26  27
ATOM     27  N   UNL     1       5.338   5.999  16.758  0.00  0.00    +0.000 NA
ATOM     28  C   UNL     1       5.963   5.747  15.431  0.00  0.00    +0.000 C 
ATOM     29  C   UNL     1       6.876   4.501  15.356  0.00  0.00    +0.000 C 
ATOM     30  O   UNL     1       7.860   4.475  16.396  0.00  0.00    +0.000 OA
ATOM     31  C   UNL     1       7.265   4.636  17.689  0.00  0.00    +0.000 C 
ATOM     32  C   UNL     1       6.446   5.936  17.744  0.00  0.00    +0.000 C 
ENDBRANCH  26  27
ENDBRANCH  11  26
TORSDOF 6
ENDMDL
MODEL 6
REMARK VINA RESULT:      -8.5      1.068      1.068
REMARK  Name = 
REMARK  6 active torsions:
REMARK  status: ('A' for Active; 'I' for Inactive)
REMARK    1  A    between atoms: C_2  and  N_3
REMARK    2  A    between atoms: C_4  and  C_5
REMARK    3  A    between atoms: C_8  and  O_9
REMARK    4  A    between atoms: N_12  and  C_13
REMARK    5  A    between atoms: N_23  and  C_24
REMARK    6  A    between atoms: C_24  and  N_25
REMARK                            x       y       z     vdW  Elec       q    Type
REMARK                         _______ _______ _______ _____ _____    ______ ____
ROOT
ATOM      1  C   UNL     1       1.607   8.999  19.622  0.00  0.00    +0.000 A 
ATOM      2  C   UNL     1       2.170   9.017  18.327  0.00  0.00    +0.000 A 
ATOM      3  C   UNL     1       2.830   7.899  17.773  0.00  0.00    +0.000 A 
ATOM      4  C   UNL     1       2.862   6.737  18.512  0.00  0.00    +0.000 A 
ATOM      5  C   UNL     1       2.272   6.732  19.779  0.00  0.00    +0.000 A 
ATOM      6  C   UNL     1       1.676   7.829  20.376  0.00  0.00    +0.000 A 
ATOM      7  C   UNL     1       2.290   5.356  20.253  0.00  0.00    +0.000 C 
ATOM      8  O   UNL     1       2.027   4.955  21.363  0.00  0.00    +0.000 OA
ATOM      9  C   UNL     1       2.749   4.525  19.043  0.00  0.00    +0.000 C 
ATOM     10  O   UNL     1       2.594   3.328  18.936  0.00  0.00    +0.000 OA
ATOM     11  N   UNL     1       3.293   5.439  18.152  0.00  0.00    +0.000 N 
ENDROOT
BRANCH   1  14
ATOM     12  O   UNL     1      -1.080  10.060  19.048  0.00  0.00    +0.000 OA
ATOM     13  C   UNL     1      -0.340  10.535  19.895  0.00  0.00    +0.000 C 
ATOM     14  N   UNL     1       0.922  10.089  20.187  0.00  0.00    +0.000 N 
ATOM     15  H   UNL     1       1.381  10.651  20.891  0.00  0.00    +0.000 HD
BRANCH  13  16
ATOM     16  N   UNL     1      -0.664  11.596  20.702  0.00  0.00    +0.000 NA
ATOM     17  C   UNL     1      -1.559  11.349  21.607  0.00  0.00    +0.000 C 
BRANCH  17  18
ATOM     18  C   UNL     1      -1.984  12.360  22.594  0.00  0.00    +0.000 A 
ATOM     19  C   UNL     1      -1.133  13.405  22.962  0.00  0.00    +0.000 A 
ATOM     20  C   UNL     1      -1.543  14.326  23.929  0.00  0.00    +0.000 A 
ATOM     21  C   UNL     1      -2.800  14.189  24.514  0.00  0.00    +0.000 A 
ATOM     22  C   UNL     1      -3.652  13.158  24.144  0.00  0.00    +0.000 A 
ATOM     23  C   UNL     1      -3.251  12.235  23.177  0.00  0.00    +0.000 A 
BRANCH  21  24
ATOM     24  O   UNL     1      -3.228  15.057  25.475  0.00  0.00    +0.000 OA
ATOM     25  H   UNL     1      -2.475  15.284  26.045  0.00  0.00    +0.000 HD
ENDBRANCH  21  24
ENDBRANCH  17  18
ENDBRANCH  13  16
ENDBRANCH   1  14
BRANCH  11  26
ATOM     26  C   UNL     1       3.991   5.047  16.947  0.00  0.00    +0.000 C 
BRANCH  26  27
ATOM     27  N   UNL     1       5.297   4.431  17.259  0.00  0.00    +0.000 NA
ATOM     28  C   UNL     1       6.189   5.382  17.977  0.00  0.00    +0.000 C 
ATOM     29  C   UNL     1       6.831   6.480  17.097  0.00  0.00    +0.000 C 
ATOM     30  O   UNL     1       7.481   5.948  15.939  0.00  0.00    +0.000 OA
ATOM     31  C   UNL     1       6.610   5.093  15.190  0.00  0.00    +0.000 C 
ATOM     32  C   UNL     1       6.072   3.963  16.083  0.00  0.00    +0.000 C 
ENDBRANCH  26  27
ENDBRANCH  11  26
TORSDOF 6
ENDMDL
MODEL 7
REMARK VINA RESULT:      -8.4      3.812     11.179
REMARK  Name = 
REMARK  6 active torsions:
REMARK  status: ('A' for Active; 'I' for Inactive)
REMARK    1  A    between atoms: C_2  and  N_3
REMARK    2  A    between atoms: C_4  and  C_5
REMARK    3  A    between atoms: C_8  and  O_9
REMARK    4  A    between atoms: N_12  and  C_13
REMARK    5  A    between atoms: N_23  and  C_24
REMARK    6  A    between atoms: C_24  and  N_25
REMARK                            x       y       z     vdW  Elec       q    Type
REMARK                         _______ _______ _______ _____ _____    ______ ____
ROOT
ATOM      1  C   UNL     1      -0.625  10.457  18.404  0.00  0.00    +0.000 A 
ATOM      2  C   UNL     1      -0.682  11.116  19.653  0.00  0.00    +0.000 A 
ATOM      3  C   UNL     1      -1.791  11.892  20.049  0.00  0.00    +0.000 A 
ATOM      4  C   UNL     1      -2.876  11.948  19.201  0.00  0.00    +0.000 A 
ATOM      5  C   UNL     1      -2.811  11.263  17.984  0.00  0.00    +0.000 A 
ATOM      6  C   UNL     1      -1.713  10.548  17.538  0.00  0.00    +0.000 A 
ATOM      7  C   UNL     1      -4.133  11.339  17.380  0.00  0.00    +0.000 C 
ATOM      8  O   UNL     1      -4.450  11.020  16.258  0.00  0.00    +0.000 OA
ATOM      9  C   UNL     1      -5.033  11.948  18.469  0.00  0.00    +0.000 C 
ATOM     10  O   UNL     1      -6.243  11.884  18.472  0.00  0.00    +0.000 OA
ATOM     11  N   UNL     1      -4.164  12.494  19.403  0.00  0.00    +0.000 N 
ENDROOT
BRANCH   1  14
ATOM     12  O   UNL     1       2.227  11.128  18.094  0.00  0.00    +0.000 OA
ATOM     13  C   UNL     1       1.775  10.014  17.883  0.00  0.00    +0.000 C 
ATOM     14  N   UNL     1       0.457   9.656  17.996  0.00  0.00    +0.000 N 
ATOM     15  H   UNL     1       0.290   8.696  17.733  0.00  0.00    +0.000 HD
BRANCH  13  16
ATOM     16  N   UNL     1       2.526   8.931  17.503  0.00  0.00    +0.000 NA
ATOM     17  C   UNL     1       2.390   7.877  18.246  0.00  0.00    +0.000 C 
BRANCH  17  18
ATOM     18  C   UNL     1       3.081   6.607  17.949  0.00  0.00    +0.000 A 
ATOM     19  C   UNL     1       4.401   6.599  17.492  0.00  0.00    +0.000 A 
ATOM     20  C   UNL     1       5.020   5.387  17.179  0.00  0.00    +0.000 A 
ATOM     21  C   UNL     1       4.310   4.198  17.330  0.00  0.00    +0.000 A 
ATOM     22  C   UNL     1       3.000   4.200  17.793  0.00  0.00    +0.000 A 
ATOM     23  C   UNL     1       2.376   5.408  18.110  0.00  0.00    +0.000 A 
BRANCH  21  24
ATOM     24  O   UNL     1       4.873   2.996  17.016  0.00  0.00    +0.000 OA
ATOM     25  H   UNL     1       4.214   2.456  16.551  0.00  0.00    +0.000 HD
ENDBRANCH  21  24
ENDBRANCH  17  18
ENDBRANCH  13  16
ENDBRANCH   1  14
BRANCH  11  26
ATOM     26  C   UNL     1      -4.609  13.308  20.513  0.00  0.00    +0.000 C 
BRANCH  26  27
ATOM     27  N   UNL     1      -5.007  12.474  21.666  0.00  0.00    +0.000 NA
ATOM     28  C   UNL     1      -6.459  12.609  21.960  0.00  0.00    +0.000 C 
ATOM     29  C   UNL     1      -6.872  13.920  22.668  0.00  0.00    +0.000 C 
ATOM     30  O   UNL     1      -6.090  14.186  23.836  0.00  0.00    +0.000 OA
ATOM     31  C   UNL     1      -4.687  14.140  23.554  0.00  0.00    +0.000 C 
ATOM     32  C   UNL     1      -4.308  12.782  22.939  0.00  0.00    +0.000 C 
ENDBRANCH  26  27
ENDBRANCH  11  26
TORSDOF 6
ENDMDL
MODEL 8
REMARK VINA RESULT:      -8.4      0.776      1.176
REMARK  Name = 
REMARK  6 active torsions:
REMARK  status: ('A' for Active; 'I' for Inactive)
REMARK    1  A    between atoms: C_2  and  N_3
REMARK    2  A    between atoms: C_4  and  C_5
REMARK    3  A    between atoms: C_8  and  O_9
REMARK    4  A    between atoms: N_12  and  C_13
REMARK    5  A    between atoms: N_23  and  C_24
REMARK    6  A    between atoms: C_24  and  N_25
REMARK                            x       y       z     vdW  Elec       q    Type
REMARK                         _______ _______ _______ _____ _____    ______ ____
ROOT
ATOM      1  C   UNL     1       1.370   8.018  20.329  0.00  0.00    +0.000 A 
ATOM      2  C   UNL     1       1.892   8.313  19.050  0.00  0.00    +0.000 A 
ATOM      3  C   UNL     1       2.672   7.391  18.321  0.00  0.00    +0.000 A 
ATOM      4  C   UNL     1       2.870   6.141  18.863  0.00  0.00    +0.000 A 
ATOM      5  C   UNL     1       2.318   5.859  20.117  0.00  0.00    +0.000 A 
ATOM      6  C   UNL     1       1.605   6.762  20.885  0.00  0.00    +0.000 A 
ATOM      7  C   UNL     1       2.522   4.440  20.365  0.00  0.00    +0.000 C 
ATOM      8  O   UNL     1       2.341   3.838  21.397  0.00  0.00    +0.000 OA
ATOM      9  C   UNL     1       3.051   3.877  19.034  0.00  0.00    +0.000 C 
ATOM     10  O   UNL     1       3.044   2.702  18.737  0.00  0.00    +0.000 OA
ATOM     11  N   UNL     1       3.452   4.983  18.298  0.00  0.00    +0.000 N 
ENDROOT
BRANCH   1  14
ATOM     12  O   UNL     1       1.097  10.944  20.125  0.00  0.00    +0.000 OA
ATOM     13  C   UNL     1       0.465  10.267  20.920  0.00  0.00    +0.000 C 
ATOM     14  N   UNL     1       0.568   8.909  21.065  0.00  0.00    +0.000 N 
ATOM     15  H   UNL     1      -0.012   8.551  21.811  0.00  0.00    +0.000 HD
BRANCH  13  16
ATOM     16  N   UNL     1      -0.466  10.765  21.797  0.00  0.00    +0.000 NA
ATOM     17  C   UNL     1      -0.419  12.047  21.984  0.00  0.00    +0.000 C 
BRANCH  17  18
ATOM     18  C   UNL     1      -1.380  12.754  22.851  0.00  0.00    +0.000 A 
ATOM     19  C   UNL     1      -2.614  12.182  23.170  0.00  0.00    +0.000 A 
ATOM     20  C   UNL     1      -3.524  12.889  23.960  0.00  0.00    +0.000 A 
ATOM     21  C   UNL     1      -3.186  14.159  24.420  0.00  0.00    +0.000 A 
ATOM     22  C   UNL     1      -1.957  14.729  24.114  0.00  0.00    +0.000 A 
ATOM     23  C   UNL     1      -1.042  14.027  23.327  0.00  0.00    +0.000 A 
BRANCH  21  24
ATOM     24  O   UNL     1      -4.055  14.889  25.177  0.00  0.00    +0.000 OA
ATOM     25  H   UNL     1      -3.545  15.474  25.759  0.00  0.00    +0.000 HD
ENDBRANCH  21  24
ENDBRANCH  17  18
ENDBRANCH  13  16
ENDBRANCH   1  14
BRANCH  11  26
ATOM     26  C   UNL     1       4.162   4.879  17.042  0.00  0.00    +0.000 C 
BRANCH  26  27
ATOM     27  N   UNL     1       5.506   4.296  17.231  0.00  0.00    +0.000 NA
ATOM     28  C   UNL     1       6.409   5.234  17.951  0.00  0.00    +0.000 C 
ATOM     29  C   UNL     1       6.954   6.408  17.106  0.00  0.00    +0.000 C 
ATOM     30  O   UNL     1       7.545   5.975  15.877  0.00  0.00    +0.000 OA
ATOM     31  C   UNL     1       6.657   5.134  15.131  0.00  0.00    +0.000 C 
ATOM     32  C   UNL     1       6.218   3.931  15.981  0.00  0.00    +0.000 C 
ENDBRANCH  26  27
ENDBRANCH  11  26
TORSDOF 6
ENDMDL
MODEL 9
REMARK VINA RESULT:      -8.4      4.123     11.264
REMARK  Name = 
REMARK  6 active torsions:
REMARK  status: ('A' for Active; 'I' for Inactive)
REMARK    1  A    between atoms: C_2  and  N_3
REMARK    2  A    between atoms: C_4  and  C_5
REMARK    3  A    between atoms: C_8  and  O_9
REMARK    4  A    between atoms: N_12  and  C_13
REMARK    5  A    between atoms: N_23  and  C_24
REMARK    6  A    between atoms: C_24  and  N_25
REMARK                            x       y       z     vdW  Elec       q    Type
REMARK                         _______ _______ _______ _____ _____    ______ ____
ROOT
ATOM      1  C   UNL     1      -0.785  10.438  18.241  0.00  0.00    +0.000 A 
ATOM      2  C   UNL     1      -0.962  11.090  19.482  0.00  0.00    +0.000 A 
ATOM      3  C   UNL     1      -2.129  11.818  19.795  0.00  0.00    +0.000 A 
ATOM      4  C   UNL     1      -3.149  11.831  18.871  0.00  0.00    +0.000 A 
ATOM      5  C   UNL     1      -2.967  11.152  17.662  0.00  0.00    +0.000 A 
ATOM      6  C   UNL     1      -1.810  10.486  17.298  0.00  0.00    +0.000 A 
ATOM      7  C   UNL     1      -4.243  11.175  16.962  0.00  0.00    +0.000 C 
ATOM      8  O   UNL     1      -4.463  10.846  15.820  0.00  0.00    +0.000 OA
ATOM      9  C   UNL     1      -5.245  11.742  17.982  0.00  0.00    +0.000 C 
ATOM     10  O   UNL     1      -6.448  11.628  17.896  0.00  0.00    +0.000 OA
ATOM     11  N   UNL     1      -4.471  12.322  18.977  0.00  0.00    +0.000 N 
ENDROOT
BRANCH   1  14
ATOM     12  O   UNL     1       2.061  11.194  18.258  0.00  0.00    +0.000 OA
ATOM     13  C   UNL     1       1.667  10.080  17.954  0.00  0.00    +0.000 C 
ATOM     14  N   UNL     1       0.356   9.684  17.914  0.00  0.00    +0.000 N 
ATOM     15  H   UNL     1       0.245   8.732  17.594  0.00  0.00    +0.000 HD
BRANCH  13  16
ATOM     16  N   UNL     1       2.485   9.034  17.608  0.00  0.00    +0.000 NA
ATOM     17  C   UNL     1       2.204   7.902  18.174  0.00  0.00    +0.000 C 
BRANCH  17  18
ATOM     18  C   UNL     1       2.947   6.663  17.875  0.00  0.00    +0.000 A 
ATOM     19  C   UNL     1       2.372   5.410  18.102  0.00  0.00    +0.000 A 
ATOM     20  C   UNL     1       3.110   4.251  17.849  0.00  0.00    +0.000 A 
ATOM     21  C   UNL     1       4.414   4.362  17.372  0.00  0.00    +0.000 A 
ATOM     22  C   UNL     1       4.986   5.605  17.136  0.00  0.00    +0.000 A 
ATOM     23  C   UNL     1       4.254   6.768  17.383  0.00  0.00    +0.000 A 
BRANCH  21  24
ATOM     24  O   UNL     1       5.173   3.255  17.132  0.00  0.00    +0.000 OA
ATOM     25  H   UNL     1       4.620   2.589  16.692  0.00  0.00    +0.000 HD
ENDBRANCH  21  24
ENDBRANCH  17  18
ENDBRANCH  13  16
ENDBRANCH   1  14
BRANCH  11  26
ATOM     26  C   UNL     1      -5.030  13.114  20.051  0.00  0.00    +0.000 C 
BRANCH  26  27
ATOM     27  N   UNL     1      -5.361  12.275  21.222  0.00  0.00    +0.000 NA
ATOM     28  C   UNL     1      -6.830  12.084  21.355  0.00  0.00    +0.000 C 
ATOM     29  C   UNL     1      -7.608  13.299  21.910  0.00  0.00    +0.000 C 
ATOM     30  O   UNL     1      -7.048  13.803  23.127  0.00  0.00    +0.000 OA
ATOM     31  C   UNL     1      -5.647  14.071  22.992  0.00  0.00    +0.000 C 
ATOM     32  C   UNL     1      -4.903  12.807  22.530  0.00  0.00    +0.000 C 
ENDBRANCH  26  27
ENDBRANCH  11  26
TORSDOF 6
ENDMDL
