MODEL 1
REMARK VINA RESULT:      -8.0      0.000      0.000
REMARK  Name = 
REMARK  10 active torsions:
REMARK  status: ('A' for Active; 'I' for Inactive)
REMARK    1  A    between atoms: C_1  and  C_2
REMARK    2  A    between atoms: C_2  and  N_3
REMARK    3  A    between atoms: C_7  and  O_8
REMARK    4  A    between atoms: O_8  and  C_9
REMARK    5  A    between atoms: C_9  and  C_10
REMARK    6  A    between atoms: N_12  and  C_13
REMARK    7  A    between atoms: C_13  and  C_14
REMARK    8  A    between atoms: C_14  and  C_15
REMARK    9  A    between atoms: C_15  and  N_16
REMARK   10  A    between atoms: C_19  and  C_20
REMARK                            x       y       z     vdW  Elec       q    Type
REMARK                         _______ _______ _______ _____ _____    ______ ____
ROOT
ATOM      1  C   UNL     1       8.123   9.434  17.846  0.00  0.00    +0.000 C 
ENDROOT
BRANCH   1   2
ATOM      2  C   UNL     1       7.918   7.924  17.895  0.00  0.00    +0.000 C 
ATOM      3  O   UNL     1       8.420   7.219  18.766  0.00  0.00    +0.000 OA
ATOM      4  N   UNL     1       7.118   7.429  16.880  0.00  0.00    +0.000 N 
ATOM      5  H   UNL     1       6.783   8.062  16.165  0.00  0.00    +0.000 HD
BRANCH   4   6
ATOM      6  C   UNL     1       6.841   6.014  16.741  0.00  0.00    +0.000 C 
BRANCH   6   7
ATOM      7  C   UNL     1       5.495   5.729  16.076  0.00  0.00    +0.000 C 
BRANCH   7   8
ATOM      8  C   UNL     1       4.333   5.478  17.054  0.00  0.00    +0.000 C 
BRANCH   8   9
ATOM      9  N   UNL     1       4.158   4.042  17.354  0.00  0.00    +0.000 NA
ATOM     10  C   UNL     1       2.781   3.575  17.143  0.00  0.00    +0.000 C 
ATOM     11  C   UNL     1       1.772   4.142  18.144  0.00  0.00    +0.000 C 
ATOM     12  C   UNL     1       2.222   4.022  19.610  0.00  0.00    +0.000 C 
ATOM     13  C   UNL     1       1.422   4.993  20.483  0.00  0.00    +0.000 C 
ATOM     14  C   UNL     1       3.727   4.261  19.810  0.00  0.00    +0.000 C 
ATOM     15  C   UNL     1       4.582   3.648  18.704  0.00  0.00    +0.000 C 
ENDBRANCH   8   9
ENDBRANCH   7   8
ENDBRANCH   6   7
ENDBRANCH   4   6
ENDBRANCH   1   2
BRANCH   1  16
ATOM     16  O   UNL     1       9.006   9.797  18.900  0.00  0.00    +0.000 OA
BRANCH  16  21
ATOM     17  N   UNL     1      10.912  13.558  18.838  0.00  0.00    +0.000 N 
ATOM     18  C   UNL     1      11.073  12.735  17.738  0.00  0.00    +0.000 A 
ATOM     19  O   UNL     1      11.745  13.009  16.744  0.00  0.00    +0.000 OA
ATOM     20  C   UNL     1      10.381  11.424  17.747  0.00  0.00    +0.000 A 
ATOM     21  C   UNL     1       9.685  10.993  18.805  0.00  0.00    +0.000 A 
ATOM     22  C   UNL     1       9.606  11.848  20.005  0.00  0.00    +0.000 A 
ATOM     23  C   UNL     1       8.930  11.406  21.158  0.00  0.00    +0.000 A 
ATOM     24  C   UNL     1       8.852  12.205  22.297  0.00  0.00    +0.000 A 
ATOM     25  C   UNL     1       9.439  13.463  22.294  0.00  0.00    +0.000 A 
ATOM     26  C   UNL     1      10.103  13.920  21.155  0.00  0.00    +0.000 A 
ATOM     27  C   UNL     1      10.207  13.121  20.004  0.00  0.00    +0.000 A 
BRANCH  17  29
ATOM     28  C   UNL     1      10.637  15.954  18.218  0.00  0.00    +0.000 C 
ATOM     29  C   UNL     1      11.550  14.875  18.783  0.00  0.00    +0.000 C 
ENDBRANCH  17  29
ENDBRANCH  16  21
ENDBRANCH   1  16
TORSDOF 8
ENDMDL
MODEL 2
REMARK VINA RESULT:      -7.8      2.269      9.896
REMARK  Name = 
REMARK  10 active torsions:
REMARK  status: ('A' for Active; 'I' for Inactive)
REMARK    1  A    between atoms: C_1  and  C_2
REMARK    2  A    between atoms: C_2  and  N_3
REMARK    3  A    between atoms: C_7  and  O_8
REMARK    4  A    between atoms: O_8  and  C_9
REMARK    5  A    between atoms: C_9  and  C_10
REMARK    6  A    between atoms: N_12  and  C_13
REMARK    7  A    between atoms: C_13  and  C_14
REMARK    8  A    between atoms: C_14  and  C_15
REMARK    9  A    between atoms: C_15  and  N_16
REMARK   10  A    between atoms: C_19  and  C_20
REMARK                            x       y       z     vdW  Elec       q    Type
REMARK                         _______ _______ _______ _____ _____    ______ ____
ROOT
ATOM      1  C   UNL     1       7.266   5.397  17.000  0.00  0.00    +0.000 C 
ENDROOT
BRANCH   1   2
ATOM      2  C   UNL     1       7.535   6.622  17.866  0.00  0.00    +0.000 C 
ATOM      3  O   UNL     1       7.900   6.536  19.035  0.00  0.00    +0.000 OA
ATOM      4  N   UNL     1       7.336   7.828  17.216  0.00  0.00    +0.000 N 
ATOM      5  H   UNL     1       6.981   7.823  16.268  0.00  0.00    +0.000 HD
BRANCH   4   6
ATOM      6  C   UNL     1       7.504   9.100  17.889  0.00  0.00    +0.000 C 
BRANCH   6   7
ATOM      7  C   UNL     1       8.961   9.556  17.951  0.00  0.00    +0.000 C 
BRANCH   7   8
ATOM      8  C   UNL     1       9.169  10.979  18.502  0.00  0.00    +0.000 C 
BRANCH   8   9
ATOM      9  N   UNL     1      10.505  11.515  18.170  0.00  0.00    +0.000 NA
ATOM     10  C   UNL     1      11.441  11.465  19.302  0.00  0.00    +0.000 C 
ATOM     11  C   UNL     1      11.088  12.422  20.443  0.00  0.00    +0.000 C 
ATOM     12  C   UNL     1      10.795  13.859  19.976  0.00  0.00    +0.000 C 
ATOM     13  C   UNL     1      10.020  14.611  21.061  0.00  0.00    +0.000 C 
ATOM     14  C   UNL     1      10.028  13.926  18.646  0.00  0.00    +0.000 C 
ATOM     15  C   UNL     1      10.495  12.882  17.634  0.00  0.00    +0.000 C 
ENDBRANCH   8   9
ENDBRANCH   7   8
ENDBRANCH   6   7
ENDBRANCH   4   6
ENDBRANCH   1   2
BRANCH   1  16
ATOM     16  O   UNL     1       5.870   5.341  16.730  0.00  0.00    +0.000 OA
BRANCH  16  21
ATOM     17  N   UNL     1       3.214   4.388  19.864  0.00  0.00    +0.000 N 
ATOM     18  C   UNL     1       4.102   3.411  19.452  0.00  0.00    +0.000 A 
ATOM     19  O   UNL     1       4.168   2.275  19.919  0.00  0.00    +0.000 OA
ATOM     20  C   UNL     1       5.055   3.754  18.369  0.00  0.00    +0.000 A 
ATOM     21  C   UNL     1       5.024   4.934  17.739  0.00  0.00    +0.000 A 
ATOM     22  C   UNL     1       4.004   5.926  18.132  0.00  0.00    +0.000 A 
ATOM     23  C   UNL     1       3.903   7.157  17.455  0.00  0.00    +0.000 A 
ATOM     24  C   UNL     1       2.942   8.099  17.817  0.00  0.00    +0.000 A 
ATOM     25  C   UNL     1       2.077   7.829  18.868  0.00  0.00    +0.000 A 
ATOM     26  C   UNL     1       2.172   6.618  19.556  0.00  0.00    +0.000 A 
ATOM     27  C   UNL     1       3.123   5.649  19.193  0.00  0.00    +0.000 A 
BRANCH  17  29
ATOM     28  C   UNL     1       1.037   3.377  20.525  0.00  0.00    +0.000 C 
ATOM     29  C   UNL     1       2.324   4.052  20.977  0.00  0.00    +0.000 C 
ENDBRANCH  17  29
ENDBRANCH  16  21
ENDBRANCH   1  16
TORSDOF 8
ENDMDL
MODEL 3
REMARK VINA RESULT:      -7.7      2.214     10.202
REMARK  Name = 
REMARK  10 active torsions:
REMARK  status: ('A' for Active; 'I' for Inactive)
REMARK    1  A    between atoms: C_1  and  C_2
REMARK    2  A    between atoms: C_2  and  N_3
REMARK    3  A    between atoms: C_7  and  O_8
REMARK    4  A    between atoms: O_8  and  C_9
REMARK    5  A    between atoms: C_9  and  C_10
REMARK    6  A    between atoms: N_12  and  C_13
REMARK    7  A    between atoms: C_13  and  C_14
REMARK    8  A    between atoms: C_14  and  C_15
REMARK    9  A    between atoms: C_15  and  N_16
REMARK   10  A    between atoms: C_19  and  C_20
REMARK                            x       y       z     vdW  Elec       q    Type
REMARK                         _______ _______ _______ _____ _____    ______ ____
ROOT
ATOM      1  C   UNL     1       7.564   5.950  18.294  0.00  0.00    +0.000 C 
ENDROOT
BRANCH   1   2
ATOM      2  C   UNL     1       7.753   7.401  17.866  0.00  0.00    +0.000 C 
ATOM      3  O   UNL     1       7.326   7.835  16.799  0.00  0.00    +0.000 OA
ATOM      4  N   UNL     1       8.438   8.177  18.785  0.00  0.00    +0.000 N 
ATOM      5  H   UNL     1       8.808   7.739  19.619  0.00  0.00    +0.000 HD
BRANCH   4   6
ATOM      6  C   UNL     1       8.747   9.571  18.536  0.00  0.00    +0.000 C 
BRANCH   6   7
ATOM      7  C   UNL     1       9.515  10.227  19.681  0.00  0.00    +0.000 C 
BRANCH   7   8
ATOM      8  C   UNL     1       9.308  11.748  19.809  0.00  0.00    +0.000 C 
BRANCH   8   9
ATOM      9  N   UNL     1      10.498  12.428  20.361  0.00  0.00    +0.000 NA
ATOM     10  C   UNL     1      10.498  13.876  20.115  0.00  0.00    +0.000 C 
ATOM     11  C   UNL     1      10.680  14.257  18.644  0.00  0.00    +0.000 C 
ATOM     12  C   UNL     1      11.855  13.539  17.960  0.00  0.00    +0.000 C 
ATOM     13  C   UNL     1      11.691  13.601  16.439  0.00  0.00    +0.000 C 
ATOM     14  C   UNL     1      12.023  12.078  18.406  0.00  0.00    +0.000 C 
ATOM     15  C   UNL     1      11.780  11.877  19.900  0.00  0.00    +0.000 C 
ENDBRANCH   8   9
ENDBRANCH   7   8
ENDBRANCH   6   7
ENDBRANCH   4   6
ENDBRANCH   1   2
BRANCH   1  16
ATOM     16  O   UNL     1       6.425   5.433  17.617  0.00  0.00    +0.000 OA
BRANCH  16  21
ATOM     17  N   UNL     1       3.055   4.397  19.930  0.00  0.00    +0.000 N 
ATOM     18  C   UNL     1       4.083   3.475  19.840  0.00  0.00    +0.000 A 
ATOM     19  O   UNL     1       4.086   2.366  20.371  0.00  0.00    +0.000 OA
ATOM     20  C   UNL     1       5.281   3.850  19.049  0.00  0.00    +0.000 A 
ATOM     21  C   UNL     1       5.355   5.000  18.370  0.00  0.00    +0.000 A 
ATOM     22  C   UNL     1       4.205   5.925  18.403  0.00  0.00    +0.000 A 
ATOM     23  C   UNL     1       4.223   7.119  17.657  0.00  0.00    +0.000 A 
ATOM     24  C   UNL     1       3.142   7.997  17.680  0.00  0.00    +0.000 A 
ATOM     25  C   UNL     1       2.033   7.701  18.461  0.00  0.00    +0.000 A 
ATOM     26  C   UNL     1       2.005   6.527  19.216  0.00  0.00    +0.000 A 
ATOM     27  C   UNL     1       3.079   5.620  19.190  0.00  0.00    +0.000 A 
BRANCH  17  29
ATOM     28  C   UNL     1       0.844   3.255  20.010  0.00  0.00    +0.000 C 
ATOM     29  C   UNL     1       1.910   4.035  20.767  0.00  0.00    +0.000 C 
ENDBRANCH  17  29
ENDBRANCH  16  21
ENDBRANCH   1  16
TORSDOF 8
ENDMDL
MODEL 4
REMARK VINA RESULT:      -7.7      2.481     10.201
REMARK  Name = 
REMARK  10 active torsions:
REMARK  status: ('A' for Active; 'I' for Inactive)
REMARK    1  A    between atoms: C_1  and  C_2
REMARK    2  A    between atoms: C_2  and  N_3
REMARK    3  A    between atoms: C_7  and  O_8
REMARK    4  A    between atoms: O_8  and  C_9
REMARK    5  A    between atoms: C_9  and  C_10
REMARK    6  A    between atoms: N_12  and  C_13
REMARK    7  A    between atoms: C_13  and  C_14
REMARK    8  A    between atoms: C_14  and  C_15
REMARK    9  A    between atoms: C_15  and  N_16
REMARK   10  A    between atoms: C_19  and  C_20
REMARK                            x       y       z     vdW  Elec       q    Type
REMARK                         _______ _______ _______ _____ _____    ______ ____
ROOT
ATOM      1  C   UNL     1       6.578   4.628  17.286  0.00  0.00    +0.000 C 
ENDROOT
BRANCH   1   2
ATOM      2  C   UNL     1       7.189   5.930  16.781  0.00  0.00    +0.000 C 
ATOM      3  O   UNL     1       7.656   6.045  15.652  0.00  0.00    +0.000 OA
ATOM      4  N   UNL     1       7.162   6.961  17.705  0.00  0.00    +0.000 N 
ATOM      5  H   UNL     1       6.810   6.779  18.636  0.00  0.00    +0.000 HD
BRANCH   4   6
ATOM      6  C   UNL     1       7.731   8.263  17.419  0.00  0.00    +0.000 C 
BRANCH   6   7
ATOM      7  C   UNL     1       8.550   8.826  18.580  0.00  0.00    +0.000 C 
BRANCH   7   8
ATOM      8  C   UNL     1       8.995  10.289  18.405  0.00  0.00    +0.000 C 
BRANCH   8   9
ATOM      9  N   UNL     1      10.073  10.660  19.346  0.00  0.00    +0.000 NA
ATOM     10  C   UNL     1       9.579  11.365  20.536  0.00  0.00    +0.000 C 
ATOM     11  C   UNL     1       9.037  12.767  20.247  0.00  0.00    +0.000 C 
ATOM     12  C   UNL     1       9.980  13.631  19.393  0.00  0.00    +0.000 C 
ATOM     13  C   UNL     1       9.202  14.794  18.771  0.00  0.00    +0.000 C 
ATOM     14  C   UNL     1      10.705  12.841  18.292  0.00  0.00    +0.000 C 
ATOM     15  C   UNL     1      11.154  11.455  18.748  0.00  0.00    +0.000 C 
ENDBRANCH   8   9
ENDBRANCH   7   8
ENDBRANCH   6   7
ENDBRANCH   4   6
ENDBRANCH   1   2
BRANCH   1  16
ATOM     16  O   UNL     1       5.277   4.501  16.724  0.00  0.00    +0.000 OA
BRANCH  16  21
ATOM     17  N   UNL     1       2.123   3.550  19.357  0.00  0.00    +0.000 N 
ATOM     18  C   UNL     1       2.779   2.504  18.732  0.00  0.00    +0.000 A 
ATOM     19  O   UNL     1       2.504   1.314  18.874  0.00  0.00    +0.000 OA
ATOM     20  C   UNL     1       3.906   2.836  17.828  0.00  0.00    +0.000 A 
ATOM     21  C   UNL     1       4.245   4.100  17.545  0.00  0.00    +0.000 A 
ATOM     22  C   UNL     1       3.468   5.200  18.148  0.00  0.00    +0.000 A 
ATOM     23  C   UNL     1       3.757   6.541  17.831  0.00  0.00    +0.000 A 
ATOM     24  C   UNL     1       3.028   7.586  18.394  0.00  0.00    +0.000 A 
ATOM     25  C   UNL     1       2.008   7.306  19.292  0.00  0.00    +0.000 A 
ATOM     26  C   UNL     1       1.716   5.982  19.625  0.00  0.00    +0.000 A 
ATOM     27  C   UNL     1       2.429   4.914  19.054  0.00  0.00    +0.000 A 
BRANCH  17  29
ATOM     28  C   UNL     1       1.574   2.869  21.688  0.00  0.00    +0.000 C 
ATOM     29  C   UNL     1       1.055   3.200  20.295  0.00  0.00    +0.000 C 
ENDBRANCH  17  29
ENDBRANCH  16  21
ENDBRANCH   1  16
TORSDOF 8
ENDMDL
MODEL 5
REMARK VINA RESULT:      -7.6      2.298      9.913
REMARK  Name = 
REMARK  10 active torsions:
REMARK  status: ('A' for Active; 'I' for Inactive)
REMARK    1  A    between atoms: C_1  and  C_2
REMARK    2  A    between atoms: C_2  and  N_3
REMARK    3  A    between atoms: C_7  and  O_8
REMARK    4  A    between atoms: O_8  and  C_9
REMARK    5  A    between atoms: C_9  and  C_10
REMARK    6  A    between atoms: N_12  and  C_13
REMARK    7  A    between atoms: C_13  and  C_14
REMARK    8  A    between atoms: C_14  and  C_15
REMARK    9  A    between atoms: C_15  and  N_16
REMARK   10  A    between atoms: C_19  and  C_20
REMARK                            x       y       z     vdW  Elec       q    Type
REMARK                         _______ _______ _______ _____ _____    ______ ____
ROOT
ATOM      1  C   UNL     1       7.281   5.009  17.094  0.00  0.00    +0.000 C 
ENDROOT
BRANCH   1   2
ATOM      2  C   UNL     1       7.467   6.278  17.919  0.00  0.00    +0.000 C 
ATOM      3  O   UNL     1       7.634   6.255  19.135  0.00  0.00    +0.000 OA
ATOM      4  N   UNL     1       7.435   7.445  17.175  0.00  0.00    +0.000 N 
ATOM      5  H   UNL     1       7.239   7.391  16.184  0.00  0.00    +0.000 HD
BRANCH   4   6
ATOM      6  C   UNL     1       7.556   8.751  17.791  0.00  0.00    +0.000 C 
BRANCH   6   7
ATOM      7  C   UNL     1       8.988   9.089  18.202  0.00  0.00    +0.000 C 
BRANCH   7   8
ATOM      8  C   UNL     1       9.107  10.167  19.295  0.00  0.00    +0.000 C 
BRANCH   8   9
ATOM      9  N   UNL     1      10.344  10.964  19.159  0.00  0.00    +0.000 NA
ATOM     10  C   UNL     1      10.536  11.919  20.259  0.00  0.00    +0.000 C 
ATOM     11  C   UNL     1       9.524  13.068  20.268  0.00  0.00    +0.000 C 
ATOM     12  C   UNL     1       9.359  13.758  18.904  0.00  0.00    +0.000 C 
ATOM     13  C   UNL     1       8.045  14.545  18.873  0.00  0.00    +0.000 C 
ATOM     14  C   UNL     1       9.412  12.786  17.715  0.00  0.00    +0.000 C 
ATOM     15  C   UNL     1      10.461  11.689  17.886  0.00  0.00    +0.000 C 
ENDBRANCH   8   9
ENDBRANCH   7   8
ENDBRANCH   6   7
ENDBRANCH   4   6
ENDBRANCH   1   2
BRANCH   1  16
ATOM     16  O   UNL     1       6.044   5.108  16.400  0.00  0.00    +0.000 OA
BRANCH  16  21
ATOM     17  N   UNL     1       2.533   3.870  18.380  0.00  0.00    +0.000 N 
ATOM     18  C   UNL     1       3.377   2.889  17.889  0.00  0.00    +0.000 A 
ATOM     19  O   UNL     1       3.175   1.679  17.972  0.00  0.00    +0.000 OA
ATOM     20  C   UNL     1       4.625   3.323  17.217  0.00  0.00    +0.000 A 
ATOM     21  C   UNL     1       4.910   4.614  17.008  0.00  0.00    +0.000 A 
ATOM     22  C   UNL     1       3.948   5.640  17.455  0.00  0.00    +0.000 A 
ATOM     23  C   UNL     1       4.186   7.005  17.203  0.00  0.00    +0.000 A 
ATOM     24  C   UNL     1       3.283   7.980  17.620  0.00  0.00    +0.000 A 
ATOM     25  C   UNL     1       2.136   7.606  18.306  0.00  0.00    +0.000 A 
ATOM     26  C   UNL     1       1.892   6.258  18.574  0.00  0.00    +0.000 A 
ATOM     27  C   UNL     1       2.782   5.259  18.145  0.00  0.00    +0.000 A 
BRANCH  17  29
ATOM     28  C   UNL     1       1.558   3.296  20.598  0.00  0.00    +0.000 C 
ATOM     29  C   UNL     1       1.338   3.421  19.097  0.00  0.00    +0.000 C 
ENDBRANCH  17  29
ENDBRANCH  16  21
ENDBRANCH   1  16
TORSDOF 8
ENDMDL
MODEL 6
REMARK VINA RESULT:      -7.6      2.303     10.227
REMARK  Name = 
REMARK  10 active torsions:
REMARK  status: ('A' for Active; 'I' for Inactive)
REMARK    1  A    between atoms: C_1  and  C_2
REMARK    2  A    between atoms: C_2  and  N_3
REMARK    3  A    between atoms: C_7  and  O_8
REMARK    4  A    between atoms: O_8  and  C_9
REMARK    5  A    between atoms: C_9  and  C_10
REMARK    6  A    between atoms: N_12  and  C_13
REMARK    7  A    between atoms: C_13  and  C_14
REMARK    8  A    between atoms: C_14  and  C_15
REMARK    9  A    between atoms: C_15  and  N_16
REMARK   10  A    between atoms: C_19  and  C_20
REMARK                            x       y       z     vdW  Elec       q    Type
REMARK                         _______ _______ _______ _____ _____    ______ ____
ROOT
ATOM      1  C   UNL     1       7.593   5.876  18.507  0.00  0.00    +0.000 C 
ENDROOT
BRANCH   1   2
ATOM      2  C   UNL     1       7.858   7.241  17.883  0.00  0.00    +0.000 C 
ATOM      3  O   UNL     1       7.599   7.492  16.710  0.00  0.00    +0.000 OA
ATOM      4  N   UNL     1       8.408   8.164  18.757  0.00  0.00    +0.000 N 
ATOM      5  H   UNL     1       8.646   7.871  19.696  0.00  0.00    +0.000 HD
BRANCH   4   6
ATOM      6  C   UNL     1       8.765   9.504  18.335  0.00  0.00    +0.000 C 
BRANCH   6   7
ATOM      7  C   UNL     1       9.292  10.370  19.477  0.00  0.00    +0.000 C 
BRANCH   7   8
ATOM      8  C   UNL     1      10.541  11.202  19.132  0.00  0.00    +0.000 C 
BRANCH   8   9
ATOM      9  N   UNL     1      10.297  12.134  18.012  0.00  0.00    +0.000 NA
ATOM     10  C   UNL     1      11.504  12.865  17.600  0.00  0.00    +0.000 C 
ATOM     11  C   UNL     1      12.001  13.877  18.635  0.00  0.00    +0.000 C 
ATOM     12  C   UNL     1      10.898  14.805  19.172  0.00  0.00    +0.000 C 
ATOM     13  C   UNL     1      11.347  15.442  20.490  0.00  0.00    +0.000 C 
ATOM     14  C   UNL     1       9.546  14.101  19.368  0.00  0.00    +0.000 C 
ATOM     15  C   UNL     1       9.223  13.107  18.255  0.00  0.00    +0.000 C 
ENDBRANCH   8   9
ENDBRANCH   7   8
ENDBRANCH   6   7
ENDBRANCH   4   6
ENDBRANCH   1   2
BRANCH   1  16
ATOM     16  O   UNL     1       6.525   5.263  17.795  0.00  0.00    +0.000 OA
BRANCH  16  21
ATOM     17  N   UNL     1       3.002   4.380  19.937  0.00  0.00    +0.000 N 
ATOM     18  C   UNL     1       4.016   3.439  19.949  0.00  0.00    +0.000 A 
ATOM     19  O   UNL     1       3.966   2.354  20.525  0.00  0.00    +0.000 OA
ATOM     20  C   UNL     1       5.266   3.761  19.219  0.00  0.00    +0.000 A 
ATOM     21  C   UNL     1       5.403   4.880  18.498  0.00  0.00    +0.000 A 
ATOM     22  C   UNL     1       4.270   5.823  18.422  0.00  0.00    +0.000 A 
ATOM     23  C   UNL     1       4.355   6.984  17.628  0.00  0.00    +0.000 A 
ATOM     24  C   UNL     1       3.291   7.879  17.549  0.00  0.00    +0.000 A 
ATOM     25  C   UNL     1       2.132   7.634  18.272  0.00  0.00    +0.000 A 
ATOM     26  C   UNL     1       2.036   6.494  19.072  0.00  0.00    +0.000 A 
ATOM     27  C   UNL     1       3.093   5.570  19.150  0.00  0.00    +0.000 A 
BRANCH  17  29
ATOM     28  C   UNL     1       0.815   3.190  19.964  0.00  0.00    +0.000 C 
ATOM     29  C   UNL     1       1.801   4.072  20.717  0.00  0.00    +0.000 C 
ENDBRANCH  17  29
ENDBRANCH  16  21
ENDBRANCH   1  16
TORSDOF 8
ENDMDL
MODEL 7
REMARK VINA RESULT:      -7.5      1.162      1.411
REMARK  Name = 
REMARK  10 active torsions:
REMARK  status: ('A' for Active; 'I' for Inactive)
REMARK    1  A    between atoms: C_1  and  C_2
REMARK    2  A    between atoms: C_2  and  N_3
REMARK    3  A    between atoms: C_7  and  O_8
REMARK    4  A    between atoms: O_8  and  C_9
REMARK    5  A    between atoms: C_9  and  C_10
REMARK    6  A    between atoms: N_12  and  C_13
REMARK    7  A    between atoms: C_13  and  C_14
REMARK    8  A    between atoms: C_14  and  C_15
REMARK    9  A    between atoms: C_15  and  N_16
REMARK   10  A    between atoms: C_19  and  C_20
REMARK                            x       y       z     vdW  Elec       q    Type
REMARK                         _______ _______ _______ _____ _____    ______ ____
ROOT
ATOM      1  C   UNL     1       8.101   9.327  17.914  0.00  0.00    +0.000 C 
ENDROOT
BRANCH   1   2
ATOM      2  C   UNL     1       8.005   7.812  17.768  0.00  0.00    +0.000 C 
ATOM      3  O   UNL     1       7.814   7.265  16.686  0.00  0.00    +0.000 OA
ATOM      4  N   UNL     1       8.159   7.120  18.957  0.00  0.00    +0.000 N 
ATOM      5  H   UNL     1       8.259   7.640  19.819  0.00  0.00    +0.000 HD
BRANCH   4   6
ATOM      6  C   UNL     1       8.061   5.676  19.023  0.00  0.00    +0.000 C 
BRANCH   6   7
ATOM      7  C   UNL     1       6.928   5.113  18.167  0.00  0.00    +0.000 C 
BRANCH   7   8
ATOM      8  C   UNL     1       5.521   5.281  18.769  0.00  0.00    +0.000 C 
BRANCH   8   9
ATOM      9  N   UNL     1       4.498   5.531  17.732  0.00  0.00    +0.000 NA
ATOM     10  C   UNL     1       3.572   6.615  18.088  0.00  0.00    +0.000 C 
ATOM     11  C   UNL     1       2.638   6.277  19.253  0.00  0.00    +0.000 C 
ATOM     12  C   UNL     1       1.934   4.918  19.106  0.00  0.00    +0.000 C 
ATOM     13  C   UNL     1       1.410   4.452  20.468  0.00  0.00    +0.000 C 
ATOM     14  C   UNL     1       2.826   3.829  18.491  0.00  0.00    +0.000 C 
ATOM     15  C   UNL     1       3.709   4.349  17.359  0.00  0.00    +0.000 C 
ENDBRANCH   8   9
ENDBRANCH   7   8
ENDBRANCH   6   7
ENDBRANCH   4   6
ENDBRANCH   1   2
BRANCH   1  16
ATOM     16  O   UNL     1       9.103   9.618  18.880  0.00  0.00    +0.000 OA
BRANCH  16  21
ATOM     17  N   UNL     1      10.864  13.449  18.919  0.00  0.00    +0.000 N 
ATOM     18  C   UNL     1      11.091  12.646  17.815  0.00  0.00    +0.000 A 
ATOM     19  O   UNL     1      11.782  12.958  16.847  0.00  0.00    +0.000 OA
ATOM     20  C   UNL     1      10.450  11.310  17.788  0.00  0.00    +0.000 A 
ATOM     21  C   UNL     1       9.738  10.840  18.819  0.00  0.00    +0.000 A 
ATOM     22  C   UNL     1       9.590  11.677  20.026  0.00  0.00    +0.000 A 
ATOM     23  C   UNL     1       8.895  11.195  21.152  0.00  0.00    +0.000 A 
ATOM     24  C   UNL     1       8.752  11.977  22.296  0.00  0.00    +0.000 A 
ATOM     25  C   UNL     1       9.289  13.256  22.326  0.00  0.00    +0.000 A 
ATOM     26  C   UNL     1       9.971  13.752  21.213  0.00  0.00    +0.000 A 
ATOM     27  C   UNL     1      10.141  12.971  20.057  0.00  0.00    +0.000 A 
BRANCH  17  29
ATOM     28  C   UNL     1      10.532  15.833  18.283  0.00  0.00    +0.000 C 
ATOM     29  C   UNL     1      11.453  14.790  18.899  0.00  0.00    +0.000 C 
ENDBRANCH  17  29
ENDBRANCH  16  21
ENDBRANCH   1  16
TORSDOF 8
ENDMDL
MODEL 8
REMARK VINA RESULT:      -7.5      2.600     10.222
REMARK  Name = 
REMARK  10 active torsions:
REMARK  status: ('A' for Active; 'I' for Inactive)
REMARK    1  A    between atoms: C_1  and  C_2
REMARK    2  A    between atoms: C_2  and  N_3
REMARK    3  A    between atoms: C_7  and  O_8
REMARK    4  A    between atoms: O_8  and  C_9
REMARK    5  A    between atoms: C_9  and  C_10
REMARK    6  A    between atoms: N_12  and  C_13
REMARK    7  A    between atoms: C_13  and  C_14
REMARK    8  A    between atoms: C_14  and  C_15
REMARK    9  A    between atoms: C_15  and  N_16
REMARK   10  A    between atoms: C_19  and  C_20
REMARK                            x       y       z     vdW  Elec       q    Type
REMARK                         _______ _______ _______ _____ _____    ______ ____
ROOT
ATOM      1  C   UNL     1       5.308   6.344  15.785  0.00  0.00    +0.000 C 
ENDROOT
BRANCH   1   2
ATOM      2  C   UNL     1       6.749   6.554  16.239  0.00  0.00    +0.000 C 
ATOM      3  O   UNL     1       7.664   5.813  15.892  0.00  0.00    +0.000 OA
ATOM      4  N   UNL     1       6.926   7.651  17.065  0.00  0.00    +0.000 N 
ATOM      5  H   UNL     1       6.117   8.185  17.354  0.00  0.00    +0.000 HD
BRANCH   4   6
ATOM      6  C   UNL     1       8.219   7.987  17.628  0.00  0.00    +0.000 C 
BRANCH   6   7
ATOM      7  C   UNL     1       8.198   9.276  18.447  0.00  0.00    +0.000 C 
BRANCH   7   8
ATOM      8  C   UNL     1       9.256  10.317  18.039  0.00  0.00    +0.000 C 
BRANCH   8   9
ATOM      9  N   UNL     1       9.394  11.394  19.041  0.00  0.00    +0.000 NA
ATOM     10  C   UNL     1       9.010  12.714  18.522  0.00  0.00    +0.000 C 
ATOM     11  C   UNL     1       9.964  13.267  17.461  0.00  0.00    +0.000 C 
ATOM     12  C   UNL     1      11.447  13.196  17.866  0.00  0.00    +0.000 C 
ATOM     13  C   UNL     1      12.333  13.317  16.623  0.00  0.00    +0.000 C 
ATOM     14  C   UNL     1      11.809  11.919  18.642  0.00  0.00    +0.000 C 
ATOM     15  C   UNL     1      10.731  11.500  19.639  0.00  0.00    +0.000 C 
ENDBRANCH   8   9
ENDBRANCH   7   8
ENDBRANCH   6   7
ENDBRANCH   4   6
ENDBRANCH   1   2
BRANCH   1  16
ATOM     16  O   UNL     1       4.452   6.605  16.890  0.00  0.00    +0.000 OA
BRANCH  16  21
ATOM     17  N   UNL     1       2.663   3.514  19.131  0.00  0.00    +0.000 N 
ATOM     18  C   UNL     1       3.401   3.158  18.016  0.00  0.00    +0.000 A 
ATOM     19  O   UNL     1       3.565   2.006  17.616  0.00  0.00    +0.000 OA
ATOM     20  C   UNL     1       4.053   4.242  17.243  0.00  0.00    +0.000 A 
ATOM     21  C   UNL     1       3.883   5.535  17.546  0.00  0.00    +0.000 A 
ATOM     22  C   UNL     1       3.013   5.894  18.682  0.00  0.00    +0.000 A 
ATOM     23  C   UNL     1       2.764   7.244  18.997  0.00  0.00    +0.000 A 
ATOM     24  C   UNL     1       1.942   7.593  20.066  0.00  0.00    +0.000 A 
ATOM     25  C   UNL     1       1.369   6.597  20.845  0.00  0.00    +0.000 A 
ATOM     26  C   UNL     1       1.615   5.254  20.553  0.00  0.00    +0.000 A 
ATOM     27  C   UNL     1       2.426   4.883  19.467  0.00  0.00    +0.000 A 
BRANCH  17  29
ATOM     28  C   UNL     1       0.678   2.048  19.462  0.00  0.00    +0.000 C 
ATOM     29  C   UNL     1       2.080   2.425  19.918  0.00  0.00    +0.000 C 
ENDBRANCH  17  29
ENDBRANCH  16  21
ENDBRANCH   1  16
TORSDOF 8
ENDMDL
MODEL 9
REMARK VINA RESULT:      -7.5      2.382     10.443
REMARK  Name = 
REMARK  10 active torsions:
REMARK  status: ('A' for Active; 'I' for Inactive)
REMARK    1  A    between atoms: C_1  and  C_2
REMARK    2  A    between atoms: C_2  and  N_3
REMARK    3  A    between atoms: C_7  and  O_8
REMARK    4  A    between atoms: O_8  and  C_9
REMARK    5  A    between atoms: C_9  and  C_10
REMARK    6  A    between atoms: N_12  and  C_13
REMARK    7  A    between atoms: C_13  and  C_14
REMARK    8  A    between atoms: C_14  and  C_15
REMARK    9  A    between atoms: C_15  and  N_16
REMARK   10  A    between atoms: C_19  and  C_20
REMARK                            x       y       z     vdW  Elec       q    Type
REMARK                         _______ _______ _______ _____ _____    ______ ____
ROOT
ATOM      1  C   UNL     1       7.457   5.226  18.250  0.00  0.00    +0.000 C 
ENDROOT
BRANCH   1   2
ATOM      2  C   UNL     1       7.672   6.577  17.577  0.00  0.00    +0.000 C 
ATOM      3  O   UNL     1       7.505   6.749  16.373  0.00  0.00    +0.000 OA
ATOM      4  N   UNL     1       8.064   7.583  18.444  0.00  0.00    +0.000 N 
ATOM      5  H   UNL     1       8.235   7.356  19.415  0.00  0.00    +0.000 HD
BRANCH   4   6
ATOM      6  C   UNL     1       8.353   8.926  17.982  0.00  0.00    +0.000 C 
BRANCH   6   7
ATOM      7  C   UNL     1       9.023   9.793  19.046  0.00  0.00    +0.000 C 
BRANCH   7   8
ATOM      8  C   UNL     1       9.372  11.221  18.587  0.00  0.00    +0.000 C 
BRANCH   8   9
ATOM      9  N   UNL     1      10.772  11.579  18.896  0.00  0.00    +0.000 NA
ATOM     10  C   UNL     1      10.885  12.600  19.947  0.00  0.00    +0.000 C 
ATOM     11  C   UNL     1      10.384  13.983  19.526  0.00  0.00    +0.000 C 
ATOM     12  C   UNL     1      10.942  14.458  18.174  0.00  0.00    +0.000 C 
ATOM     13  C   UNL     1      10.068  15.585  17.616  0.00  0.00    +0.000 C 
ATOM     14  C   UNL     1      11.068  13.333  17.134  0.00  0.00    +0.000 C 
ATOM     15  C   UNL     1      11.557  12.017  17.735  0.00  0.00    +0.000 C 
ENDBRANCH   8   9
ENDBRANCH   7   8
ENDBRANCH   6   7
ENDBRANCH   4   6
ENDBRANCH   1   2
BRANCH   1  16
ATOM     16  O   UNL     1       6.388   5.358  19.179  0.00  0.00    +0.000 OA
BRANCH  16  21
ATOM     17  N   UNL     1       2.702   3.418  18.527  0.00  0.00    +0.000 N 
ATOM     18  C   UNL     1       3.797   2.632  18.838  0.00  0.00    +0.000 A 
ATOM     19  O   UNL     1       3.784   1.405  18.926  0.00  0.00    +0.000 OA
ATOM     20  C   UNL     1       5.088   3.316  19.095  0.00  0.00    +0.000 A 
ATOM     21  C   UNL     1       5.233   4.639  18.957  0.00  0.00    +0.000 A 
ATOM     22  C   UNL     1       4.073   5.444  18.529  0.00  0.00    +0.000 A 
ATOM     23  C   UNL     1       4.201   6.831  18.318  0.00  0.00    +0.000 A 
ATOM     24  C   UNL     1       3.113   7.600  17.913  0.00  0.00    +0.000 A 
ATOM     25  C   UNL     1       1.877   6.995  17.725  0.00  0.00    +0.000 A 
ATOM     26  C   UNL     1       1.731   5.624  17.941  0.00  0.00    +0.000 A 
ATOM     27  C   UNL     1       2.822   4.830  18.333  0.00  0.00    +0.000 A 
BRANCH  17  29
ATOM     28  C   UNL     1       0.619   2.610  19.627  0.00  0.00    +0.000 C 
ATOM     29  C   UNL     1       1.422   2.730  18.340  0.00  0.00    +0.000 C 
ENDBRANCH  17  29
ENDBRANCH  16  21
ENDBRANCH   1  16
TORSDOF 8
ENDMDL
