MODEL 1
REMARK VINA RESULT:      -8.5      0.000      0.000
REMARK  Name = 
REMARK  9 active torsions:
REMARK  status: ('A' for Active; 'I' for Inactive)
REMARK    1  A    between atoms: C_1  and  O_2
REMARK    2  A    between atoms: O_2  and  C_3
REMARK    3  A    between atoms: C_6  and  C_7
REMARK    4  A    between atoms: C_7  and  N_8
REMARK    5  A    between atoms: N_8  and  N_9
REMARK    6  A    between atoms: C_10  and  C_11
REMARK    7  A    between atoms: C_15  and  C_16
REMARK    8  A    between atoms: C_28  and  O_29
REMARK    9  A    between atoms: O_29  and  C_30
REMARK                            x       y       z     vdW  Elec       q    Type
REMARK                         _______ _______ _______ _____ _____    ______ ____
ROOT
ATOM      1  N   UNL     1       2.120   6.613  18.790  0.00  0.00    +0.000 N 
ATOM      2  C   UNL     1       2.527   5.566  17.972  0.00  0.00    +0.000 A 
ATOM      3  N   UNL     1       1.662   4.614  17.763  0.00  0.00    +0.000 NA
ATOM      4  C   UNL     1       1.375   3.985  19.000  0.00  0.00    +0.000 A 
ATOM      5  C   UNL     1       1.167   2.607  19.004  0.00  0.00    +0.000 A 
ATOM      6  C   UNL     1       1.519   1.873  20.136  0.00  0.00    +0.000 A 
ATOM      7  C   UNL     1       2.055   2.526  21.251  0.00  0.00    +0.000 A 
ATOM      8  C   UNL     1       2.096   3.925  21.306  0.00  0.00    +0.000 A 
ATOM      9  C   UNL     1       1.692   4.664  20.194  0.00  0.00    +0.000 A 
ATOM     10  C   UNL     1       1.895   6.159  20.101  0.00  0.00    +0.000 A 
ATOM     11  O   UNL     1       1.980   6.816  21.135  0.00  0.00    +0.000 OA
ENDROOT
BRANCH   2  12
ATOM     12  C   UNL     1       4.020   5.234  18.033  0.00  0.00    +0.000 A 
ATOM     13  C   UNL     1       4.732   5.432  19.216  0.00  0.00    +0.000 A 
ATOM     14  C   UNL     1       6.130   5.331  19.212  0.00  0.00    +0.000 A 
ATOM     15  C   UNL     1       6.826   5.035  18.033  0.00  0.00    +0.000 A 
ATOM     16  C   UNL     1       6.136   4.851  16.841  0.00  0.00    +0.000 A 
ATOM     17  C   UNL     1       6.819   4.573  15.534  0.00  0.00    +0.000 C 
ATOM     18  C   UNL     1       4.747   4.980  16.852  0.00  0.00    +0.000 A 
ENDBRANCH   2  12
BRANCH   1  19
ATOM     19  N   UNL     1       2.731   7.886  18.474  0.00  0.00    +0.000 N 
ATOM     20  H   UNL     1       3.623   7.680  18.018  0.00  0.00    +0.000 HD
BRANCH  19  21
ATOM     21  C   UNL     1       2.018   8.854  17.643  0.00  0.00    +0.000 C 
BRANCH  21  25
ATOM     22  C   UNL     1      -0.818  10.979  20.191  0.00  0.00    +0.000 A 
ATOM     23  C   UNL     1      -1.013  10.892  18.802  0.00  0.00    +0.000 A 
ATOM     24  C   UNL     1      -0.084  10.237  17.990  0.00  0.00    +0.000 A 
ATOM     25  C   UNL     1       1.064   9.646  18.539  0.00  0.00    +0.000 A 
ATOM     26  C   UNL     1       1.295   9.814  19.908  0.00  0.00    +0.000 A 
ATOM     27  C   UNL     1       0.373  10.481  20.743  0.00  0.00    +0.000 A 
BRANCH  22  29
ATOM     28  C   UNL     1      -1.528  12.957  21.289  0.00  0.00    +0.000 C 
ATOM     29  O   UNL     1      -1.748  11.571  21.004  0.00  0.00    +0.000 OA
ENDBRANCH  22  29
BRANCH  27  30
ATOM     30  O   UNL     1       0.790  10.522  22.050  0.00  0.00    +0.000 OA
ATOM     31  C   UNL     1       0.353   9.517  22.955  0.00  0.00    +0.000 C 
ENDBRANCH  27  30
ENDBRANCH  21  25
ENDBRANCH  19  21
ENDBRANCH   1  19
TORSDOF 6
ENDMDL
MODEL 2
REMARK VINA RESULT:      -8.5      0.880      1.858
REMARK  Name = 
REMARK  9 active torsions:
REMARK  status: ('A' for Active; 'I' for Inactive)
REMARK    1  A    between atoms: C_1  and  O_2
REMARK    2  A    between atoms: O_2  and  C_3
REMARK    3  A    between atoms: C_6  and  C_7
REMARK    4  A    between atoms: C_7  and  N_8
REMARK    5  A    between atoms: N_8  and  N_9
REMARK    6  A    between atoms: C_10  and  C_11
REMARK    7  A    between atoms: C_15  and  C_16
REMARK    8  A    between atoms: C_28  and  O_29
REMARK    9  A    between atoms: O_29  and  C_30
REMARK                            x       y       z     vdW  Elec       q    Type
REMARK                         _______ _______ _______ _____ _____    ______ ____
ROOT
ATOM      1  N   UNL     1       2.153   6.683  18.746  0.00  0.00    +0.000 N 
ATOM      2  C   UNL     1       2.562   5.615  17.957  0.00  0.00    +0.000 A 
ATOM      3  N   UNL     1       1.692   4.665  17.759  0.00  0.00    +0.000 NA
ATOM      4  C   UNL     1       1.385   4.066  19.006  0.00  0.00    +0.000 A 
ATOM      5  C   UNL     1       1.166   2.691  19.038  0.00  0.00    +0.000 A 
ATOM      6  C   UNL     1       1.500   1.979  20.190  0.00  0.00    +0.000 A 
ATOM      7  C   UNL     1       2.027   2.653  21.297  0.00  0.00    +0.000 A 
ATOM      8  C   UNL     1       2.079   4.053  21.321  0.00  0.00    +0.000 A 
ATOM      9  C   UNL     1       1.693   4.769  20.188  0.00  0.00    +0.000 A 
ATOM     10  C   UNL     1       1.909   6.261  20.065  0.00  0.00    +0.000 A 
ATOM     11  O   UNL     1       1.987   6.940  21.084  0.00  0.00    +0.000 OA
ENDROOT
BRANCH   2  12
ATOM     12  C   UNL     1       4.052   5.273  18.044  0.00  0.00    +0.000 A 
ATOM     13  C   UNL     1       4.746   5.472  19.237  0.00  0.00    +0.000 A 
ATOM     14  C   UNL     1       6.143   5.362  19.255  0.00  0.00    +0.000 A 
ATOM     15  C   UNL     1       6.856   5.055  18.090  0.00  0.00    +0.000 A 
ATOM     16  C   UNL     1       6.183   4.869  16.887  0.00  0.00    +0.000 A 
ATOM     17  C   UNL     1       6.886   4.581  15.593  0.00  0.00    +0.000 C 
ATOM     18  C   UNL     1       4.796   5.008  16.875  0.00  0.00    +0.000 A 
ENDBRANCH   2  12
BRANCH   1  19
ATOM     19  N   UNL     1       2.778   7.944  18.409  0.00  0.00    +0.000 N 
ATOM     20  H   UNL     1       3.685   7.722  17.992  0.00  0.00    +0.000 HD
BRANCH  19  21
ATOM     21  C   UNL     1       2.098   8.884  17.521  0.00  0.00    +0.000 C 
BRANCH  21  25
ATOM     22  C   UNL     1      -0.954  11.058  19.759  0.00  0.00    +0.000 A 
ATOM     23  C   UNL     1       0.334  10.865  20.287  0.00  0.00    +0.000 A 
ATOM     24  C   UNL     1       1.295  10.141  19.577  0.00  0.00    +0.000 A 
ATOM     25  C   UNL     1       1.002   9.593  18.319  0.00  0.00    +0.000 A 
ATOM     26  C   UNL     1      -0.307   9.713  17.842  0.00  0.00    +0.000 A 
ATOM     27  C   UNL     1      -1.294  10.433  18.549  0.00  0.00    +0.000 A 
BRANCH  22  29
ATOM     28  C   UNL     1      -1.587  13.207  20.534  0.00  0.00    +0.000 C 
ATOM     29  O   UNL     1      -1.888  11.812  20.420  0.00  0.00    +0.000 OA
ENDBRANCH  22  29
BRANCH  27  30
ATOM     30  O   UNL     1      -2.502  10.436  17.897  0.00  0.00    +0.000 OA
ATOM     31  C   UNL     1      -2.624  11.116  16.654  0.00  0.00    +0.000 C 
ENDBRANCH  27  30
ENDBRANCH  21  25
ENDBRANCH  19  21
ENDBRANCH   1  19
TORSDOF 6
ENDMDL
MODEL 3
REMARK VINA RESULT:      -8.5      2.135      8.137
REMARK  Name = 
REMARK  9 active torsions:
REMARK  status: ('A' for Active; 'I' for Inactive)
REMARK    1  A    between atoms: C_1  and  O_2
REMARK    2  A    between atoms: O_2  and  C_3
REMARK    3  A    between atoms: C_6  and  C_7
REMARK    4  A    between atoms: C_7  and  N_8
REMARK    5  A    between atoms: N_8  and  N_9
REMARK    6  A    between atoms: C_10  and  C_11
REMARK    7  A    between atoms: C_15  and  C_16
REMARK    8  A    between atoms: C_28  and  O_29
REMARK    9  A    between atoms: O_29  and  C_30
REMARK                            x       y       z     vdW  Elec       q    Type
REMARK                         _______ _______ _______ _____ _____    ______ ____
ROOT
ATOM      1  N   UNL     1       1.085   9.799  19.495  0.00  0.00    +0.000 N 
ATOM      2  C   UNL     1       0.429  10.943  19.054  0.00  0.00    +0.000 A 
ATOM      3  N   UNL     1       0.754  12.065  19.632  0.00  0.00    +0.000 NA
ATOM      4  C   UNL     1       0.409  11.984  21.004  0.00  0.00    +0.000 A 
ATOM      5  C   UNL     1      -0.075  13.131  21.629  0.00  0.00    +0.000 A 
ATOM      6  C   UNL     1      -0.988  12.998  22.675  0.00  0.00    +0.000 A 
ATOM      7  C   UNL     1      -1.388  11.724  23.093  0.00  0.00    +0.000 A 
ATOM      8  C   UNL     1      -0.766  10.578  22.580  0.00  0.00    +0.000 A 
ATOM      9  C   UNL     1       0.189  10.713  21.572  0.00  0.00    +0.000 A 
ATOM     10  C   UNL     1       0.754   9.522  20.832  0.00  0.00    +0.000 A 
ATOM     11  O   UNL     1       0.757   8.423  21.381  0.00  0.00    +0.000 OA
ENDROOT
BRANCH   2  12
ATOM     12  C   UNL     1      -1.008  10.725  18.575  0.00  0.00    +0.000 A 
ATOM     13  C   UNL     1      -1.257   9.960  17.436  0.00  0.00    +0.000 A 
ATOM     14  C   UNL     1      -2.543   9.938  16.880  0.00  0.00    +0.000 A 
ATOM     15  C   UNL     1      -3.587  10.677  17.451  0.00  0.00    +0.000 A 
ATOM     16  C   UNL     1      -3.355  11.459  18.577  0.00  0.00    +0.000 A 
ATOM     17  C   UNL     1      -4.414  12.308  19.215  0.00  0.00    +0.000 C 
ATOM     18  C   UNL     1      -2.065  11.494  19.106  0.00  0.00    +0.000 A 
ENDBRANCH   2  12
BRANCH   1  19
ATOM     19  N   UNL     1       1.250   8.782  18.479  0.00  0.00    +0.000 N 
ATOM     20  H   UNL     1       0.602   9.012  17.723  0.00  0.00    +0.000 HD
BRANCH  19  21
ATOM     21  C   UNL     1       2.564   8.548  17.884  0.00  0.00    +0.000 C 
BRANCH  21  25
ATOM     22  C   UNL     1       4.020   4.596  19.031  0.00  0.00    +0.000 A 
ATOM     23  C   UNL     1       4.460   5.218  17.850  0.00  0.00    +0.000 A 
ATOM     24  C   UNL     1       3.965   6.469  17.475  0.00  0.00    +0.000 A 
ATOM     25  C   UNL     1       3.021   7.139  18.267  0.00  0.00    +0.000 A 
ATOM     26  C   UNL     1       2.523   6.475  19.393  0.00  0.00    +0.000 A 
ATOM     27  C   UNL     1       3.004   5.206  19.783  0.00  0.00    +0.000 A 
BRANCH  22  29
ATOM     28  C   UNL     1       3.928   2.233  18.865  0.00  0.00    +0.000 C 
ATOM     29  O   UNL     1       4.537   3.394  19.438  0.00  0.00    +0.000 OA
ENDBRANCH  22  29
BRANCH  27  30
ATOM     30  O   UNL     1       2.388   4.745  20.919  0.00  0.00    +0.000 OA
ATOM     31  C   UNL     1       1.276   3.866  20.805  0.00  0.00    +0.000 C 
ENDBRANCH  27  30
ENDBRANCH  21  25
ENDBRANCH  19  21
ENDBRANCH   1  19
TORSDOF 6
ENDMDL
MODEL 4
REMARK VINA RESULT:      -8.4      0.985      1.058
REMARK  Name = 
REMARK  9 active torsions:
REMARK  status: ('A' for Active; 'I' for Inactive)
REMARK    1  A    between atoms: C_1  and  O_2
REMARK    2  A    between atoms: O_2  and  C_3
REMARK    3  A    between atoms: C_6  and  C_7
REMARK    4  A    between atoms: C_7  and  N_8
REMARK    5  A    between atoms: N_8  and  N_9
REMARK    6  A    between atoms: C_10  and  C_11
REMARK    7  A    between atoms: C_15  and  C_16
REMARK    8  A    between atoms: C_28  and  O_29
REMARK    9  A    between atoms: O_29  and  C_30
REMARK                            x       y       z     vdW  Elec       q    Type
REMARK                         _______ _______ _______ _____ _____    ______ ____
ROOT
ATOM      1  N   UNL     1       2.172   6.651  18.691  0.00  0.00    +0.000 N 
ATOM      2  C   UNL     1       2.581   5.558  17.937  0.00  0.00    +0.000 A 
ATOM      3  N   UNL     1       1.716   4.595  17.781  0.00  0.00    +0.000 NA
ATOM      4  C   UNL     1       1.425   4.040  19.052  0.00  0.00    +0.000 A 
ATOM      5  C   UNL     1       1.216   2.665  19.136  0.00  0.00    +0.000 A 
ATOM      6  C   UNL     1       1.565   1.997  20.309  0.00  0.00    +0.000 A 
ATOM      7  C   UNL     1       2.098   2.714  21.386  0.00  0.00    +0.000 A 
ATOM      8  C   UNL     1       2.140   4.114  21.359  0.00  0.00    +0.000 A 
ATOM      9  C   UNL     1       1.739   4.787  20.205  0.00  0.00    +0.000 A 
ATOM     10  C   UNL     1       1.943   6.274  20.026  0.00  0.00    +0.000 A 
ATOM     11  O   UNL     1       2.025   6.990  21.020  0.00  0.00    +0.000 OA
ENDROOT
BRANCH   2  12
ATOM     12  C   UNL     1       4.074   5.230  18.022  0.00  0.00    +0.000 A 
ATOM     13  C   UNL     1       4.768   5.433  19.214  0.00  0.00    +0.000 A 
ATOM     14  C   UNL     1       6.165   5.336  19.231  0.00  0.00    +0.000 A 
ATOM     15  C   UNL     1       6.880   5.036  18.064  0.00  0.00    +0.000 A 
ATOM     16  C   UNL     1       6.208   4.846  16.862  0.00  0.00    +0.000 A 
ATOM     17  C   UNL     1       6.911   4.566  15.567  0.00  0.00    +0.000 C 
ATOM     18  C   UNL     1       4.819   4.973  16.852  0.00  0.00    +0.000 A 
ENDBRANCH   2  12
BRANCH   1  19
ATOM     19  N   UNL     1       2.785   7.903  18.304  0.00  0.00    +0.000 N 
ATOM     20  H   UNL     1       3.635   7.668  17.786  0.00  0.00    +0.000 HD
BRANCH  19  21
ATOM     21  C   UNL     1       2.032   8.871  17.508  0.00  0.00    +0.000 C 
BRANCH  21  25
ATOM     22  C   UNL     1       0.658  12.174  20.007  0.00  0.00    +0.000 A 
ATOM     23  C   UNL     1       1.640  12.370  19.020  0.00  0.00    +0.000 A 
ATOM     24  C   UNL     1       2.096  11.300  18.246  0.00  0.00    +0.000 A 
ATOM     25  C   UNL     1       1.585  10.006  18.429  0.00  0.00    +0.000 A 
ATOM     26  C   UNL     1       0.674   9.804  19.471  0.00  0.00    +0.000 A 
ATOM     27  C   UNL     1       0.208  10.871  20.271  0.00  0.00    +0.000 A 
BRANCH  22  29
ATOM     28  C   UNL     1      -0.916  13.943  20.127  0.00  0.00    +0.000 C 
ATOM     29  O   UNL     1       0.162  13.224  20.735  0.00  0.00    +0.000 OA
ENDBRANCH  22  29
BRANCH  27  30
ATOM     30  O   UNL     1      -0.686  10.453  21.224  0.00  0.00    +0.000 OA
ATOM     31  C   UNL     1      -0.227  10.178  22.541  0.00  0.00    +0.000 C 
ENDBRANCH  27  30
ENDBRANCH  21  25
ENDBRANCH  19  21
ENDBRANCH   1  19
TORSDOF 6
ENDMDL
MODEL 5
REMARK VINA RESULT:      -8.4      2.185      8.116
REMARK  Name = 
REMARK  9 active torsions:
REMARK  status: ('A' for Active; 'I' for Inactive)
REMARK    1  A    between atoms: C_1  and  O_2
REMARK    2  A    between atoms: O_2  and  C_3
REMARK    3  A    between atoms: C_6  and  C_7
REMARK    4  A    between atoms: C_7  and  N_8
REMARK    5  A    between atoms: N_8  and  N_9
REMARK    6  A    between atoms: C_10  and  C_11
REMARK    7  A    between atoms: C_15  and  C_16
REMARK    8  A    between atoms: C_28  and  O_29
REMARK    9  A    between atoms: O_29  and  C_30
REMARK                            x       y       z     vdW  Elec       q    Type
REMARK                         _______ _______ _______ _____ _____    ______ ____
ROOT
ATOM      1  N   UNL     1       1.293   9.480  19.317  0.00  0.00    +0.000 N 
ATOM      2  C   UNL     1       0.630  10.645  18.953  0.00  0.00    +0.000 A 
ATOM      3  N   UNL     1       0.936  11.726  19.615  0.00  0.00    +0.000 NA
ATOM      4  C   UNL     1       0.575  11.541  20.972  0.00  0.00    +0.000 A 
ATOM      5  C   UNL     1       0.070  12.635  21.673  0.00  0.00    +0.000 A 
ATOM      6  C   UNL     1      -0.854  12.417  22.694  0.00  0.00    +0.000 A 
ATOM      7  C   UNL     1      -1.245  11.112  23.013  0.00  0.00    +0.000 A 
ATOM      8  C   UNL     1      -0.604  10.013  22.427  0.00  0.00    +0.000 A 
ATOM      9  C   UNL     1       0.361  10.230  21.444  0.00  0.00    +0.000 A 
ATOM     10  C   UNL     1       0.949   9.102  20.627  0.00  0.00    +0.000 A 
ATOM     11  O   UNL     1       0.957   7.967  21.094  0.00  0.00    +0.000 OA
ENDROOT
BRANCH   2  12
ATOM     12  C   UNL     1      -0.799  10.449  18.440  0.00  0.00    +0.000 A 
ATOM     13  C   UNL     1      -1.032   9.696  17.289  0.00  0.00    +0.000 A 
ATOM     14  C   UNL     1      -2.305   9.694  16.705  0.00  0.00    +0.000 A 
ATOM     15  C   UNL     1      -3.353  10.440  17.260  0.00  0.00    +0.000 A 
ATOM     16  C   UNL     1      -3.137  11.210  18.397  0.00  0.00    +0.000 A 
ATOM     17  C   UNL     1      -4.200  12.065  19.020  0.00  0.00    +0.000 C 
ATOM     18  C   UNL     1      -1.858  11.225  18.954  0.00  0.00    +0.000 A 
ENDBRANCH   2  12
BRANCH   1  19
ATOM     19  N   UNL     1       1.482   8.541  18.233  0.00  0.00    +0.000 N 
ATOM     20  H   UNL     1       0.967   8.909  17.430  0.00  0.00    +0.000 HD
BRANCH  19  21
ATOM     21  C   UNL     1       2.831   8.205  17.781  0.00  0.00    +0.000 C 
BRANCH  21  25
ATOM     22  C   UNL     1       3.653   4.029  18.748  0.00  0.00    +0.000 A 
ATOM     23  C   UNL     1       2.345   4.468  18.479  0.00  0.00    +0.000 A 
ATOM     24  C   UNL     1       2.086   5.813  18.201  0.00  0.00    +0.000 A 
ATOM     25  C   UNL     1       3.124   6.757  18.179  0.00  0.00    +0.000 A 
ATOM     26  C   UNL     1       4.407   6.328  18.534  0.00  0.00    +0.000 A 
ATOM     27  C   UNL     1       4.686   4.975  18.827  0.00  0.00    +0.000 A 
BRANCH  22  29
ATOM     28  C   UNL     1       3.161   1.778  18.190  0.00  0.00    +0.000 C 
ATOM     29  O   UNL     1       3.927   2.704  18.967  0.00  0.00    +0.000 OA
ENDBRANCH  22  29
BRANCH  27  30
ATOM     30  O   UNL     1       6.007   4.773  19.138  0.00  0.00    +0.000 OA
ATOM     31  C   UNL     1       7.005   5.051  18.164  0.00  0.00    +0.000 C 
ENDBRANCH  27  30
ENDBRANCH  21  25
ENDBRANCH  19  21
ENDBRANCH   1  19
TORSDOF 6
ENDMDL
MODEL 6
REMARK VINA RESULT:      -8.4      2.423      8.370
REMARK  Name = 
REMARK  9 active torsions:
REMARK  status: ('A' for Active; 'I' for Inactive)
REMARK    1  A    between atoms: C_1  and  O_2
REMARK    2  A    between atoms: O_2  and  C_3
REMARK    3  A    between atoms: C_6  and  C_7
REMARK    4  A    between atoms: C_7  and  N_8
REMARK    5  A    between atoms: N_8  and  N_9
REMARK    6  A    between atoms: C_10  and  C_11
REMARK    7  A    between atoms: C_15  and  C_16
REMARK    8  A    between atoms: C_28  and  O_29
REMARK    9  A    between atoms: O_29  and  C_30
REMARK                            x       y       z     vdW  Elec       q    Type
REMARK                         _______ _______ _______ _____ _____    ______ ____
ROOT
ATOM      1  N   UNL     1       1.074   9.918  19.437  0.00  0.00    +0.000 N 
ATOM      2  C   UNL     1       0.349  11.044  19.065  0.00  0.00    +0.000 A 
ATOM      3  N   UNL     1       0.620  12.152  19.697  0.00  0.00    +0.000 NA
ATOM      4  C   UNL     1       0.300  11.980  21.067  0.00  0.00    +0.000 A 
ATOM      5  C   UNL     1      -0.238  13.064  21.757  0.00  0.00    +0.000 A 
ATOM      6  C   UNL     1      -1.126  12.826  22.805  0.00  0.00    +0.000 A 
ATOM      7  C   UNL     1      -1.449  11.512  23.160  0.00  0.00    +0.000 A 
ATOM      8  C   UNL     1      -0.772  10.431  22.581  0.00  0.00    +0.000 A 
ATOM      9  C   UNL     1       0.158  10.671  21.570  0.00  0.00    +0.000 A 
ATOM     10  C   UNL     1       0.778   9.553  20.762  0.00  0.00    +0.000 A 
ATOM     11  O   UNL     1       0.850   8.430  21.251  0.00  0.00    +0.000 OA
ENDROOT
BRANCH   2  12
ATOM     12  C   UNL     1      -1.081  10.772  18.592  0.00  0.00    +0.000 A 
ATOM     13  C   UNL     1      -1.307   9.952  17.486  0.00  0.00    +0.000 A 
ATOM     14  C   UNL     1      -2.590   9.876  16.928  0.00  0.00    +0.000 A 
ATOM     15  C   UNL     1      -3.654  10.613  17.464  0.00  0.00    +0.000 A 
ATOM     16  C   UNL     1      -3.445  11.448  18.555  0.00  0.00    +0.000 A 
ATOM     17  C   UNL     1      -4.526  12.298  19.154  0.00  0.00    +0.000 C 
ATOM     18  C   UNL     1      -2.158  11.537  19.086  0.00  0.00    +0.000 A 
ENDBRANCH   2  12
BRANCH   1  19
ATOM     19  N   UNL     1       1.280   8.965  18.367  0.00  0.00    +0.000 N 
ATOM     20  H   UNL     1       0.631   9.217  17.619  0.00  0.00    +0.000 HD
BRANCH  19  21
ATOM     21  C   UNL     1       2.606   8.808  17.773  0.00  0.00    +0.000 C 
BRANCH  21  25
ATOM     22  C   UNL     1       3.678   4.589  18.092  0.00  0.00    +0.000 A 
ATOM     23  C   UNL     1       2.597   5.121  18.818  0.00  0.00    +0.000 A 
ATOM     24  C   UNL     1       2.281   6.479  18.733  0.00  0.00    +0.000 A 
ATOM     25  C   UNL     1       3.028   7.345  17.921  0.00  0.00    +0.000 A 
ATOM     26  C   UNL     1       4.154   6.826  17.273  0.00  0.00    +0.000 A 
ATOM     27  C   UNL     1       4.495   5.458  17.354  0.00  0.00    +0.000 A 
BRANCH  22  29
ATOM     28  C   UNL     1       2.900   2.380  17.725  0.00  0.00    +0.000 C 
ATOM     29  O   UNL     1       3.964   3.250  18.124  0.00  0.00    +0.000 OA
ENDBRANCH  22  29
BRANCH  27  30
ATOM     30  O   UNL     1       5.626   5.162  16.635  0.00  0.00    +0.000 OA
ATOM     31  C   UNL     1       5.502   4.582  15.343  0.00  0.00    +0.000 C 
ENDBRANCH  27  30
ENDBRANCH  21  25
ENDBRANCH  19  21
ENDBRANCH   1  19
TORSDOF 6
ENDMDL
MODEL 7
REMARK VINA RESULT:      -8.4      1.391      1.810
REMARK  Name = 
REMARK  9 active torsions:
REMARK  status: ('A' for Active; 'I' for Inactive)
REMARK    1  A    between atoms: C_1  and  O_2
REMARK    2  A    between atoms: O_2  and  C_3
REMARK    3  A    between atoms: C_6  and  C_7
REMARK    4  A    between atoms: C_7  and  N_8
REMARK    5  A    between atoms: N_8  and  N_9
REMARK    6  A    between atoms: C_10  and  C_11
REMARK    7  A    between atoms: C_15  and  C_16
REMARK    8  A    between atoms: C_28  and  O_29
REMARK    9  A    between atoms: O_29  and  C_30
REMARK                            x       y       z     vdW  Elec       q    Type
REMARK                         _______ _______ _______ _____ _____    ______ ____
ROOT
ATOM      1  N   UNL     1       2.127   6.637  18.697  0.00  0.00    +0.000 N 
ATOM      2  C   UNL     1       2.540   5.558  17.925  0.00  0.00    +0.000 A 
ATOM      3  N   UNL     1       1.685   4.585  17.772  0.00  0.00    +0.000 NA
ATOM      4  C   UNL     1       1.420   4.012  19.040  0.00  0.00    +0.000 A 
ATOM      5  C   UNL     1       1.232   2.633  19.113  0.00  0.00    +0.000 A 
ATOM      6  C   UNL     1       1.607   1.959  20.274  0.00  0.00    +0.000 A 
ATOM      7  C   UNL     1       2.146   2.671  21.351  0.00  0.00    +0.000 A 
ATOM      8  C   UNL     1       2.168   4.072  21.338  0.00  0.00    +0.000 A 
ATOM      9  C   UNL     1       1.741   4.751  20.197  0.00  0.00    +0.000 A 
ATOM     10  C   UNL     1       1.922   6.243  20.031  0.00  0.00    +0.000 A 
ATOM     11  O   UNL     1       2.009   6.950  21.031  0.00  0.00    +0.000 OA
ENDROOT
BRANCH   2  12
ATOM     12  C   UNL     1       4.038   5.249  17.985  0.00  0.00    +0.000 A 
ATOM     13  C   UNL     1       4.750   5.470  19.164  0.00  0.00    +0.000 A 
ATOM     14  C   UNL     1       6.149   5.390  19.155  0.00  0.00    +0.000 A 
ATOM     15  C   UNL     1       6.847   5.092  17.978  0.00  0.00    +0.000 A 
ATOM     16  C   UNL     1       6.155   4.885  16.790  0.00  0.00    +0.000 A 
ATOM     17  C   UNL     1       6.839   4.604  15.484  0.00  0.00    +0.000 C 
ATOM     18  C   UNL     1       4.765   4.993  16.804  0.00  0.00    +0.000 A 
ENDBRANCH   2  12
BRANCH   1  19
ATOM     19  N   UNL     1       2.717   7.901  18.314  0.00  0.00    +0.000 N 
ATOM     20  H   UNL     1       3.526   7.684  17.728  0.00  0.00    +0.000 HD
BRANCH  19  21
ATOM     21  C   UNL     1       1.914   8.901  17.612  0.00  0.00    +0.000 C 
BRANCH  21  25
ATOM     22  C   UNL     1       0.915  11.944  20.577  0.00  0.00    +0.000 A 
ATOM     23  C   UNL     1       0.372  10.649  20.654  0.00  0.00    +0.000 A 
ATOM     24  C   UNL     1       0.673   9.691  19.683  0.00  0.00    +0.000 A 
ATOM     25  C   UNL     1       1.526   9.993  18.611  0.00  0.00    +0.000 A 
ATOM     26  C   UNL     1       1.991  11.307  18.494  0.00  0.00    +0.000 A 
ATOM     27  C   UNL     1       1.690  12.292  19.460  0.00  0.00    +0.000 A 
BRANCH  22  29
ATOM     28  C   UNL     1      -0.599  12.773  22.202  0.00  0.00    +0.000 C 
ATOM     29  O   UNL     1       0.672  12.876  21.552  0.00  0.00    +0.000 OA
ENDBRANCH  22  29
BRANCH  27  30
ATOM     30  O   UNL     1       2.254  13.506  19.157  0.00  0.00    +0.000 OA
ATOM     31  C   UNL     1       1.416  14.603  18.820  0.00  0.00    +0.000 C 
ENDBRANCH  27  30
ENDBRANCH  21  25
ENDBRANCH  19  21
ENDBRANCH   1  19
TORSDOF 6
ENDMDL
MODEL 8
REMARK VINA RESULT:      -8.3      2.182      8.181
REMARK  Name = 
REMARK  9 active torsions:
REMARK  status: ('A' for Active; 'I' for Inactive)
REMARK    1  A    between atoms: C_1  and  O_2
REMARK    2  A    between atoms: O_2  and  C_3
REMARK    3  A    between atoms: C_6  and  C_7
REMARK    4  A    between atoms: C_7  and  N_8
REMARK    5  A    between atoms: N_8  and  N_9
REMARK    6  A    between atoms: C_10  and  C_11
REMARK    7  A    between atoms: C_15  and  C_16
REMARK    8  A    between atoms: C_28  and  O_29
REMARK    9  A    between atoms: O_29  and  C_30
REMARK                            x       y       z     vdW  Elec       q    Type
REMARK                         _______ _______ _______ _____ _____    ______ ____
ROOT
ATOM      1  N   UNL     1       1.067   9.688  19.666  0.00  0.00    +0.000 N 
ATOM      2  C   UNL     1       0.469  10.825  19.137  0.00  0.00    +0.000 A 
ATOM      3  N   UNL     1       0.827  11.969  19.651  0.00  0.00    +0.000 NA
ATOM      4  C   UNL     1       0.447  11.989  21.016  0.00  0.00    +0.000 A 
ATOM      5  C   UNL     1      -0.004  13.192  21.554  0.00  0.00    +0.000 A 
ATOM      6  C   UNL     1      -0.945  13.163  22.583  0.00  0.00    +0.000 A 
ATOM      7  C   UNL     1      -1.407  11.936  23.070  0.00  0.00    +0.000 A 
ATOM      8  C   UNL     1      -0.820  10.735  22.648  0.00  0.00    +0.000 A 
ATOM      9  C   UNL     1       0.162  10.767  21.658  0.00  0.00    +0.000 A 
ATOM     10  C   UNL     1       0.695   9.510  21.009  0.00  0.00    +0.000 A 
ATOM     11  O   UNL     1       0.640   8.450  21.626  0.00  0.00    +0.000 OA
ENDROOT
BRANCH   2  12
ATOM     12  C   UNL     1      -0.965  10.634  18.636  0.00  0.00    +0.000 A 
ATOM     13  C   UNL     1      -1.210   9.875  17.492  0.00  0.00    +0.000 A 
ATOM     14  C   UNL     1      -2.487   9.877  16.916  0.00  0.00    +0.000 A 
ATOM     15  C   UNL     1      -3.527  10.633  17.474  0.00  0.00    +0.000 A 
ATOM     16  C   UNL     1      -3.298  11.409  18.604  0.00  0.00    +0.000 A 
ATOM     17  C   UNL     1      -4.351  12.275  19.228  0.00  0.00    +0.000 C 
ATOM     18  C   UNL     1      -2.015  11.420  19.152  0.00  0.00    +0.000 A 
ENDBRANCH   2  12
BRANCH   1  19
ATOM     19  N   UNL     1       1.214   8.601  18.721  0.00  0.00    +0.000 N 
ATOM     20  H   UNL     1       0.313   8.496  18.249  0.00  0.00    +0.000 HD
BRANCH  19  21
ATOM     21  C   UNL     1       2.251   8.659  17.694  0.00  0.00    +0.000 C 
BRANCH  21  25
ATOM     22  C   UNL     1       5.098   5.424  18.391  0.00  0.00    +0.000 A 
ATOM     23  C   UNL     1       5.295   6.355  17.356  0.00  0.00    +0.000 A 
ATOM     24  C   UNL     1       4.363   7.368  17.120  0.00  0.00    +0.000 A 
ATOM     25  C   UNL     1       3.210   7.487  17.911  0.00  0.00    +0.000 A 
ATOM     26  C   UNL     1       2.977   6.506  18.880  0.00  0.00    +0.000 A 
ATOM     27  C   UNL     1       3.903   5.468  19.127  0.00  0.00    +0.000 A 
BRANCH  22  29
ATOM     28  C   UNL     1       7.276   4.588  17.973  0.00  0.00    +0.000 C 
ATOM     29  O   UNL     1       6.031   4.460  18.667  0.00  0.00    +0.000 OA
ENDBRANCH  22  29
BRANCH  27  30
ATOM     30  O   UNL     1       3.484   4.625  20.125  0.00  0.00    +0.000 OA
ATOM     31  C   UNL     1       2.221   4.841  20.739  0.00  0.00    +0.000 C 
ENDBRANCH  27  30
ENDBRANCH  21  25
ENDBRANCH  19  21
ENDBRANCH   1  19
TORSDOF 6
ENDMDL
MODEL 9
REMARK VINA RESULT:      -8.2      1.652      2.489
REMARK  Name = 
REMARK  9 active torsions:
REMARK  status: ('A' for Active; 'I' for Inactive)
REMARK    1  A    between atoms: C_1  and  O_2
REMARK    2  A    between atoms: O_2  and  C_3
REMARK    3  A    between atoms: C_6  and  C_7
REMARK    4  A    between atoms: C_7  and  N_8
REMARK    5  A    between atoms: N_8  and  N_9
REMARK    6  A    between atoms: C_10  and  C_11
REMARK    7  A    between atoms: C_15  and  C_16
REMARK    8  A    between atoms: C_28  and  O_29
REMARK    9  A    between atoms: O_29  and  C_30
REMARK                            x       y       z     vdW  Elec       q    Type
REMARK                         _______ _______ _______ _____ _____    ______ ____
ROOT
ATOM      1  N   UNL     1       2.116   5.925  19.824  0.00  0.00    +0.000 N 
ATOM      2  C   UNL     1       2.511   5.792  18.498  0.00  0.00    +0.000 A 
ATOM      3  N   UNL     1       1.926   4.857  17.802  0.00  0.00    +0.000 NA
ATOM      4  C   UNL     1       2.242   3.602  18.377  0.00  0.00    +0.000 A 
ATOM      5  C   UNL     1       2.439   2.519  17.523  0.00  0.00    +0.000 A 
ATOM      6  C   UNL     1       3.328   1.513  17.899  0.00  0.00    +0.000 A 
ATOM      7  C   UNL     1       3.992   1.594  19.128  0.00  0.00    +0.000 A 
ATOM      8  C   UNL     1       3.657   2.590  20.055  0.00  0.00    +0.000 A 
ATOM      9  C   UNL     1       2.726   3.566  19.701  0.00  0.00    +0.000 A 
ATOM     10  C   UNL     1       2.463   4.780  20.562  0.00  0.00    +0.000 A 
ATOM     11  O   UNL     1       2.691   4.720  21.767  0.00  0.00    +0.000 OA
ENDROOT
BRANCH   2  12
ATOM     12  C   UNL     1       3.973   6.145  18.215  0.00  0.00    +0.000 A 
ATOM     13  C   UNL     1       4.335   6.690  16.983  0.00  0.00    +0.000 A 
ATOM     14  C   UNL     1       5.690   6.813  16.648  0.00  0.00    +0.000 A 
ATOM     15  C   UNL     1       6.691   6.396  17.534  0.00  0.00    +0.000 A 
ATOM     16  C   UNL     1       6.351   5.834  18.760  0.00  0.00    +0.000 A 
ATOM     17  C   UNL     1       7.368   5.326  19.738  0.00  0.00    +0.000 C 
ATOM     18  C   UNL     1       4.999   5.692  19.071  0.00  0.00    +0.000 A 
ENDBRANCH   2  12
BRANCH   1  19
ATOM     19  N   UNL     1       2.212   7.274  20.339  0.00  0.00    +0.000 N 
ATOM     20  H   UNL     1       3.206   7.467  20.478  0.00  0.00    +0.000 HD
BRANCH  19  21
ATOM     21  C   UNL     1       1.642   8.388  19.584  0.00  0.00    +0.000 C 
BRANCH  21  25
ATOM     22  C   UNL     1      -0.497  10.892  22.450  0.00  0.00    +0.000 A 
ATOM     23  C   UNL     1      -0.336   9.512  22.668  0.00  0.00    +0.000 A 
ATOM     24  C   UNL     1       0.323   8.713  21.731  0.00  0.00    +0.000 A 
ATOM     25  C   UNL     1       0.845   9.266  20.551  0.00  0.00    +0.000 A 
ATOM     26  C   UNL     1       0.603  10.620  20.300  0.00  0.00    +0.000 A 
ATOM     27  C   UNL     1      -0.069  11.442  21.231  0.00  0.00    +0.000 A 
BRANCH  22  29
ATOM     28  C   UNL     1      -2.490  11.936  23.195  0.00  0.00    +0.000 C 
ATOM     29  O   UNL     1      -1.092  11.696  23.386  0.00  0.00    +0.000 OA
ENDBRANCH  22  29
BRANCH  27  30
ATOM     30  O   UNL     1      -0.188  12.736  20.791  0.00  0.00    +0.000 OA
ATOM     31  C   UNL     1       0.415  13.114  19.560  0.00  0.00    +0.000 C 
ENDBRANCH  27  30
ENDBRANCH  21  25
ENDBRANCH  19  21
ENDBRANCH   1  19
TORSDOF 6
ENDMDL
