MODEL 1
REMARK VINA RESULT:      -6.3      0.000      0.000
REMARK  Name = 
REMARK  12 active torsions:
REMARK  status: ('A' for Active; 'I' for Inactive)
REMARK    1  A    between atoms: C_1  and  C_2
REMARK    2  A    between atoms: C_2  and  N_3
REMARK    3  A    between atoms: N_3  and  C_4
REMARK    4  A    between atoms: N_3  and  C_6
REMARK    5  A    between atoms: C_4  and  C_5
REMARK    6  A    between atoms: C_6  and  C_7
REMARK    7  A    between atoms: C_6  and  C_8
REMARK    8  A    between atoms: C_8  and  C_9
REMARK    9  A    between atoms: C_9  and  C_10
REMARK   10  A    between atoms: N_12  and  C_13
REMARK   11  A    between atoms: C_14  and  C_15
REMARK   12  A    between atoms: C_19  and  C_20
REMARK                            x       y       z     vdW  Elec       q    Type
REMARK                         _______ _______ _______ _____ _____    ______ ____
ROOT
ATOM      1  C   UNL     1       3.678   3.890  16.913  0.00  0.00    +0.000 C 
ATOM      2  O   UNL     1       2.547   3.470  16.668  0.00  0.00    +0.000 OA
ATOM      3  N   UNL     1       4.188   4.108  18.186  0.00  0.00    +0.000 N 
ATOM      4  H   UNL     1       4.868   4.851  18.244  0.00  0.00    +0.000 HD
ENDROOT
BRANCH   3   5
ATOM      5  C   UNL     1       3.372   3.894  19.329  0.00  0.00    +0.000 A 
ATOM      6  C   UNL     1       2.637   4.947  19.915  0.00  0.00    +0.000 A 
ATOM      7  C   UNL     1       2.481   6.307  19.285  0.00  0.00    +0.000 C 
ATOM      8  C   UNL     1       1.985   4.730  21.139  0.00  0.00    +0.000 A 
ATOM      9  C   UNL     1       2.007   3.477  21.744  0.00  0.00    +0.000 A 
ATOM     10  C   UNL     1       2.651   2.416  21.116  0.00  0.00    +0.000 A 
ATOM     11  C   UNL     1       3.328   2.603  19.898  0.00  0.00    +0.000 A 
ATOM     12  C   UNL     1       4.032   1.427  19.282  0.00  0.00    +0.000 C 
ENDBRANCH   3   5
BRANCH   1  13
ATOM     13  C   UNL     1       4.661   4.229  15.804  0.00  0.00    +0.000 C 
BRANCH  13  14
ATOM     14  C   UNL     1       5.154   5.673  15.971  0.00  0.00    +0.000 C 
BRANCH  14  15
ATOM     15  C   UNL     1       6.651   5.919  15.667  0.00  0.00    +0.000 C 
ATOM     16  C   UNL     1       7.197   4.676  14.936  0.00  0.00    +0.000 C 
BRANCH  15  17
ATOM     17  N   UNL     1       7.465   6.297  16.857  0.00  0.00    +0.000 NA
BRANCH  17  19
ATOM     18  C   UNL     1       8.040   8.616  17.723  0.00  0.00    +0.000 C 
ATOM     19  C   UNL     1       6.973   7.553  17.468  0.00  0.00    +0.000 C 
ENDBRANCH  17  19
BRANCH  17  20
ATOM     20  C   UNL     1       7.602   5.211  17.852  0.00  0.00    +0.000 C 
ATOM     21  C   UNL     1       7.194   5.535  19.287  0.00  0.00    +0.000 C 
ENDBRANCH  17  20
ENDBRANCH  15  17
ENDBRANCH  14  15
ENDBRANCH  13  14
ENDBRANCH   1  13
TORSDOF 7
ENDMDL
MODEL 2
REMARK VINA RESULT:      -6.0      1.102      1.102
REMARK  Name = 
REMARK  12 active torsions:
REMARK  status: ('A' for Active; 'I' for Inactive)
REMARK    1  A    between atoms: C_1  and  C_2
REMARK    2  A    between atoms: C_2  and  N_3
REMARK    3  A    between atoms: N_3  and  C_4
REMARK    4  A    between atoms: N_3  and  C_6
REMARK    5  A    between atoms: C_4  and  C_5
REMARK    6  A    between atoms: C_6  and  C_7
REMARK    7  A    between atoms: C_6  and  C_8
REMARK    8  A    between atoms: C_8  and  C_9
REMARK    9  A    between atoms: C_9  and  C_10
REMARK   10  A    between atoms: N_12  and  C_13
REMARK   11  A    between atoms: C_14  and  C_15
REMARK   12  A    between atoms: C_19  and  C_20
REMARK                            x       y       z     vdW  Elec       q    Type
REMARK                         _______ _______ _______ _____ _____    ______ ____
ROOT
ATOM      1  C   UNL     1       4.328   3.913  17.429  0.00  0.00    +0.000 C 
ATOM      2  O   UNL     1       5.035   3.351  18.264  0.00  0.00    +0.000 OA
ATOM      3  N   UNL     1       3.019   4.326  17.643  0.00  0.00    +0.000 N 
ATOM      4  H   UNL     1       2.436   4.317  16.818  0.00  0.00    +0.000 HD
ENDROOT
BRANCH   3   5
ATOM      5  C   UNL     1       2.380   4.064  18.884  0.00  0.00    +0.000 A 
ATOM      6  C   UNL     1       2.253   5.066  19.870  0.00  0.00    +0.000 A 
ATOM      7  C   UNL     1       2.581   6.518  19.632  0.00  0.00    +0.000 C 
ATOM      8  C   UNL     1       1.773   4.719  21.143  0.00  0.00    +0.000 A 
ATOM      9  C   UNL     1       1.366   3.417  21.417  0.00  0.00    +0.000 A 
ATOM     10  C   UNL     1       1.401   2.454  20.415  0.00  0.00    +0.000 A 
ATOM     11  C   UNL     1       1.892   2.763  19.134  0.00  0.00    +0.000 A 
ATOM     12  C   UNL     1       1.936   1.674  18.100  0.00  0.00    +0.000 C 
ENDBRANCH   3   5
BRANCH   1  13
ATOM     13  C   UNL     1       4.834   4.215  16.028  0.00  0.00    +0.000 C 
BRANCH  13  14
ATOM     14  C   UNL     1       5.228   5.695  15.925  0.00  0.00    +0.000 C 
BRANCH  14  15
ATOM     15  C   UNL     1       6.720   5.982  15.636  0.00  0.00    +0.000 C 
ATOM     16  C   UNL     1       7.305   4.760  14.901  0.00  0.00    +0.000 C 
BRANCH  15  17
ATOM     17  N   UNL     1       7.514   6.373  16.836  0.00  0.00    +0.000 NA
BRANCH  17  19
ATOM     18  C   UNL     1       8.037   8.722  17.652  0.00  0.00    +0.000 C 
ATOM     19  C   UNL     1       6.998   7.624  17.437  0.00  0.00    +0.000 C 
ENDBRANCH  17  19
BRANCH  17  20
ATOM     20  C   UNL     1       7.652   5.291  17.834  0.00  0.00    +0.000 C 
ATOM     21  C   UNL     1       7.689   5.708  19.303  0.00  0.00    +0.000 C 
ENDBRANCH  17  20
ENDBRANCH  15  17
ENDBRANCH  14  15
ENDBRANCH  13  14
ENDBRANCH   1  13
TORSDOF 7
ENDMDL
MODEL 3
REMARK VINA RESULT:      -6.0      3.114      5.798
REMARK  Name = 
REMARK  12 active torsions:
REMARK  status: ('A' for Active; 'I' for Inactive)
REMARK    1  A    between atoms: C_1  and  C_2
REMARK    2  A    between atoms: C_2  and  N_3
REMARK    3  A    between atoms: N_3  and  C_4
REMARK    4  A    between atoms: N_3  and  C_6
REMARK    5  A    between atoms: C_4  and  C_5
REMARK    6  A    between atoms: C_6  and  C_7
REMARK    7  A    between atoms: C_6  and  C_8
REMARK    8  A    between atoms: C_8  and  C_9
REMARK    9  A    between atoms: C_9  and  C_10
REMARK   10  A    between atoms: N_12  and  C_13
REMARK   11  A    between atoms: C_14  and  C_15
REMARK   12  A    between atoms: C_19  and  C_20
REMARK                            x       y       z     vdW  Elec       q    Type
REMARK                         _______ _______ _______ _____ _____    ______ ____
ROOT
ATOM      1  C   UNL     1       7.449   7.493  17.706  0.00  0.00    +0.000 C 
ATOM      2  O   UNL     1       7.709   6.641  18.555  0.00  0.00    +0.000 OA
ATOM      3  N   UNL     1       6.440   7.389  16.758  0.00  0.00    +0.000 N 
ATOM      4  H   UNL     1       6.630   7.867  15.889  0.00  0.00    +0.000 HD
ENDROOT
BRANCH   3   5
ATOM      5  C   UNL     1       5.646   6.214  16.684  0.00  0.00    +0.000 A 
ATOM      6  C   UNL     1       4.392   6.133  17.328  0.00  0.00    +0.000 A 
ATOM      7  C   UNL     1       3.699   7.316  17.956  0.00  0.00    +0.000 C 
ATOM      8  C   UNL     1       3.723   4.900  17.374  0.00  0.00    +0.000 A 
ATOM      9  C   UNL     1       4.254   3.780  16.743  0.00  0.00    +0.000 A 
ATOM     10  C   UNL     1       5.442   3.886  16.027  0.00  0.00    +0.000 A 
ATOM     11  C   UNL     1       6.146   5.101  15.974  0.00  0.00    +0.000 A 
ATOM     12  C   UNL     1       7.440   5.148  15.212  0.00  0.00    +0.000 C 
ENDBRANCH   3   5
BRANCH   1  13
ATOM     13  C   UNL     1       8.243   8.786  17.604  0.00  0.00    +0.000 C 
BRANCH  13  14
ATOM     14  C   UNL     1       8.603   9.287  19.009  0.00  0.00    +0.000 C 
BRANCH  14  15
ATOM     15  C   UNL     1       9.676  10.398  19.080  0.00  0.00    +0.000 C 
ATOM     16  C   UNL     1       9.491  11.152  20.412  0.00  0.00    +0.000 C 
BRANCH  15  17
ATOM     17  N   UNL     1       9.700  11.306  17.898  0.00  0.00    +0.000 NA
BRANCH  17  19
ATOM     18  C   UNL     1       7.660  12.633  17.165  0.00  0.00    +0.000 C 
ATOM     19  C   UNL     1       8.845  12.495  18.118  0.00  0.00    +0.000 C 
ENDBRANCH  17  19
BRANCH  17  20
ATOM     20  C   UNL     1      11.063  11.673  17.459  0.00  0.00    +0.000 C 
ATOM     21  C   UNL     1      11.283  13.123  17.033  0.00  0.00    +0.000 C 
ENDBRANCH  17  20
ENDBRANCH  15  17
ENDBRANCH  14  15
ENDBRANCH  13  14
ENDBRANCH   1  13
TORSDOF 7
ENDMDL
MODEL 4
REMARK VINA RESULT:      -6.0      2.672      4.647
REMARK  Name = 
REMARK  12 active torsions:
REMARK  status: ('A' for Active; 'I' for Inactive)
REMARK    1  A    between atoms: C_1  and  C_2
REMARK    2  A    between atoms: C_2  and  N_3
REMARK    3  A    between atoms: N_3  and  C_4
REMARK    4  A    between atoms: N_3  and  C_6
REMARK    5  A    between atoms: C_4  and  C_5
REMARK    6  A    between atoms: C_6  and  C_7
REMARK    7  A    between atoms: C_6  and  C_8
REMARK    8  A    between atoms: C_8  and  C_9
REMARK    9  A    between atoms: C_9  and  C_10
REMARK   10  A    between atoms: N_12  and  C_13
REMARK   11  A    between atoms: C_14  and  C_15
REMARK   12  A    between atoms: C_19  and  C_20
REMARK                            x       y       z     vdW  Elec       q    Type
REMARK                         _______ _______ _______ _____ _____    ______ ____
ROOT
ATOM      1  C   UNL     1       4.777   4.834  17.019  0.00  0.00    +0.000 C 
ATOM      2  O   UNL     1       5.572   4.512  17.901  0.00  0.00    +0.000 OA
ATOM      3  N   UNL     1       3.399   4.912  17.178  0.00  0.00    +0.000 N 
ATOM      4  H   UNL     1       2.868   4.713  16.344  0.00  0.00    +0.000 HD
ENDROOT
BRANCH   3   5
ATOM      5  C   UNL     1       2.803   4.560  18.418  0.00  0.00    +0.000 A 
ATOM      6  C   UNL     1       2.566   3.212  18.764  0.00  0.00    +0.000 A 
ATOM      7  C   UNL     1       3.096   2.043  17.974  0.00  0.00    +0.000 C 
ATOM      8  C   UNL     1       1.820   2.920  19.916  0.00  0.00    +0.000 A 
ATOM      9  C   UNL     1       1.368   3.940  20.748  0.00  0.00    +0.000 A 
ATOM     10  C   UNL     1       1.686   5.263  20.457  0.00  0.00    +0.000 A 
ATOM     11  C   UNL     1       2.417   5.591  19.302  0.00  0.00    +0.000 A 
ATOM     12  C   UNL     1       2.703   7.040  19.022  0.00  0.00    +0.000 C 
ENDBRANCH   3   5
BRANCH   1  13
ATOM     13  C   UNL     1       5.242   5.182  15.613  0.00  0.00    +0.000 C 
BRANCH  13  14
ATOM     14  C   UNL     1       5.298   3.911  14.755  0.00  0.00    +0.000 C 
BRANCH  14  15
ATOM     15  C   UNL     1       6.457   3.830  13.735  0.00  0.00    +0.000 C 
ATOM     16  C   UNL     1       7.340   5.080  13.920  0.00  0.00    +0.000 C 
BRANCH  15  17
ATOM     17  N   UNL     1       6.021   3.632  12.324  0.00  0.00    +0.000 NA
BRANCH  17  19
ATOM     18  C   UNL     1       6.503   1.436  11.139  0.00  0.00    +0.000 C 
ATOM     19  C   UNL     1       6.999   2.814  11.569  0.00  0.00    +0.000 C 
ENDBRANCH  17  19
BRANCH  17  20
ATOM     20  C   UNL     1       4.643   3.111  12.196  0.00  0.00    +0.000 C 
ATOM     21  C   UNL     1       3.897   3.444  10.906  0.00  0.00    +0.000 C 
ENDBRANCH  17  20
ENDBRANCH  15  17
ENDBRANCH  14  15
ENDBRANCH  13  14
ENDBRANCH   1  13
TORSDOF 7
ENDMDL
MODEL 5
REMARK VINA RESULT:      -5.9      3.266      5.636
REMARK  Name = 
REMARK  12 active torsions:
REMARK  status: ('A' for Active; 'I' for Inactive)
REMARK    1  A    between atoms: C_1  and  C_2
REMARK    2  A    between atoms: C_2  and  N_3
REMARK    3  A    between atoms: N_3  and  C_4
REMARK    4  A    between atoms: N_3  and  C_6
REMARK    5  A    between atoms: C_4  and  C_5
REMARK    6  A    between atoms: C_6  and  C_7
REMARK    7  A    between atoms: C_6  and  C_8
REMARK    8  A    between atoms: C_8  and  C_9
REMARK    9  A    between atoms: C_9  and  C_10
REMARK   10  A    between atoms: N_12  and  C_13
REMARK   11  A    between atoms: C_14  and  C_15
REMARK   12  A    between atoms: C_19  and  C_20
REMARK                            x       y       z     vdW  Elec       q    Type
REMARK                         _______ _______ _______ _____ _____    ______ ____
ROOT
ATOM      1  C   UNL     1       7.313   7.491  17.651  0.00  0.00    +0.000 C 
ATOM      2  O   UNL     1       7.581   6.683  18.539  0.00  0.00    +0.000 OA
ATOM      3  N   UNL     1       6.281   7.350  16.732  0.00  0.00    +0.000 N 
ATOM      4  H   UNL     1       6.456   7.777  15.834  0.00  0.00    +0.000 HD
ENDROOT
BRANCH   3   5
ATOM      5  C   UNL     1       5.470   6.184  16.740  0.00  0.00    +0.000 A 
ATOM      6  C   UNL     1       4.219   6.163  17.393  0.00  0.00    +0.000 A 
ATOM      7  C   UNL     1       3.545   7.394  17.944  0.00  0.00    +0.000 C 
ATOM      8  C   UNL     1       3.533   4.946  17.524  0.00  0.00    +0.000 A 
ATOM      9  C   UNL     1       4.045   3.778  16.967  0.00  0.00    +0.000 A 
ATOM     10  C   UNL     1       5.231   3.819  16.241  0.00  0.00    +0.000 A 
ATOM     11  C   UNL     1       5.951   5.019  16.104  0.00  0.00    +0.000 A 
ATOM     12  C   UNL     1       7.242   4.997  15.335  0.00  0.00    +0.000 C 
ENDBRANCH   3   5
BRANCH   1  13
ATOM     13  C   UNL     1       8.120   8.765  17.460  0.00  0.00    +0.000 C 
BRANCH  13  14
ATOM     14  C   UNL     1       8.810   9.144  18.778  0.00  0.00    +0.000 C 
BRANCH  14  15
ATOM     15  C   UNL     1       9.050  10.654  19.009  0.00  0.00    +0.000 C 
ATOM     16  C   UNL     1       8.506  11.415  17.783  0.00  0.00    +0.000 C 
BRANCH  15  17
ATOM     17  N   UNL     1      10.462  11.009  19.333  0.00  0.00    +0.000 NA
BRANCH  17  19
ATOM     18  C   UNL     1      11.965  12.909  18.567  0.00  0.00    +0.000 C 
ATOM     19  C   UNL     1      11.117  11.695  18.195  0.00  0.00    +0.000 C 
ENDBRANCH  17  19
BRANCH  17  20
ATOM     20  C   UNL     1      10.610  11.760  20.597  0.00  0.00    +0.000 C 
ATOM     21  C   UNL     1       9.330  12.063  21.374  0.00  0.00    +0.000 C 
ENDBRANCH  17  20
ENDBRANCH  15  17
ENDBRANCH  14  15
ENDBRANCH  13  14
ENDBRANCH   1  13
TORSDOF 7
ENDMDL
MODEL 6
REMARK VINA RESULT:      -5.9      0.683      1.557
REMARK  Name = 
REMARK  12 active torsions:
REMARK  status: ('A' for Active; 'I' for Inactive)
REMARK    1  A    between atoms: C_1  and  C_2
REMARK    2  A    between atoms: C_2  and  N_3
REMARK    3  A    between atoms: N_3  and  C_4
REMARK    4  A    between atoms: N_3  and  C_6
REMARK    5  A    between atoms: C_4  and  C_5
REMARK    6  A    between atoms: C_6  and  C_7
REMARK    7  A    between atoms: C_6  and  C_8
REMARK    8  A    between atoms: C_8  and  C_9
REMARK    9  A    between atoms: C_9  and  C_10
REMARK   10  A    between atoms: N_12  and  C_13
REMARK   11  A    between atoms: C_14  and  C_15
REMARK   12  A    between atoms: C_19  and  C_20
REMARK                            x       y       z     vdW  Elec       q    Type
REMARK                         _______ _______ _______ _____ _____    ______ ____
ROOT
ATOM      1  C   UNL     1       3.999   3.902  16.923  0.00  0.00    +0.000 C 
ATOM      2  O   UNL     1       2.915   3.383  16.654  0.00  0.00    +0.000 OA
ATOM      3  N   UNL     1       4.409   4.272  18.197  0.00  0.00    +0.000 N 
ATOM      4  H   UNL     1       5.035   5.064  18.223  0.00  0.00    +0.000 HD
ENDROOT
BRANCH   3   5
ATOM      5  C   UNL     1       3.536   4.108  19.305  0.00  0.00    +0.000 A 
ATOM      6  C   UNL     1       2.709   5.162  19.751  0.00  0.00    +0.000 A 
ATOM      7  C   UNL     1       2.519   6.451  18.994  0.00  0.00    +0.000 C 
ATOM      8  C   UNL     1       1.994   5.012  20.950  0.00  0.00    +0.000 A 
ATOM      9  C   UNL     1       2.046   3.819  21.664  0.00  0.00    +0.000 A 
ATOM     10  C   UNL     1       2.786   2.749  21.172  0.00  0.00    +0.000 A 
ATOM     11  C   UNL     1       3.527   2.870  19.983  0.00  0.00    +0.000 A 
ATOM     12  C   UNL     1       4.332   1.690  19.516  0.00  0.00    +0.000 C 
ENDBRANCH   3   5
BRANCH   1  13
ATOM     13  C   UNL     1       5.028   4.205  15.845  0.00  0.00    +0.000 C 
BRANCH  13  14
ATOM     14  C   UNL     1       5.453   5.677  15.933  0.00  0.00    +0.000 C 
BRANCH  14  15
ATOM     15  C   UNL     1       6.881   5.942  16.465  0.00  0.00    +0.000 C 
ATOM     16  C   UNL     1       7.591   4.582  16.613  0.00  0.00    +0.000 C 
BRANCH  15  17
ATOM     17  N   UNL     1       6.931   6.761  17.709  0.00  0.00    +0.000 NA
BRANCH  17  19
ATOM     18  C   UNL     1       7.369   5.514  19.879  0.00  0.00    +0.000 C 
ATOM     19  C   UNL     1       7.938   6.234  18.659  0.00  0.00    +0.000 C 
ENDBRANCH  17  19
BRANCH  17  20
ATOM     20  C   UNL     1       7.104   8.209  17.460  0.00  0.00    +0.000 C 
ATOM     21  C   UNL     1       8.335   8.872  18.076  0.00  0.00    +0.000 C 
ENDBRANCH  17  20
ENDBRANCH  15  17
ENDBRANCH  14  15
ENDBRANCH  13  14
ENDBRANCH   1  13
TORSDOF 7
ENDMDL
MODEL 7
REMARK VINA RESULT:      -5.9      2.058      3.858
REMARK  Name = 
REMARK  12 active torsions:
REMARK  status: ('A' for Active; 'I' for Inactive)
REMARK    1  A    between atoms: C_1  and  C_2
REMARK    2  A    between atoms: C_2  and  N_3
REMARK    3  A    between atoms: N_3  and  C_4
REMARK    4  A    between atoms: N_3  and  C_6
REMARK    5  A    between atoms: C_4  and  C_5
REMARK    6  A    between atoms: C_6  and  C_7
REMARK    7  A    between atoms: C_6  and  C_8
REMARK    8  A    between atoms: C_8  and  C_9
REMARK    9  A    between atoms: C_9  and  C_10
REMARK   10  A    between atoms: N_12  and  C_13
REMARK   11  A    between atoms: C_14  and  C_15
REMARK   12  A    between atoms: C_19  and  C_20
REMARK                            x       y       z     vdW  Elec       q    Type
REMARK                         _______ _______ _______ _____ _____    ______ ____
ROOT
ATOM      1  C   UNL     1       4.806   5.597  18.216  0.00  0.00    +0.000 C 
ATOM      2  O   UNL     1       5.407   5.310  19.251  0.00  0.00    +0.000 OA
ATOM      3  N   UNL     1       3.495   5.237  17.931  0.00  0.00    +0.000 N 
ATOM      4  H   UNL     1       3.300   5.105  16.949  0.00  0.00    +0.000 HD
ENDROOT
BRANCH   3   5
ATOM      5  C   UNL     1       2.759   4.437  18.844  0.00  0.00    +0.000 A 
ATOM      6  C   UNL     1       2.722   3.030  18.725  0.00  0.00    +0.000 A 
ATOM      7  C   UNL     1       3.600   2.250  17.780  0.00  0.00    +0.000 C 
ATOM      8  C   UNL     1       1.847   2.296  19.540  0.00  0.00    +0.000 A 
ATOM      9  C   UNL     1       1.066   2.933  20.499  0.00  0.00    +0.000 A 
ATOM     10  C   UNL     1       1.175   4.308  20.680  0.00  0.00    +0.000 A 
ATOM     11  C   UNL     1       2.030   5.076  19.871  0.00  0.00    +0.000 A 
ATOM     12  C   UNL     1       2.084   6.561  20.091  0.00  0.00    +0.000 C 
ENDBRANCH   3   5
BRANCH   1  13
ATOM     13  C   UNL     1       5.467   6.396  17.105  0.00  0.00    +0.000 C 
BRANCH  13  14
ATOM     14  C   UNL     1       5.339   5.641  15.775  0.00  0.00    +0.000 C 
BRANCH  14  15
ATOM     15  C   UNL     1       6.178   4.349  15.643  0.00  0.00    +0.000 C 
ATOM     16  C   UNL     1       7.358   4.447  16.631  0.00  0.00    +0.000 C 
BRANCH  15  17
ATOM     17  N   UNL     1       6.611   4.036  14.251  0.00  0.00    +0.000 NA
BRANCH  17  19
ATOM     18  C   UNL     1       5.394   2.943  12.307  0.00  0.00    +0.000 C 
ATOM     19  C   UNL     1       5.469   4.092  13.309  0.00  0.00    +0.000 C 
ENDBRANCH  17  19
BRANCH  17  20
ATOM     20  C   UNL     1       7.755   4.850  13.789  0.00  0.00    +0.000 C 
ATOM     21  C   UNL     1       7.660   5.436  12.381  0.00  0.00    +0.000 C 
ENDBRANCH  17  20
ENDBRANCH  15  17
ENDBRANCH  14  15
ENDBRANCH  13  14
ENDBRANCH   1  13
TORSDOF 7
ENDMDL
MODEL 8
REMARK VINA RESULT:      -5.9      1.713      3.013
REMARK  Name = 
REMARK  12 active torsions:
REMARK  status: ('A' for Active; 'I' for Inactive)
REMARK    1  A    between atoms: C_1  and  C_2
REMARK    2  A    between atoms: C_2  and  N_3
REMARK    3  A    between atoms: N_3  and  C_4
REMARK    4  A    between atoms: N_3  and  C_6
REMARK    5  A    between atoms: C_4  and  C_5
REMARK    6  A    between atoms: C_6  and  C_7
REMARK    7  A    between atoms: C_6  and  C_8
REMARK    8  A    between atoms: C_8  and  C_9
REMARK    9  A    between atoms: C_9  and  C_10
REMARK   10  A    between atoms: N_12  and  C_13
REMARK   11  A    between atoms: C_14  and  C_15
REMARK   12  A    between atoms: C_19  and  C_20
REMARK                            x       y       z     vdW  Elec       q    Type
REMARK                         _______ _______ _______ _____ _____    ______ ____
ROOT
ATOM      1  C   UNL     1       5.208   4.423  19.292  0.00  0.00    +0.000 C 
ATOM      2  O   UNL     1       5.305   3.350  19.887  0.00  0.00    +0.000 OA
ATOM      3  N   UNL     1       4.019   4.973  18.831  0.00  0.00    +0.000 N 
ATOM      4  H   UNL     1       4.113   5.544  18.004  0.00  0.00    +0.000 HD
ENDROOT
BRANCH   3   5
ATOM      5  C   UNL     1       2.797   4.266  18.987  0.00  0.00    +0.000 A 
ATOM      6  C   UNL     1       1.877   4.604  20.003  0.00  0.00    +0.000 A 
ATOM      7  C   UNL     1       1.997   5.839  20.859  0.00  0.00    +0.000 C 
ATOM      8  C   UNL     1       0.768   3.774  20.230  0.00  0.00    +0.000 A 
ATOM      9  C   UNL     1       0.538   2.662  19.426  0.00  0.00    +0.000 A 
ATOM     10  C   UNL     1       1.393   2.385  18.364  0.00  0.00    +0.000 A 
ATOM     11  C   UNL     1       2.521   3.187  18.119  0.00  0.00    +0.000 A 
ATOM     12  C   UNL     1       3.427   2.822  16.976  0.00  0.00    +0.000 C 
ENDBRANCH   3   5
BRANCH   1  13
ATOM     13  C   UNL     1       6.426   5.279  18.987  0.00  0.00    +0.000 C 
BRANCH  13  14
ATOM     14  C   UNL     1       7.112   4.770  17.712  0.00  0.00    +0.000 C 
BRANCH  14  15
ATOM     15  C   UNL     1       7.516   5.849  16.680  0.00  0.00    +0.000 C 
ATOM     16  C   UNL     1       7.508   7.215  17.395  0.00  0.00    +0.000 C 
BRANCH  15  17
ATOM     17  N   UNL     1       6.700   5.843  15.433  0.00  0.00    +0.000 NA
BRANCH  17  19
ATOM     18  C   UNL     1       7.777   5.281  13.200  0.00  0.00    +0.000 C 
ATOM     19  C   UNL     1       7.152   4.784  14.501  0.00  0.00    +0.000 C 
ENDBRANCH  17  19
BRANCH  17  20
ATOM     20  C   UNL     1       5.243   5.785  15.677  0.00  0.00    +0.000 C 
ATOM     21  C   UNL     1       4.562   7.087  16.097  0.00  0.00    +0.000 C 
ENDBRANCH  17  20
ENDBRANCH  15  17
ENDBRANCH  14  15
ENDBRANCH  13  14
ENDBRANCH   1  13
TORSDOF 7
ENDMDL
MODEL 9
REMARK VINA RESULT:      -5.9      2.323      4.677
REMARK  Name = 
REMARK  12 active torsions:
REMARK  status: ('A' for Active; 'I' for Inactive)
REMARK    1  A    between atoms: C_1  and  C_2
REMARK    2  A    between atoms: C_2  and  N_3
REMARK    3  A    between atoms: N_3  and  C_4
REMARK    4  A    between atoms: N_3  and  C_6
REMARK    5  A    between atoms: C_4  and  C_5
REMARK    6  A    between atoms: C_6  and  C_7
REMARK    7  A    between atoms: C_6  and  C_8
REMARK    8  A    between atoms: C_8  and  C_9
REMARK    9  A    between atoms: C_9  and  C_10
REMARK   10  A    between atoms: N_12  and  C_13
REMARK   11  A    between atoms: C_14  and  C_15
REMARK   12  A    between atoms: C_19  and  C_20
REMARK                            x       y       z     vdW  Elec       q    Type
REMARK                         _______ _______ _______ _____ _____    ______ ____
ROOT
ATOM      1  C   UNL     1       2.212   5.264  19.757  0.00  0.00    +0.000 C 
ATOM      2  O   UNL     1       1.211   5.092  19.061  0.00  0.00    +0.000 OA
ATOM      3  N   UNL     1       2.750   6.501  20.085  0.00  0.00    +0.000 N 
ATOM      4  H   UNL     1       3.750   6.501  20.222  0.00  0.00    +0.000 HD
ENDROOT
BRANCH   3   5
ATOM      5  C   UNL     1       2.172   7.692  19.570  0.00  0.00    +0.000 A 
ATOM      6  C   UNL     1       1.250   8.447  20.326  0.00  0.00    +0.000 A 
ATOM      7  C   UNL     1       0.958   8.193  21.783  0.00  0.00    +0.000 C 
ATOM      8  C   UNL     1       0.575   9.516  19.715  0.00  0.00    +0.000 A 
ATOM      9  C   UNL     1       0.852   9.872  18.399  0.00  0.00    +0.000 A 
ATOM     10  C   UNL     1       1.831   9.186  17.687  0.00  0.00    +0.000 A 
ATOM     11  C   UNL     1       2.513   8.101  18.263  0.00  0.00    +0.000 A 
ATOM     12  C   UNL     1       3.539   7.378  17.435  0.00  0.00    +0.000 C 
ENDBRANCH   3   5
BRANCH   1  13
ATOM     13  C   UNL     1       2.989   4.094  20.339  0.00  0.00    +0.000 C 
BRANCH  13  14
ATOM     14  C   UNL     1       4.287   3.887  19.546  0.00  0.00    +0.000 C 
BRANCH  14  15
ATOM     15  C   UNL     1       4.127   3.693  18.020  0.00  0.00    +0.000 C 
ATOM     16  C   UNL     1       3.592   2.268  17.776  0.00  0.00    +0.000 C 
BRANCH  15  17
ATOM     17  N   UNL     1       5.356   3.994  17.231  0.00  0.00    +0.000 NA
BRANCH  17  19
ATOM     18  C   UNL     1       6.025   3.904  14.781  0.00  0.00    +0.000 C 
ATOM     19  C   UNL     1       5.021   4.362  15.836  0.00  0.00    +0.000 C 
ENDBRANCH  17  19
BRANCH  17  20
ATOM     20  C   UNL     1       6.244   4.988  17.872  0.00  0.00    +0.000 C 
ATOM     21  C   UNL     1       7.738   4.671  17.884  0.00  0.00    +0.000 C 
ENDBRANCH  17  20
ENDBRANCH  15  17
ENDBRANCH  14  15
ENDBRANCH  13  14
ENDBRANCH   1  13
TORSDOF 7
ENDMDL
