MODEL 1
REMARK VINA RESULT:      -8.4      0.000      0.000
REMARK  Name = 
REMARK  13 active torsions:
REMARK  status: ('A' for Active; 'I' for Inactive)
REMARK    1  A    between atoms: C_1  and  C_2
REMARK    2  A    between atoms: C_2  and  O_3
REMARK    3  A    between atoms: O_3  and  C_4
REMARK    4  A    between atoms: C_4  and  C_6
REMARK    5  A    between atoms: C_8  and  C_9
REMARK    6  A    between atoms: N_15  and  C_16
REMARK    7  A    between atoms: C_20  and  C_21
REMARK    8  A    between atoms: N_23  and  C_24
REMARK    9  A    between atoms: C_26  and  O_27
REMARK   10  A    between atoms: O_27  and  C_28
REMARK   11  A    between atoms: C_30  and  O_31
REMARK   12  A    between atoms: O_31  and  C_32
REMARK   13  A    between atoms: C_35  and  C_36
REMARK                            x       y       z     vdW  Elec       q    Type
REMARK                         _______ _______ _______ _____ _____    ______ ____
ROOT
ATOM      1  C   UNL     1       0.410  10.968  20.549  0.00  0.00    +0.000 A 
ATOM      2  C   UNL     1      -0.228  10.878  21.793  0.00  0.00    +0.000 A 
ATOM      3  C   UNL     1      -0.126   9.720  22.560  0.00  0.00    +0.000 A 
ATOM      4  C   UNL     1       0.535   8.614  22.045  0.00  0.00    +0.000 A 
ATOM      5  C   UNL     1       1.136   8.672  20.779  0.00  0.00    +0.000 A 
ATOM      6  C   UNL     1       1.112   9.863  20.051  0.00  0.00    +0.000 A 
ENDROOT
BRANCH   1  10
ATOM      7  C   UNL     1       0.876  14.181  18.895  0.00  0.00    +0.000 A 
ATOM      8  C   UNL     1      -0.263  13.676  18.222  0.00  0.00    +0.000 A 
ATOM      9  C   UNL     1      -0.625  12.446  18.756  0.00  0.00    +0.000 A 
ATOM     10  N   UNL     1       0.323  12.164  19.774  0.00  0.00    +0.000 N 
ATOM     11  C   UNL     1       1.195  13.245  19.877  0.00  0.00    +0.000 A 
ATOM     12  C   UNL     1       2.357  13.359  20.823  0.00  0.00    +0.000 C 
BRANCH   9  13
ATOM     13  C   UNL     1      -1.798  11.626  18.378  0.00  0.00    +0.000 A 
ATOM     14  C   UNL     1      -3.090  11.982  18.799  0.00  0.00    +0.000 A 
ATOM     15  C   UNL     1      -4.215  11.246  18.408  0.00  0.00    +0.000 A 
ATOM     16  C   UNL     1      -4.074  10.158  17.551  0.00  0.00    +0.000 A 
ATOM     17  C   UNL     1      -2.810   9.785  17.117  0.00  0.00    +0.000 A 
ATOM     18  C   UNL     1      -1.684  10.476  17.574  0.00  0.00    +0.000 A 
ENDBRANCH   9  13
BRANCH   7  19
ATOM     19  C   UNL     1       1.590  15.437  18.690  0.00  0.00    +0.000 C 
ATOM     20  O   UNL     1       2.636  15.528  18.055  0.00  0.00    +0.000 OA
BRANCH  19  21
ATOM     21  O   UNL     1       1.022  16.479  19.360  0.00  0.00    +0.000 OA
BRANCH  21  23
ATOM     22  C   UNL     1      -0.436  17.515  17.796  0.00  0.00    +0.000 C 
ATOM     23  C   UNL     1       0.869  17.657  18.555  0.00  0.00    +0.000 C 
ENDBRANCH  21  23
ENDBRANCH  19  21
ENDBRANCH   7  19
ENDBRANCH   1  10
BRANCH   5  24
ATOM     24  C   UNL     1       1.702   7.418  20.226  0.00  0.00    +0.000 C 
ATOM     25  O   UNL     1       1.622   6.419  20.932  0.00  0.00    +0.000 OA
ATOM     26  N   UNL     1       2.304   7.499  18.980  0.00  0.00    +0.000 N 
ATOM     27  H   UNL     1       2.448   8.416  18.578  0.00  0.00    +0.000 HD
BRANCH  26  28
ATOM     28  C   UNL     1       2.942   6.417  18.332  0.00  0.00    +0.000 A 
ATOM     29  C   UNL     1       4.218   6.519  17.786  0.00  0.00    +0.000 A 
ATOM     30  C   UNL     1       4.787   5.463  17.082  0.00  0.00    +0.000 A 
ATOM     31  C   UNL     1       4.087   4.268  16.951  0.00  0.00    +0.000 A 
ATOM     32  C   UNL     1       2.814   4.135  17.517  0.00  0.00    +0.000 A 
ATOM     33  C   UNL     1       2.245   5.202  18.219  0.00  0.00    +0.000 A 
BRANCH  30  34
ATOM     34  O   UNL     1       6.042   5.708  16.594  0.00  0.00    +0.000 OA
ATOM     35  C   UNL     1       7.017   4.717  16.890  0.00  0.00    +0.000 C 
ENDBRANCH  30  34
BRANCH  32  36
ATOM     36  O   UNL     1       2.225   2.918  17.295  0.00  0.00    +0.000 OA
ATOM     37  C   UNL     1       1.559   2.310  18.395  0.00  0.00    +0.000 C 
ENDBRANCH  32  36
ENDBRANCH  26  28
ENDBRANCH   5  24
TORSDOF 9
ENDMDL
MODEL 2
REMARK VINA RESULT:      -8.3      1.135      2.331
REMARK  Name = 
REMARK  13 active torsions:
REMARK  status: ('A' for Active; 'I' for Inactive)
REMARK    1  A    between atoms: C_1  and  C_2
REMARK    2  A    between atoms: C_2  and  O_3
REMARK    3  A    between atoms: O_3  and  C_4
REMARK    4  A    between atoms: C_4  and  C_6
REMARK    5  A    between atoms: C_8  and  C_9
REMARK    6  A    between atoms: N_15  and  C_16
REMARK    7  A    between atoms: C_20  and  C_21
REMARK    8  A    between atoms: N_23  and  C_24
REMARK    9  A    between atoms: C_26  and  O_27
REMARK   10  A    between atoms: O_27  and  C_28
REMARK   11  A    between atoms: C_30  and  O_31
REMARK   12  A    between atoms: O_31  and  C_32
REMARK   13  A    between atoms: C_35  and  C_36
REMARK                            x       y       z     vdW  Elec       q    Type
REMARK                         _______ _______ _______ _____ _____    ______ ____
ROOT
ATOM      1  C   UNL     1       0.491  10.989  20.298  0.00  0.00    +0.000 A 
ATOM      2  C   UNL     1      -0.089  10.640  21.525  0.00  0.00    +0.000 A 
ATOM      3  C   UNL     1       0.138   9.385  22.086  0.00  0.00    +0.000 A 
ATOM      4  C   UNL     1       0.869   8.442  21.378  0.00  0.00    +0.000 A 
ATOM      5  C   UNL     1       1.415   8.760  20.126  0.00  0.00    +0.000 A 
ATOM      6  C   UNL     1       1.264  10.047  19.607  0.00  0.00    +0.000 A 
ENDROOT
BRANCH   1  10
ATOM      7  C   UNL     1       0.651  14.438  19.135  0.00  0.00    +0.000 A 
ATOM      8  C   UNL     1      -0.535  13.981  18.511  0.00  0.00    +0.000 A 
ATOM      9  C   UNL     1      -0.789  12.666  18.877  0.00  0.00    +0.000 A 
ATOM     10  N   UNL     1       0.274  12.284  19.736  0.00  0.00    +0.000 N 
ATOM     11  C   UNL     1       1.112  13.382  19.919  0.00  0.00    +0.000 A 
ATOM     12  C   UNL     1       2.365  13.412  20.747  0.00  0.00    +0.000 C 
BRANCH   9  13
ATOM     13  C   UNL     1      -1.965  11.852  18.497  0.00  0.00    +0.000 A 
ATOM     14  C   UNL     1      -3.237  12.135  19.022  0.00  0.00    +0.000 A 
ATOM     15  C   UNL     1      -4.367  11.406  18.633  0.00  0.00    +0.000 A 
ATOM     16  C   UNL     1      -4.254  10.401  17.675  0.00  0.00    +0.000 A 
ATOM     17  C   UNL     1      -3.011  10.101  17.138  0.00  0.00    +0.000 A 
ATOM     18  C   UNL     1      -1.874  10.779  17.589  0.00  0.00    +0.000 A 
ENDBRANCH   9  13
BRANCH   7  19
ATOM     19  C   UNL     1       1.291  15.748  19.059  0.00  0.00    +0.000 C 
ATOM     20  O   UNL     1       2.439  15.921  18.663  0.00  0.00    +0.000 OA
BRANCH  19  21
ATOM     21  O   UNL     1       0.510  16.743  19.567  0.00  0.00    +0.000 OA
BRANCH  21  23
ATOM     22  C   UNL     1      -0.657  17.715  17.740  0.00  0.00    +0.000 C 
ATOM     23  C   UNL     1       0.469  17.912  18.737  0.00  0.00    +0.000 C 
ENDBRANCH  21  23
ENDBRANCH  19  21
ENDBRANCH   7  19
ENDBRANCH   1  10
BRANCH   5  24
ATOM     24  C   UNL     1       2.063   7.669  19.358  0.00  0.00    +0.000 C 
ATOM     25  O   UNL     1       2.060   7.778  18.138  0.00  0.00    +0.000 OA
ATOM     26  N   UNL     1       2.577   6.609  20.088  0.00  0.00    +0.000 N 
ATOM     27  H   UNL     1       2.368   6.565  21.077  0.00  0.00    +0.000 HD
BRANCH  26  28
ATOM     28  C   UNL     1       3.175   5.464  19.517  0.00  0.00    +0.000 A 
ATOM     29  C   UNL     1       2.434   4.362  19.098  0.00  0.00    +0.000 A 
ATOM     30  C   UNL     1       3.056   3.216  18.616  0.00  0.00    +0.000 A 
ATOM     31  C   UNL     1       4.443   3.180  18.511  0.00  0.00    +0.000 A 
ATOM     32  C   UNL     1       5.206   4.287  18.899  0.00  0.00    +0.000 A 
ATOM     33  C   UNL     1       4.574   5.435  19.389  0.00  0.00    +0.000 A 
BRANCH  30  34
ATOM     34  O   UNL     1       2.204   2.210  18.251  0.00  0.00    +0.000 OA
ATOM     35  C   UNL     1       0.889   2.299  18.783  0.00  0.00    +0.000 C 
ENDBRANCH  30  34
BRANCH  32  36
ATOM     36  O   UNL     1       6.558   4.112  18.767  0.00  0.00    +0.000 OA
ATOM     37  C   UNL     1       7.192   4.765  17.675  0.00  0.00    +0.000 C 
ENDBRANCH  32  36
ENDBRANCH  26  28
ENDBRANCH   5  24
TORSDOF 9
ENDMDL
MODEL 3
REMARK VINA RESULT:      -8.3      0.704      2.345
REMARK  Name = 
REMARK  13 active torsions:
REMARK  status: ('A' for Active; 'I' for Inactive)
REMARK    1  A    between atoms: C_1  and  C_2
REMARK    2  A    between atoms: C_2  and  O_3
REMARK    3  A    between atoms: O_3  and  C_4
REMARK    4  A    between atoms: C_4  and  C_6
REMARK    5  A    between atoms: C_8  and  C_9
REMARK    6  A    between atoms: N_15  and  C_16
REMARK    7  A    between atoms: C_20  and  C_21
REMARK    8  A    between atoms: N_23  and  C_24
REMARK    9  A    between atoms: C_26  and  O_27
REMARK   10  A    between atoms: O_27  and  C_28
REMARK   11  A    between atoms: C_30  and  O_31
REMARK   12  A    between atoms: O_31  and  C_32
REMARK   13  A    between atoms: C_35  and  C_36
REMARK                            x       y       z     vdW  Elec       q    Type
REMARK                         _______ _______ _______ _____ _____    ______ ____
ROOT
ATOM      1  C   UNL     1       0.488  10.929  20.548  0.00  0.00    +0.000 A 
ATOM      2  C   UNL     1      -0.128  10.833  21.803  0.00  0.00    +0.000 A 
ATOM      3  C   UNL     1      -0.025   9.666  22.557  0.00  0.00    +0.000 A 
ATOM      4  C   UNL     1       0.615   8.559  22.019  0.00  0.00    +0.000 A 
ATOM      5  C   UNL     1       1.194   8.623  20.743  0.00  0.00    +0.000 A 
ATOM      6  C   UNL     1       1.170   9.821  20.027  0.00  0.00    +0.000 A 
ENDROOT
BRANCH   1  10
ATOM      7  C   UNL     1       0.956  14.152  18.917  0.00  0.00    +0.000 A 
ATOM      8  C   UNL     1      -0.199  13.665  18.259  0.00  0.00    +0.000 A 
ATOM      9  C   UNL     1      -0.563  12.433  18.787  0.00  0.00    +0.000 A 
ATOM     10  N   UNL     1       0.398  12.133  19.786  0.00  0.00    +0.000 N 
ATOM     11  C   UNL     1       1.283  13.205  19.884  0.00  0.00    +0.000 A 
ATOM     12  C   UNL     1       2.463  13.298  20.811  0.00  0.00    +0.000 C 
BRANCH   9  13
ATOM     13  C   UNL     1      -1.751  11.629  18.422  0.00  0.00    +0.000 A 
ATOM     14  C   UNL     1      -3.038  12.020  18.827  0.00  0.00    +0.000 A 
ATOM     15  C   UNL     1      -4.175  11.298  18.447  0.00  0.00    +0.000 A 
ATOM     16  C   UNL     1      -4.052  10.187  17.617  0.00  0.00    +0.000 A 
ATOM     17  C   UNL     1      -2.793   9.778  17.199  0.00  0.00    +0.000 A 
ATOM     18  C   UNL     1      -1.656  10.457  17.647  0.00  0.00    +0.000 A 
ENDBRANCH   9  13
BRANCH   7  19
ATOM     19  C   UNL     1       1.679  15.404  18.711  0.00  0.00    +0.000 C 
ATOM     20  O   UNL     1       1.318  16.481  19.176  0.00  0.00    +0.000 OA
BRANCH  19  21
ATOM     21  O   UNL     1       2.741  15.264  17.869  0.00  0.00    +0.000 OA
BRANCH  21  23
ATOM     22  C   UNL     1       4.839  16.138  18.562  0.00  0.00    +0.000 C 
ATOM     23  C   UNL     1       3.565  16.435  17.794  0.00  0.00    +0.000 C 
ENDBRANCH  21  23
ENDBRANCH  19  21
ENDBRANCH   7  19
ENDBRANCH   1  10
BRANCH   5  24
ATOM     24  C   UNL     1       1.737   7.369  20.167  0.00  0.00    +0.000 C 
ATOM     25  O   UNL     1       1.709   6.376  20.885  0.00  0.00    +0.000 OA
ATOM     26  N   UNL     1       2.262   7.443  18.887  0.00  0.00    +0.000 N 
ATOM     27  H   UNL     1       2.373   8.357  18.469  0.00  0.00    +0.000 HD
BRANCH  26  28
ATOM     28  C   UNL     1       2.870   6.361  18.211  0.00  0.00    +0.000 A 
ATOM     29  C   UNL     1       2.256   5.118  18.084  0.00  0.00    +0.000 A 
ATOM     30  C   UNL     1       2.912   4.048  17.486  0.00  0.00    +0.000 A 
ATOM     31  C   UNL     1       4.191   4.229  16.969  0.00  0.00    +0.000 A 
ATOM     32  C   UNL     1       4.815   5.478  17.060  0.00  0.00    +0.000 A 
ATOM     33  C   UNL     1       4.151   6.548  17.668  0.00  0.00    +0.000 A 
BRANCH  30  34
ATOM     34  O   UNL     1       2.192   2.885  17.439  0.00  0.00    +0.000 OA
ATOM     35  C   UNL     1       1.148   2.774  18.397  0.00  0.00    +0.000 C 
ENDBRANCH  30  34
BRANCH  32  36
ATOM     36  O   UNL     1       6.079   5.514  16.534  0.00  0.00    +0.000 OA
ATOM     37  C   UNL     1       7.087   4.781  17.219  0.00  0.00    +0.000 C 
ENDBRANCH  32  36
ENDBRANCH  26  28
ENDBRANCH   5  24
TORSDOF 9
ENDMDL
MODEL 4
REMARK VINA RESULT:      -8.3      0.734      1.537
REMARK  Name = 
REMARK  13 active torsions:
REMARK  status: ('A' for Active; 'I' for Inactive)
REMARK    1  A    between atoms: C_1  and  C_2
REMARK    2  A    between atoms: C_2  and  O_3
REMARK    3  A    between atoms: O_3  and  C_4
REMARK    4  A    between atoms: C_4  and  C_6
REMARK    5  A    between atoms: C_8  and  C_9
REMARK    6  A    between atoms: N_15  and  C_16
REMARK    7  A    between atoms: C_20  and  C_21
REMARK    8  A    between atoms: N_23  and  C_24
REMARK    9  A    between atoms: C_26  and  O_27
REMARK   10  A    between atoms: O_27  and  C_28
REMARK   11  A    between atoms: C_30  and  O_31
REMARK   12  A    between atoms: O_31  and  C_32
REMARK   13  A    between atoms: C_35  and  C_36
REMARK                            x       y       z     vdW  Elec       q    Type
REMARK                         _______ _______ _______ _____ _____    ______ ____
ROOT
ATOM      1  C   UNL     1       0.403  11.018  20.508  0.00  0.00    +0.000 A 
ATOM      2  C   UNL     1      -0.297  10.908  21.717  0.00  0.00    +0.000 A 
ATOM      3  C   UNL     1      -0.228   9.740  22.474  0.00  0.00    +0.000 A 
ATOM      4  C   UNL     1       0.465   8.645  21.978  0.00  0.00    +0.000 A 
ATOM      5  C   UNL     1       1.129   8.722  20.746  0.00  0.00    +0.000 A 
ATOM      6  C   UNL     1       1.136   9.922  20.033  0.00  0.00    +0.000 A 
ENDROOT
BRANCH   1  10
ATOM      7  C   UNL     1       0.953  14.236  18.891  0.00  0.00    +0.000 A 
ATOM      8  C   UNL     1      -0.190  13.762  18.204  0.00  0.00    +0.000 A 
ATOM      9  C   UNL     1      -0.583  12.535  18.721  0.00  0.00    +0.000 A 
ATOM     10  N   UNL     1       0.348  12.223  19.745  0.00  0.00    +0.000 N 
ATOM     11  C   UNL     1       1.243  13.284  19.867  0.00  0.00    +0.000 A 
ATOM     12  C   UNL     1       2.399  13.363  20.824  0.00  0.00    +0.000 C 
BRANCH   9  13
ATOM     13  C   UNL     1      -1.771  11.745  18.325  0.00  0.00    +0.000 A 
ATOM     14  C   UNL     1      -1.635  10.578  17.555  0.00  0.00    +0.000 A 
ATOM     15  C   UNL     1      -2.744   9.793  17.216  0.00  0.00    +0.000 A 
ATOM     16  C   UNL     1      -4.012  10.139  17.676  0.00  0.00    +0.000 A 
ATOM     17  C   UNL     1      -4.175  11.286  18.440  0.00  0.00    +0.000 A 
ATOM     18  C   UNL     1      -3.076  12.108  18.709  0.00  0.00    +0.000 A 
ENDBRANCH   9  13
BRANCH   7  19
ATOM     19  C   UNL     1       1.696  15.478  18.705  0.00  0.00    +0.000 C 
ATOM     20  O   UNL     1       1.373  16.546  19.217  0.00  0.00    +0.000 OA
BRANCH  19  21
ATOM     21  O   UNL     1       2.729  15.345  17.827  0.00  0.00    +0.000 OA
BRANCH  21  23
ATOM     22  C   UNL     1       5.002  14.690  18.053  0.00  0.00    +0.000 C 
ATOM     23  C   UNL     1       3.989  15.775  18.362  0.00  0.00    +0.000 C 
ENDBRANCH  21  23
ENDBRANCH  19  21
ENDBRANCH   7  19
ENDBRANCH   1  10
BRANCH   5  24
ATOM     24  C   UNL     1       1.730   7.478  20.207  0.00  0.00    +0.000 C 
ATOM     25  O   UNL     1       1.708   6.494  20.937  0.00  0.00    +0.000 OA
ATOM     26  N   UNL     1       2.295   7.552  18.943  0.00  0.00    +0.000 N 
ATOM     27  H   UNL     1       2.392   8.464  18.517  0.00  0.00    +0.000 HD
BRANCH  26  28
ATOM     28  C   UNL     1       2.958   6.481  18.303  0.00  0.00    +0.000 A 
ATOM     29  C   UNL     1       4.266   6.582  17.836  0.00  0.00    +0.000 A 
ATOM     30  C   UNL     1       4.864   5.539  17.137  0.00  0.00    +0.000 A 
ATOM     31  C   UNL     1       4.159   4.357  16.932  0.00  0.00    +0.000 A 
ATOM     32  C   UNL     1       2.853   4.224  17.418  0.00  0.00    +0.000 A 
ATOM     33  C   UNL     1       2.256   5.279  18.116  0.00  0.00    +0.000 A 
BRANCH  30  34
ATOM     34  O   UNL     1       6.147   5.781  16.730  0.00  0.00    +0.000 OA
ATOM     35  C   UNL     1       7.073   4.732  16.972  0.00  0.00    +0.000 C 
ENDBRANCH  30  34
BRANCH  32  36
ATOM     36  O   UNL     1       2.266   3.021  17.128  0.00  0.00    +0.000 OA
ATOM     37  C   UNL     1       1.949   2.173  18.225  0.00  0.00    +0.000 C 
ENDBRANCH  32  36
ENDBRANCH  26  28
ENDBRANCH   5  24
TORSDOF 9
ENDMDL
MODEL 5
REMARK VINA RESULT:      -8.3      1.170      1.423
REMARK  Name = 
REMARK  13 active torsions:
REMARK  status: ('A' for Active; 'I' for Inactive)
REMARK    1  A    between atoms: C_1  and  C_2
REMARK    2  A    between atoms: C_2  and  O_3
REMARK    3  A    between atoms: O_3  and  C_4
REMARK    4  A    between atoms: C_4  and  C_6
REMARK    5  A    between atoms: C_8  and  C_9
REMARK    6  A    between atoms: N_15  and  C_16
REMARK    7  A    between atoms: C_20  and  C_21
REMARK    8  A    between atoms: N_23  and  C_24
REMARK    9  A    between atoms: C_26  and  O_27
REMARK   10  A    between atoms: O_27  and  C_28
REMARK   11  A    between atoms: C_30  and  O_31
REMARK   12  A    between atoms: O_31  and  C_32
REMARK   13  A    between atoms: C_35  and  C_36
REMARK                            x       y       z     vdW  Elec       q    Type
REMARK                         _______ _______ _______ _____ _____    ______ ____
ROOT
ATOM      1  C   UNL     1       0.424  10.987  20.273  0.00  0.00    +0.000 A 
ATOM      2  C   UNL     1      -0.231  10.688  21.476  0.00  0.00    +0.000 A 
ATOM      3  C   UNL     1      -0.044   9.456  22.098  0.00  0.00    +0.000 A 
ATOM      4  C   UNL     1       0.723   8.483  21.473  0.00  0.00    +0.000 A 
ATOM      5  C   UNL     1       1.344   8.749  20.244  0.00  0.00    +0.000 A 
ATOM      6  C   UNL     1       1.232  10.015  19.668  0.00  0.00    +0.000 A 
ENDROOT
BRANCH   1  10
ATOM      7  C   UNL     1       0.672  14.386  18.986  0.00  0.00    +0.000 A 
ATOM      8  C   UNL     1      -0.478  13.909  18.312  0.00  0.00    +0.000 A 
ATOM      9  C   UNL     1      -0.761  12.610  18.714  0.00  0.00    +0.000 A 
ATOM     10  N   UNL     1       0.248  12.258  19.648  0.00  0.00    +0.000 N 
ATOM     11  C   UNL     1       1.080  13.360  19.836  0.00  0.00    +0.000 A 
ATOM     12  C   UNL     1       2.283  13.418  20.735  0.00  0.00    +0.000 C 
BRANCH   9  13
ATOM     13  C   UNL     1      -1.918  11.785  18.298  0.00  0.00    +0.000 A 
ATOM     14  C   UNL     1      -1.741  10.655  17.484  0.00  0.00    +0.000 A 
ATOM     15  C   UNL     1      -2.818   9.836  17.125  0.00  0.00    +0.000 A 
ATOM     16  C   UNL     1      -4.095  10.111  17.608  0.00  0.00    +0.000 A 
ATOM     17  C   UNL     1      -4.299  11.221  18.416  0.00  0.00    +0.000 A 
ATOM     18  C   UNL     1      -3.234  12.077  18.707  0.00  0.00    +0.000 A 
ENDBRANCH   9  13
BRANCH   7  19
ATOM     19  C   UNL     1       1.323  15.689  18.896  0.00  0.00    +0.000 C 
ATOM     20  O   UNL     1       2.416  15.868  18.367  0.00  0.00    +0.000 OA
BRANCH  19  21
ATOM     21  O   UNL     1       0.632  16.667  19.547  0.00  0.00    +0.000 OA
BRANCH  21  23
ATOM     22  C   UNL     1      -0.741  17.700  17.906  0.00  0.00    +0.000 C 
ATOM     23  C   UNL     1       0.488  17.869  18.779  0.00  0.00    +0.000 C 
ENDBRANCH  21  23
ENDBRANCH  19  21
ENDBRANCH   7  19
ENDBRANCH   1  10
BRANCH   5  24
ATOM     24  C   UNL     1       2.031   7.627  19.561  0.00  0.00    +0.000 C 
ATOM     25  O   UNL     1       2.085   7.678  18.337  0.00  0.00    +0.000 OA
ATOM     26  N   UNL     1       2.513   6.605  20.363  0.00  0.00    +0.000 N 
ATOM     27  H   UNL     1       2.258   6.607  21.342  0.00  0.00    +0.000 HD
BRANCH  26  28
ATOM     28  C   UNL     1       3.141   5.437  19.875  0.00  0.00    +0.000 A 
ATOM     29  C   UNL     1       4.485   5.404  19.515  0.00  0.00    +0.000 A 
ATOM     30  C   UNL     1       5.055   4.264  18.960  0.00  0.00    +0.000 A 
ATOM     31  C   UNL     1       4.280   3.119  18.795  0.00  0.00    +0.000 A 
ATOM     32  C   UNL     1       2.934   3.122  19.178  0.00  0.00    +0.000 A 
ATOM     33  C   UNL     1       2.366   4.274  19.730  0.00  0.00    +0.000 A 
BRANCH  30  34
ATOM     34  O   UNL     1       6.381   4.379  18.645  0.00  0.00    +0.000 OA
ATOM     35  C   UNL     1       6.670   4.543  17.264  0.00  0.00    +0.000 C 
ENDBRANCH  30  34
BRANCH  32  36
ATOM     36  O   UNL     1       2.281   1.942  18.941  0.00  0.00    +0.000 OA
ATOM     37  C   UNL     1       0.883   2.014  18.687  0.00  0.00    +0.000 C 
ENDBRANCH  32  36
ENDBRANCH  26  28
ENDBRANCH   5  24
TORSDOF 9
ENDMDL
MODEL 6
REMARK VINA RESULT:      -8.2      0.304      2.164
REMARK  Name = 
REMARK  13 active torsions:
REMARK  status: ('A' for Active; 'I' for Inactive)
REMARK    1  A    between atoms: C_1  and  C_2
REMARK    2  A    between atoms: C_2  and  O_3
REMARK    3  A    between atoms: O_3  and  C_4
REMARK    4  A    between atoms: C_4  and  C_6
REMARK    5  A    between atoms: C_8  and  C_9
REMARK    6  A    between atoms: N_15  and  C_16
REMARK    7  A    between atoms: C_20  and  C_21
REMARK    8  A    between atoms: N_23  and  C_24
REMARK    9  A    between atoms: C_26  and  O_27
REMARK   10  A    between atoms: O_27  and  C_28
REMARK   11  A    between atoms: C_30  and  O_31
REMARK   12  A    between atoms: O_31  and  C_32
REMARK   13  A    between atoms: C_35  and  C_36
REMARK                            x       y       z     vdW  Elec       q    Type
REMARK                         _______ _______ _______ _____ _____    ______ ____
ROOT
ATOM      1  C   UNL     1       0.383  10.973  20.498  0.00  0.00    +0.000 A 
ATOM      2  C   UNL     1      -0.251  10.864  21.743  0.00  0.00    +0.000 A 
ATOM      3  C   UNL     1      -0.147   9.694  22.492  0.00  0.00    +0.000 A 
ATOM      4  C   UNL     1       0.513   8.597  21.958  0.00  0.00    +0.000 A 
ATOM      5  C   UNL     1       1.110   8.674  20.691  0.00  0.00    +0.000 A 
ATOM      6  C   UNL     1       1.084   9.875  19.982  0.00  0.00    +0.000 A 
ENDROOT
BRANCH   1  10
ATOM      7  C   UNL     1       0.833  14.219  18.907  0.00  0.00    +0.000 A 
ATOM      8  C   UNL     1      -0.285  13.709  18.204  0.00  0.00    +0.000 A 
ATOM      9  C   UNL     1      -0.639  12.465  18.710  0.00  0.00    +0.000 A 
ATOM     10  N   UNL     1       0.293  12.181  19.742  0.00  0.00    +0.000 N 
ATOM     11  C   UNL     1       1.147  13.272  19.880  0.00  0.00    +0.000 A 
ATOM     12  C   UNL     1       2.289  13.387  20.850  0.00  0.00    +0.000 C 
BRANCH   9  13
ATOM     13  C   UNL     1      -1.792  11.635  18.296  0.00  0.00    +0.000 A 
ATOM     14  C   UNL     1      -1.608  10.487  17.508  0.00  0.00    +0.000 A 
ATOM     15  C   UNL     1      -2.683   9.664  17.152  0.00  0.00    +0.000 A 
ATOM     16  C   UNL     1      -3.965   9.953  17.612  0.00  0.00    +0.000 A 
ATOM     17  C   UNL     1      -4.177  11.080  18.393  0.00  0.00    +0.000 A 
ATOM     18  C   UNL     1      -3.113  11.940  18.680  0.00  0.00    +0.000 A 
ENDBRANCH   9  13
BRANCH   7  19
ATOM     19  C   UNL     1       1.532  15.490  18.737  0.00  0.00    +0.000 C 
ATOM     20  O   UNL     1       2.547  15.621  18.059  0.00  0.00    +0.000 OA
BRANCH  19  21
ATOM     21  O   UNL     1       0.993  16.490  19.489  0.00  0.00    +0.000 OA
BRANCH  21  23
ATOM     22  C   UNL     1      -0.174  17.678  17.794  0.00  0.00    +0.000 C 
ATOM     23  C   UNL     1      -0.325  16.870  19.068  0.00  0.00    +0.000 C 
ENDBRANCH  21  23
ENDBRANCH  19  21
ENDBRANCH   7  19
ENDBRANCH   1  10
BRANCH   5  24
ATOM     24  C   UNL     1       1.675   7.428  20.118  0.00  0.00    +0.000 C 
ATOM     25  O   UNL     1       1.645   6.431  20.829  0.00  0.00    +0.000 OA
ATOM     26  N   UNL     1       2.220   7.516  18.846  0.00  0.00    +0.000 N 
ATOM     27  H   UNL     1       2.329   8.433  18.436  0.00  0.00    +0.000 HD
BRANCH  26  28
ATOM     28  C   UNL     1       2.849   6.444  18.174  0.00  0.00    +0.000 A 
ATOM     29  C   UNL     1       2.241   5.202  18.010  0.00  0.00    +0.000 A 
ATOM     30  C   UNL     1       2.916   4.141  17.418  0.00  0.00    +0.000 A 
ATOM     31  C   UNL     1       4.210   4.330  16.943  0.00  0.00    +0.000 A 
ATOM     32  C   UNL     1       4.830   5.578  17.071  0.00  0.00    +0.000 A 
ATOM     33  C   UNL     1       4.147   6.639  17.674  0.00  0.00    +0.000 A 
BRANCH  30  34
ATOM     34  O   UNL     1       2.198   2.979  17.332  0.00  0.00    +0.000 OA
ATOM     35  C   UNL     1       1.383   2.680  18.456  0.00  0.00    +0.000 C 
ENDBRANCH  30  34
BRANCH  32  36
ATOM     36  O   UNL     1       6.110   5.622  16.585  0.00  0.00    +0.000 OA
ATOM     37  C   UNL     1       6.737   4.378  16.299  0.00  0.00    +0.000 C 
ENDBRANCH  32  36
ENDBRANCH  26  28
ENDBRANCH   5  24
TORSDOF 9
ENDMDL
MODEL 7
REMARK VINA RESULT:      -8.1      6.703     11.198
REMARK  Name = 
REMARK  13 active torsions:
REMARK  status: ('A' for Active; 'I' for Inactive)
REMARK    1  A    between atoms: C_1  and  C_2
REMARK    2  A    between atoms: C_2  and  O_3
REMARK    3  A    between atoms: O_3  and  C_4
REMARK    4  A    between atoms: C_4  and  C_6
REMARK    5  A    between atoms: C_8  and  C_9
REMARK    6  A    between atoms: N_15  and  C_16
REMARK    7  A    between atoms: C_20  and  C_21
REMARK    8  A    between atoms: N_23  and  C_24
REMARK    9  A    between atoms: C_26  and  O_27
REMARK   10  A    between atoms: O_27  and  C_28
REMARK   11  A    between atoms: C_30  and  O_31
REMARK   12  A    between atoms: O_31  and  C_32
REMARK   13  A    between atoms: C_35  and  C_36
REMARK                            x       y       z     vdW  Elec       q    Type
REMARK                         _______ _______ _______ _____ _____    ______ ____
ROOT
ATOM      1  C   UNL     1       7.035   5.475  16.940  0.00  0.00    +0.000 A 
ATOM      2  C   UNL     1       7.568   4.693  17.974  0.00  0.00    +0.000 A 
ATOM      3  C   UNL     1       8.161   5.292  19.083  0.00  0.00    +0.000 A 
ATOM      4  C   UNL     1       8.306   6.672  19.119  0.00  0.00    +0.000 A 
ATOM      5  C   UNL     1       7.822   7.465  18.068  0.00  0.00    +0.000 A 
ATOM      6  C   UNL     1       7.147   6.870  17.001  0.00  0.00    +0.000 A 
ENDROOT
BRANCH   1  10
ATOM      7  C   UNL     1       6.142   3.980  13.740  0.00  0.00    +0.000 A 
ATOM      8  C   UNL     1       4.988   3.708  14.514  0.00  0.00    +0.000 A 
ATOM      9  C   UNL     1       5.128   4.251  15.785  0.00  0.00    +0.000 A 
ATOM     10  N   UNL     1       6.410   4.859  15.814  0.00  0.00    +0.000 N 
ATOM     11  C   UNL     1       6.991   4.727  14.554  0.00  0.00    +0.000 A 
ATOM     12  C   UNL     1       8.352   5.220  14.150  0.00  0.00    +0.000 C 
BRANCH   9  13
ATOM     13  C   UNL     1       4.118   4.247  16.866  0.00  0.00    +0.000 A 
ATOM     14  C   UNL     1       3.610   5.451  17.382  0.00  0.00    +0.000 A 
ATOM     15  C   UNL     1       2.618   5.463  18.369  0.00  0.00    +0.000 A 
ATOM     16  C   UNL     1       2.081   4.265  18.834  0.00  0.00    +0.000 A 
ATOM     17  C   UNL     1       2.563   3.060  18.341  0.00  0.00    +0.000 A 
ATOM     18  C   UNL     1       3.608   3.054  17.414  0.00  0.00    +0.000 A 
ENDBRANCH   9  13
BRANCH   7  19
ATOM     19  C   UNL     1       6.431   3.625  12.354  0.00  0.00    +0.000 C 
ATOM     20  O   UNL     1       7.166   4.283  11.623  0.00  0.00    +0.000 OA
BRANCH  19  21
ATOM     21  O   UNL     1       5.722   2.541  11.931  0.00  0.00    +0.000 OA
BRANCH  21  23
ATOM     22  C   UNL     1       6.229   0.298  11.334  0.00  0.00    +0.000 C 
ATOM     23  C   UNL     1       6.415   1.754  10.953  0.00  0.00    +0.000 C 
ENDBRANCH  21  23
ENDBRANCH  19  21
ENDBRANCH   7  19
ENDBRANCH   1  10
BRANCH   5  24
ATOM     24  C   UNL     1       8.133   8.914  18.098  0.00  0.00    +0.000 C 
ATOM     25  O   UNL     1       7.519   9.626  17.312  0.00  0.00    +0.000 OA
ATOM     26  N   UNL     1       9.118   9.326  18.983  0.00  0.00    +0.000 N 
ATOM     27  H   UNL     1       9.661   8.616  19.456  0.00  0.00    +0.000 HD
BRANCH  26  28
ATOM     28  C   UNL     1       9.577  10.657  19.101  0.00  0.00    +0.000 A 
ATOM     29  C   UNL     1       9.366  11.424  20.243  0.00  0.00    +0.000 A 
ATOM     30  C   UNL     1       9.756  12.757  20.299  0.00  0.00    +0.000 A 
ATOM     31  C   UNL     1      10.406  13.328  19.209  0.00  0.00    +0.000 A 
ATOM     32  C   UNL     1      10.654  12.567  18.061  0.00  0.00    +0.000 A 
ATOM     33  C   UNL     1      10.253  11.228  18.010  0.00  0.00    +0.000 A 
BRANCH  30  34
ATOM     34  O   UNL     1       9.477  13.389  21.479  0.00  0.00    +0.000 OA
ATOM     35  C   UNL     1       8.961  12.559  22.510  0.00  0.00    +0.000 C 
ENDBRANCH  30  34
BRANCH  32  36
ATOM     36  O   UNL     1      11.278  13.256  17.054  0.00  0.00    +0.000 OA
ATOM     37  C   UNL     1      11.432  14.659  17.228  0.00  0.00    +0.000 C 
ENDBRANCH  32  36
ENDBRANCH  26  28
ENDBRANCH   5  24
TORSDOF 9
ENDMDL
MODEL 8
REMARK VINA RESULT:      -8.1      1.354      2.583
REMARK  Name = 
REMARK  13 active torsions:
REMARK  status: ('A' for Active; 'I' for Inactive)
REMARK    1  A    between atoms: C_1  and  C_2
REMARK    2  A    between atoms: C_2  and  O_3
REMARK    3  A    between atoms: O_3  and  C_4
REMARK    4  A    between atoms: C_4  and  C_6
REMARK    5  A    between atoms: C_8  and  C_9
REMARK    6  A    between atoms: N_15  and  C_16
REMARK    7  A    between atoms: C_20  and  C_21
REMARK    8  A    between atoms: N_23  and  C_24
REMARK    9  A    between atoms: C_26  and  O_27
REMARK   10  A    between atoms: O_27  and  C_28
REMARK   11  A    between atoms: C_30  and  O_31
REMARK   12  A    between atoms: O_31  and  C_32
REMARK   13  A    between atoms: C_35  and  C_36
REMARK                            x       y       z     vdW  Elec       q    Type
REMARK                         _______ _______ _______ _____ _____    ______ ____
ROOT
ATOM      1  C   UNL     1       0.433  10.979  20.292  0.00  0.00    +0.000 A 
ATOM      2  C   UNL     1      -0.177  10.615  21.500  0.00  0.00    +0.000 A 
ATOM      3  C   UNL     1       0.046   9.358  22.057  0.00  0.00    +0.000 A 
ATOM      4  C   UNL     1       0.804   8.427  21.362  0.00  0.00    +0.000 A 
ATOM      5  C   UNL     1       1.381   8.759  20.128  0.00  0.00    +0.000 A 
ATOM      6  C   UNL     1       1.233  10.049  19.615  0.00  0.00    +0.000 A 
ENDROOT
BRANCH   1  10
ATOM      7  C   UNL     1       0.583  14.445  19.181  0.00  0.00    +0.000 A 
ATOM      8  C   UNL     1      -0.554  13.971  18.485  0.00  0.00    +0.000 A 
ATOM      9  C   UNL     1      -0.800  12.646  18.819  0.00  0.00    +0.000 A 
ATOM     10  N   UNL     1       0.220  12.275  19.733  0.00  0.00    +0.000 N 
ATOM     11  C   UNL     1       1.021  13.389  19.977  0.00  0.00    +0.000 A 
ATOM     12  C   UNL     1       2.224  13.435  20.877  0.00  0.00    +0.000 C 
BRANCH   9  13
ATOM     13  C   UNL     1      -1.934  11.812  18.362  0.00  0.00    +0.000 A 
ATOM     14  C   UNL     1      -1.723  10.711  17.516  0.00  0.00    +0.000 A 
ATOM     15  C   UNL     1      -2.779   9.883  17.117  0.00  0.00    +0.000 A 
ATOM     16  C   UNL     1      -4.067  10.117  17.590  0.00  0.00    +0.000 A 
ATOM     17  C   UNL     1      -4.305  11.196  18.429  0.00  0.00    +0.000 A 
ATOM     18  C   UNL     1      -3.261  12.065  18.761  0.00  0.00    +0.000 A 
ENDBRANCH   9  13
BRANCH   7  19
ATOM     19  C   UNL     1       1.197  15.770  19.158  0.00  0.00    +0.000 C 
ATOM     20  O   UNL     1       1.976  16.142  18.286  0.00  0.00    +0.000 OA
BRANCH  19  21
ATOM     21  O   UNL     1       0.887  16.510  20.260  0.00  0.00    +0.000 OA
BRANCH  21  23
ATOM     22  C   UNL     1      -1.017  16.783  21.654  0.00  0.00    +0.000 C 
ATOM     23  C   UNL     1      -0.463  16.994  20.258  0.00  0.00    +0.000 C 
ENDBRANCH  21  23
ENDBRANCH  19  21
ENDBRANCH   7  19
ENDBRANCH   1  10
BRANCH   5  24
ATOM     24  C   UNL     1       2.059   7.680  19.370  0.00  0.00    +0.000 C 
ATOM     25  O   UNL     1       2.121   7.816  18.154  0.00  0.00    +0.000 OA
ATOM     26  N   UNL     1       2.525   6.598  20.101  0.00  0.00    +0.000 N 
ATOM     27  H   UNL     1       2.263   6.534  21.076  0.00  0.00    +0.000 HD
BRANCH  26  28
ATOM     28  C   UNL     1       3.142   5.460  19.535  0.00  0.00    +0.000 A 
ATOM     29  C   UNL     1       2.419   4.346  19.117  0.00  0.00    +0.000 A 
ATOM     30  C   UNL     1       3.060   3.208  18.640  0.00  0.00    +0.000 A 
ATOM     31  C   UNL     1       4.448   3.193  18.540  0.00  0.00    +0.000 A 
ATOM     32  C   UNL     1       5.192   4.313  18.928  0.00  0.00    +0.000 A 
ATOM     33  C   UNL     1       4.541   5.452  19.412  0.00  0.00    +0.000 A 
BRANCH  30  34
ATOM     34  O   UNL     1       2.225   2.188  18.275  0.00  0.00    +0.000 OA
ATOM     35  C   UNL     1       0.893   2.286  18.759  0.00  0.00    +0.000 C 
ENDBRANCH  30  34
BRANCH  32  36
ATOM     36  O   UNL     1       6.547   4.157  18.802  0.00  0.00    +0.000 OA
ATOM     37  C   UNL     1       7.176   4.816  17.709  0.00  0.00    +0.000 C 
ENDBRANCH  32  36
ENDBRANCH  26  28
ENDBRANCH   5  24
TORSDOF 9
ENDMDL
MODEL 9
REMARK VINA RESULT:      -8.0      0.663      1.164
REMARK  Name = 
REMARK  13 active torsions:
REMARK  status: ('A' for Active; 'I' for Inactive)
REMARK    1  A    between atoms: C_1  and  C_2
REMARK    2  A    between atoms: C_2  and  O_3
REMARK    3  A    between atoms: O_3  and  C_4
REMARK    4  A    between atoms: C_4  and  C_6
REMARK    5  A    between atoms: C_8  and  C_9
REMARK    6  A    between atoms: N_15  and  C_16
REMARK    7  A    between atoms: C_20  and  C_21
REMARK    8  A    between atoms: N_23  and  C_24
REMARK    9  A    between atoms: C_26  and  O_27
REMARK   10  A    between atoms: O_27  and  C_28
REMARK   11  A    between atoms: C_30  and  O_31
REMARK   12  A    between atoms: O_31  and  C_32
REMARK   13  A    between atoms: C_35  and  C_36
REMARK                            x       y       z     vdW  Elec       q    Type
REMARK                         _______ _______ _______ _____ _____    ______ ____
ROOT
ATOM      1  C   UNL     1       0.404  11.097  20.509  0.00  0.00    +0.000 A 
ATOM      2  C   UNL     1      -0.255  11.000  21.742  0.00  0.00    +0.000 A 
ATOM      3  C   UNL     1      -0.166   9.838  22.505  0.00  0.00    +0.000 A 
ATOM      4  C   UNL     1       0.505   8.735  21.995  0.00  0.00    +0.000 A 
ATOM      5  C   UNL     1       1.128   8.800  20.740  0.00  0.00    +0.000 A 
ATOM      6  C   UNL     1       1.116   9.994  20.018  0.00  0.00    +0.000 A 
ENDROOT
BRANCH   1  10
ATOM      7  C   UNL     1       0.891  14.320  18.882  0.00  0.00    +0.000 A 
ATOM      8  C   UNL     1      -0.231  13.814  18.183  0.00  0.00    +0.000 A 
ATOM      9  C   UNL     1      -0.599  12.580  18.702  0.00  0.00    +0.000 A 
ATOM     10  N   UNL     1       0.328  12.297  19.739  0.00  0.00    +0.000 N 
ATOM     11  C   UNL     1       1.194  13.380  19.866  0.00  0.00    +0.000 A 
ATOM     12  C   UNL     1       2.335  13.493  20.837  0.00  0.00    +0.000 C 
BRANCH   9  13
ATOM     13  C   UNL     1      -1.761  11.758  18.296  0.00  0.00    +0.000 A 
ATOM     14  C   UNL     1      -1.588  10.601  17.518  0.00  0.00    +0.000 A 
ATOM     15  C   UNL     1      -2.672   9.786  17.169  0.00  0.00    +0.000 A 
ATOM     16  C   UNL     1      -3.951  10.091  17.627  0.00  0.00    +0.000 A 
ATOM     17  C   UNL     1      -4.151  11.227  18.398  0.00  0.00    +0.000 A 
ATOM     18  C   UNL     1      -3.078  12.079  18.677  0.00  0.00    +0.000 A 
ENDBRANCH   9  13
BRANCH   7  19
ATOM     19  C   UNL     1       1.605  15.580  18.698  0.00  0.00    +0.000 C 
ATOM     20  O   UNL     1       2.650  15.683  18.063  0.00  0.00    +0.000 OA
BRANCH  19  21
ATOM     21  O   UNL     1       1.038  16.609  19.389  0.00  0.00    +0.000 OA
BRANCH  21  23
ATOM     22  C   UNL     1       2.194  17.164  21.388  0.00  0.00    +0.000 C 
ATOM     23  C   UNL     1       1.997  17.528  19.929  0.00  0.00    +0.000 C 
ENDBRANCH  21  23
ENDBRANCH  19  21
ENDBRANCH   7  19
ENDBRANCH   1  10
BRANCH   5  24
ATOM     24  C   UNL     1       1.705   7.550  20.191  0.00  0.00    +0.000 C 
ATOM     25  O   UNL     1       1.663   6.560  20.912  0.00  0.00    +0.000 OA
ATOM     26  N   UNL     1       2.274   7.624  18.929  0.00  0.00    +0.000 N 
ATOM     27  H   UNL     1       2.389   8.537  18.511  0.00  0.00    +0.000 HD
BRANCH  26  28
ATOM     28  C   UNL     1       2.917   6.546  18.280  0.00  0.00    +0.000 A 
ATOM     29  C   UNL     1       4.199   6.650  17.747  0.00  0.00    +0.000 A 
ATOM     30  C   UNL     1       4.773   5.598  17.041  0.00  0.00    +0.000 A 
ATOM     31  C   UNL     1       4.073   4.404  16.897  0.00  0.00    +0.000 A 
ATOM     32  C   UNL     1       2.795   4.269  17.450  0.00  0.00    +0.000 A 
ATOM     33  C   UNL     1       2.221   5.332  18.154  0.00  0.00    +0.000 A 
BRANCH  30  34
ATOM     34  O   UNL     1       6.032   5.845  16.566  0.00  0.00    +0.000 OA
ATOM     35  C   UNL     1       6.990   4.825  16.815  0.00  0.00    +0.000 C 
ENDBRANCH  30  34
BRANCH  32  36
ATOM     36  O   UNL     1       2.208   3.054  17.215  0.00  0.00    +0.000 OA
ATOM     37  C   UNL     1       2.780   1.922  17.859  0.00  0.00    +0.000 C 
ENDBRANCH  32  36
ENDBRANCH  26  28
ENDBRANCH   5  24
TORSDOF 9
ENDMDL
