MODEL 1
REMARK VINA RESULT:      -8.5      0.000      0.000
REMARK  Name = 
REMARK  6 active torsions:
REMARK  status: ('A' for Active; 'I' for Inactive)
REMARK    1  A    between atoms: C_1  and  O_2
REMARK    2  A    between atoms: O_2  and  C_3
REMARK    3  A    between atoms: C_8  and  C_9
REMARK    4  A    between atoms: C_17  and  C_18
REMARK    5  A    between atoms: C_18  and  N_19
REMARK    6  A    between atoms: C_22  and  N_23
REMARK                            x       y       z     vdW  Elec       q    Type
REMARK                         _______ _______ _______ _____ _____    ______ ____
ROOT
ATOM      1  C   UNL     1       2.262   3.446  19.028  0.00  0.00    +0.000 A 
ATOM      2  C   UNL     1       1.767   3.148  20.307  0.00  0.00    +0.000 A 
ATOM      3  C   UNL     1       1.488   4.149  21.240  0.00  0.00    +0.000 A 
ATOM      4  C   UNL     1       1.663   5.450  20.799  0.00  0.00    +0.000 A 
ATOM      5  O   UNL     1       1.270   6.556  21.477  0.00  0.00    +0.000 OA
ATOM      6  C   UNL     1       1.494   7.633  20.665  0.00  0.00    +0.000 A 
ATOM      7  C   UNL     1       2.180   7.219  19.540  0.00  0.00    +0.000 A 
ATOM      8  C   UNL     1       2.219   5.796  19.578  0.00  0.00    +0.000 A 
ATOM      9  C   UNL     1       2.627   4.778  18.679  0.00  0.00    +0.000 A 
ENDROOT
BRANCH   6  10
ATOM     10  C   UNL     1       0.892   8.892  21.089  0.00  0.00    +0.000 A 
ATOM     11  C   UNL     1       0.359   9.042  22.380  0.00  0.00    +0.000 A 
ATOM     12  C   UNL     1      -0.329  10.201  22.742  0.00  0.00    +0.000 A 
ATOM     13  C   UNL     1      -0.495  11.229  21.818  0.00  0.00    +0.000 A 
ATOM     14  C   UNL     1       0.043  11.107  20.539  0.00  0.00    +0.000 A 
ATOM     15  C   UNL     1       0.736   9.948  20.178  0.00  0.00    +0.000 A 
ENDBRANCH   6  10
BRANCH   1  17
ATOM     16  C   UNL     1       3.455   1.477  18.322  0.00  0.00    +0.000 C 
ATOM     17  O   UNL     1       2.459   2.474  18.076  0.00  0.00    +0.000 OA
ENDBRANCH   1  17
BRANCH   9  18
ATOM     18  C   UNL     1       3.308   5.126  17.371  0.00  0.00    +0.000 C 
BRANCH  18  19
ATOM     19  N   UNL     1       4.778   5.339  17.492  0.00  0.00    +0.000 NA
ATOM     20  C   UNL     1       5.520   4.154  17.082  0.00  0.00    +0.000 C 
ATOM     21  C   UNL     1       6.999   4.422  16.788  0.00  0.00    +0.000 C 
ATOM     22  C   UNL     1       7.177   5.449  15.670  0.00  0.00    +0.000 C 
ATOM     23  C   UNL     1       6.539   6.760  16.185  0.00  0.00    +0.000 C 
ATOM     24  C   UNL     1       5.172   6.618  16.883  0.00  0.00    +0.000 C 
BRANCH  22  25
ATOM     25  N   UNL     1       6.859   5.057  14.274  0.00  0.00    +0.000 NA
ATOM     26  C   UNL     1       7.972   5.331  13.355  0.00  0.00    +0.000 C 
ATOM     27  C   UNL     1       7.635   5.108  11.880  0.00  0.00    +0.000 C 
ATOM     28  C   UNL     1       7.038   3.727  11.656  0.00  0.00    +0.000 C 
ATOM     29  C   UNL     1       5.854   3.529  12.591  0.00  0.00    +0.000 C 
ATOM     30  C   UNL     1       6.261   3.737  14.058  0.00  0.00    +0.000 C 
ENDBRANCH  22  25
ENDBRANCH  18  19
ENDBRANCH   9  18
TORSDOF 5
ENDMDL
MODEL 2
REMARK VINA RESULT:      -8.0      0.477      1.004
REMARK  Name = 
REMARK  6 active torsions:
REMARK  status: ('A' for Active; 'I' for Inactive)
REMARK    1  A    between atoms: C_1  and  O_2
REMARK    2  A    between atoms: O_2  and  C_3
REMARK    3  A    between atoms: C_8  and  C_9
REMARK    4  A    between atoms: C_17  and  C_18
REMARK    5  A    between atoms: C_18  and  N_19
REMARK    6  A    between atoms: C_22  and  N_23
REMARK                            x       y       z     vdW  Elec       q    Type
REMARK                         _______ _______ _______ _____ _____    ______ ____
ROOT
ATOM      1  C   UNL     1       2.316   3.074  19.144  0.00  0.00    +0.000 A 
ATOM      2  C   UNL     1       1.843   2.893  20.453  0.00  0.00    +0.000 A 
ATOM      3  C   UNL     1       1.596   3.972  21.303  0.00  0.00    +0.000 A 
ATOM      4  C   UNL     1       1.781   5.229  20.750  0.00  0.00    +0.000 A 
ATOM      5  O   UNL     1       1.416   6.394  21.340  0.00  0.00    +0.000 OA
ATOM      6  C   UNL     1       1.638   7.395  20.434  0.00  0.00    +0.000 A 
ATOM      7  C   UNL     1       2.296   6.877  19.336  0.00  0.00    +0.000 A 
ATOM      8  C   UNL     1       2.317   5.462  19.494  0.00  0.00    +0.000 A 
ATOM      9  C   UNL     1       2.692   4.365  18.677  0.00  0.00    +0.000 A 
ENDROOT
BRANCH   6  10
ATOM     10  C   UNL     1       1.062   8.694  20.762  0.00  0.00    +0.000 A 
ATOM     11  C   UNL     1       0.623   8.985  22.064  0.00  0.00    +0.000 A 
ATOM     12  C   UNL     1      -0.043  10.179  22.347  0.00  0.00    +0.000 A 
ATOM     13  C   UNL     1      -0.280  11.100  21.331  0.00  0.00    +0.000 A 
ATOM     14  C   UNL     1       0.164  10.839  20.037  0.00  0.00    +0.000 A 
ATOM     15  C   UNL     1       0.835   9.646  19.756  0.00  0.00    +0.000 A 
ENDBRANCH   6  10
BRANCH   1  17
ATOM     16  C   UNL     1       3.641   1.197  18.420  0.00  0.00    +0.000 C 
ATOM     17  O   UNL     1       2.480   2.022  18.274  0.00  0.00    +0.000 OA
ENDBRANCH   1  17
BRANCH   9  18
ATOM     18  C   UNL     1       3.351   4.592  17.331  0.00  0.00    +0.000 C 
BRANCH  18  19
ATOM     19  N   UNL     1       4.741   5.120  17.420  0.00  0.00    +0.000 NA
ATOM     20  C   UNL     1       5.724   4.051  17.288  0.00  0.00    +0.000 C 
ATOM     21  C   UNL     1       7.135   4.545  16.959  0.00  0.00    +0.000 C 
ATOM     22  C   UNL     1       7.170   5.326  15.646  0.00  0.00    +0.000 C 
ATOM     23  C   UNL     1       6.260   6.559  15.853  0.00  0.00    +0.000 C 
ATOM     24  C   UNL     1       4.911   6.293  16.550  0.00  0.00    +0.000 C 
BRANCH  22  25
ATOM     25  N   UNL     1       7.014   4.591  14.365  0.00  0.00    +0.000 NA
ATOM     26  C   UNL     1       5.624   4.179  14.129  0.00  0.00    +0.000 C 
ATOM     27  C   UNL     1       5.439   3.272  12.913  0.00  0.00    +0.000 C 
ATOM     28  C   UNL     1       6.073   3.880  11.671  0.00  0.00    +0.000 C 
ATOM     29  C   UNL     1       7.526   4.225  11.961  0.00  0.00    +0.000 C 
ATOM     30  C   UNL     1       7.645   5.162  13.173  0.00  0.00    +0.000 C 
ENDBRANCH  22  25
ENDBRANCH  18  19
ENDBRANCH   9  18
TORSDOF 5
ENDMDL
MODEL 3
REMARK VINA RESULT:      -8.0      1.529      2.302
REMARK  Name = 
REMARK  6 active torsions:
REMARK  status: ('A' for Active; 'I' for Inactive)
REMARK    1  A    between atoms: C_1  and  O_2
REMARK    2  A    between atoms: O_2  and  C_3
REMARK    3  A    between atoms: C_8  and  C_9
REMARK    4  A    between atoms: C_17  and  C_18
REMARK    5  A    between atoms: C_18  and  N_19
REMARK    6  A    between atoms: C_22  and  N_23
REMARK                            x       y       z     vdW  Elec       q    Type
REMARK                         _______ _______ _______ _____ _____    ______ ____
ROOT
ATOM      1  C   UNL     1       2.119   5.186  19.733  0.00  0.00    +0.000 A 
ATOM      2  C   UNL     1       1.563   5.587  20.958  0.00  0.00    +0.000 A 
ATOM      3  C   UNL     1       1.299   6.928  21.243  0.00  0.00    +0.000 A 
ATOM      4  C   UNL     1       1.556   7.824  20.219  0.00  0.00    +0.000 A 
ATOM      5  O   UNL     1       1.193   9.131  20.225  0.00  0.00    +0.000 OA
ATOM      6  C   UNL     1       1.500   9.643  18.995  0.00  0.00    +0.000 A 
ATOM      7  C   UNL     1       2.206   8.702  18.272  0.00  0.00    +0.000 A 
ATOM      8  C   UNL     1       2.173   7.492  19.024  0.00  0.00    +0.000 A 
ATOM      9  C   UNL     1       2.562   6.150  18.784  0.00  0.00    +0.000 A 
ENDROOT
BRANCH   6  10
ATOM     10  C   UNL     1       0.946  10.959  18.694  0.00  0.00    +0.000 A 
ATOM     11  C   UNL     1       1.780  12.078  18.539  0.00  0.00    +0.000 A 
ATOM     12  C   UNL     1       1.243  13.357  18.378  0.00  0.00    +0.000 A 
ATOM     13  C   UNL     1      -0.138  13.534  18.367  0.00  0.00    +0.000 A 
ATOM     14  C   UNL     1      -0.982  12.434  18.499  0.00  0.00    +0.000 A 
ATOM     15  C   UNL     1      -0.443  11.154  18.656  0.00  0.00    +0.000 A 
ENDBRANCH   6  10
BRANCH   1  17
ATOM     16  C   UNL     1       1.289   2.927  19.794  0.00  0.00    +0.000 C 
ATOM     17  O   UNL     1       2.302   3.862  19.412  0.00  0.00    +0.000 OA
ENDBRANCH   1  17
BRANCH   9  18
ATOM     18  C   UNL     1       3.308   5.774  17.519  0.00  0.00    +0.000 C 
BRANCH  18  19
ATOM     19  N   UNL     1       4.783   5.669  17.695  0.00  0.00    +0.000 NA
ATOM     20  C   UNL     1       5.275   4.363  17.274  0.00  0.00    +0.000 C 
ATOM     21  C   UNL     1       6.788   4.319  17.038  0.00  0.00    +0.000 C 
ATOM     22  C   UNL     1       7.221   5.309  15.958  0.00  0.00    +0.000 C 
ATOM     23  C   UNL     1       6.853   6.714  16.490  0.00  0.00    +0.000 C 
ATOM     24  C   UNL     1       5.461   6.849  17.138  0.00  0.00    +0.000 C 
BRANCH  22  25
ATOM     25  N   UNL     1       6.883   5.025  14.540  0.00  0.00    +0.000 NA
ATOM     26  C   UNL     1       7.980   5.373  13.629  0.00  0.00    +0.000 C 
ATOM     27  C   UNL     1       7.620   5.261  12.146  0.00  0.00    +0.000 C 
ATOM     28  C   UNL     1       7.023   3.900  11.827  0.00  0.00    +0.000 C 
ATOM     29  C   UNL     1       5.854   3.627  12.761  0.00  0.00    +0.000 C 
ATOM     30  C   UNL     1       6.283   3.724  14.233  0.00  0.00    +0.000 C 
ENDBRANCH  22  25
ENDBRANCH  18  19
ENDBRANCH   9  18
TORSDOF 5
ENDMDL
MODEL 4
REMARK VINA RESULT:      -7.9      0.593      1.060
REMARK  Name = 
REMARK  6 active torsions:
REMARK  status: ('A' for Active; 'I' for Inactive)
REMARK    1  A    between atoms: C_1  and  O_2
REMARK    2  A    between atoms: O_2  and  C_3
REMARK    3  A    between atoms: C_8  and  C_9
REMARK    4  A    between atoms: C_17  and  C_18
REMARK    5  A    between atoms: C_18  and  N_19
REMARK    6  A    between atoms: C_22  and  N_23
REMARK                            x       y       z     vdW  Elec       q    Type
REMARK                         _______ _______ _______ _____ _____    ______ ____
ROOT
ATOM      1  C   UNL     1       2.542   4.137  18.876  0.00  0.00    +0.000 A 
ATOM      2  C   UNL     1       1.943   3.657  20.052  0.00  0.00    +0.000 A 
ATOM      3  C   UNL     1       1.477   4.520  21.046  0.00  0.00    +0.000 A 
ATOM      4  C   UNL     1       1.582   5.872  20.768  0.00  0.00    +0.000 A 
ATOM      5  O   UNL     1       1.021   6.860  21.508  0.00  0.00    +0.000 OA
ATOM      6  C   UNL     1       1.233   8.037  20.845  0.00  0.00    +0.000 A 
ATOM      7  C   UNL     1       2.069   7.809  19.769  0.00  0.00    +0.000 A 
ATOM      8  C   UNL     1       2.231   6.398  19.662  0.00  0.00    +0.000 A 
ATOM      9  C   UNL     1       2.821   5.524  18.714  0.00  0.00    +0.000 A 
ENDROOT
BRANCH   6  10
ATOM     10  C   UNL     1       0.479   9.189  21.327  0.00  0.00    +0.000 A 
ATOM     11  C   UNL     1       0.392  10.367  20.568  0.00  0.00    +0.000 A 
ATOM     12  C   UNL     1      -0.220  11.510  21.085  0.00  0.00    +0.000 A 
ATOM     13  C   UNL     1      -0.757  11.491  22.369  0.00  0.00    +0.000 A 
ATOM     14  C   UNL     1      -0.698  10.326  23.130  0.00  0.00    +0.000 A 
ATOM     15  C   UNL     1      -0.089   9.181  22.610  0.00  0.00    +0.000 A 
ENDBRANCH   6  10
BRANCH   1  17
ATOM     16  C   UNL     1       2.464   1.944  17.885  0.00  0.00    +0.000 C 
ATOM     17  O   UNL     1       2.925   3.299  17.856  0.00  0.00    +0.000 OA
ENDBRANCH   1  17
BRANCH   9  18
ATOM     18  C   UNL     1       3.604   6.072  17.537  0.00  0.00    +0.000 C 
BRANCH  18  19
ATOM     19  N   UNL     1       5.079   5.901  17.659  0.00  0.00    +0.000 NA
ATOM     20  C   UNL     1       5.491   4.558  17.270  0.00  0.00    +0.000 C 
ATOM     21  C   UNL     1       6.988   4.432  16.976  0.00  0.00    +0.000 C 
ATOM     22  C   UNL     1       7.423   5.361  15.843  0.00  0.00    +0.000 C 
ATOM     23  C   UNL     1       7.144   6.800  16.335  0.00  0.00    +0.000 C 
ATOM     24  C   UNL     1       5.788   7.026  17.032  0.00  0.00    +0.000 C 
BRANCH  22  25
ATOM     25  N   UNL     1       7.014   5.042  14.452  0.00  0.00    +0.000 NA
ATOM     26  C   UNL     1       8.074   5.344  13.480  0.00  0.00    +0.000 C 
ATOM     27  C   UNL     1       7.643   5.197  12.020  0.00  0.00    +0.000 C 
ATOM     28  C   UNL     1       7.008   3.839  11.768  0.00  0.00    +0.000 C 
ATOM     29  C   UNL     1       5.880   3.614  12.764  0.00  0.00    +0.000 C 
ATOM     30  C   UNL     1       6.379   3.745  14.211  0.00  0.00    +0.000 C 
ENDBRANCH  22  25
ENDBRANCH  18  19
ENDBRANCH   9  18
TORSDOF 5
ENDMDL
MODEL 5
REMARK VINA RESULT:      -7.9      4.440      9.686
REMARK  Name = 
REMARK  6 active torsions:
REMARK  status: ('A' for Active; 'I' for Inactive)
REMARK    1  A    between atoms: C_1  and  O_2
REMARK    2  A    between atoms: O_2  and  C_3
REMARK    3  A    between atoms: C_8  and  C_9
REMARK    4  A    between atoms: C_17  and  C_18
REMARK    5  A    between atoms: C_18  and  N_19
REMARK    6  A    between atoms: C_22  and  N_23
REMARK                            x       y       z     vdW  Elec       q    Type
REMARK                         _______ _______ _______ _____ _____    ______ ____
ROOT
ATOM      1  C   UNL     1       0.395  10.431  21.568  0.00  0.00    +0.000 A 
ATOM      2  C   UNL     1       0.319   9.212  22.260  0.00  0.00    +0.000 A 
ATOM      3  C   UNL     1       0.739   8.011  21.685  0.00  0.00    +0.000 A 
ATOM      4  C   UNL     1       1.296   8.111  20.421  0.00  0.00    +0.000 A 
ATOM      5  O   UNL     1       1.933   7.103  19.775  0.00  0.00    +0.000 OA
ATOM      6  C   UNL     1       2.454   7.623  18.623  0.00  0.00    +0.000 A 
ATOM      7  C   UNL     1       2.006   8.920  18.466  0.00  0.00    +0.000 A 
ATOM      8  C   UNL     1       1.326   9.272  19.666  0.00  0.00    +0.000 A 
ATOM      9  C   UNL     1       0.780  10.468  20.197  0.00  0.00    +0.000 A 
ENDROOT
BRANCH   6  10
ATOM     10  C   UNL     1       3.408   6.778  17.913  0.00  0.00    +0.000 A 
ATOM     11  C   UNL     1       4.343   7.331  17.022  0.00  0.00    +0.000 A 
ATOM     12  C   UNL     1       5.167   6.512  16.248  0.00  0.00    +0.000 A 
ATOM     13  C   UNL     1       5.070   5.127  16.355  0.00  0.00    +0.000 A 
ATOM     14  C   UNL     1       4.162   4.561  17.246  0.00  0.00    +0.000 A 
ATOM     15  C   UNL     1       3.340   5.381  18.024  0.00  0.00    +0.000 A 
ENDBRANCH   6  10
BRANCH   1  17
ATOM     16  C   UNL     1      -1.164  11.706  22.889  0.00  0.00    +0.000 C 
ATOM     17  O   UNL     1       0.064  11.628  22.157  0.00  0.00    +0.000 OA
ENDBRANCH   1  17
BRANCH   9  18
ATOM     18  C   UNL     1       0.729  11.733  19.364  0.00  0.00    +0.000 C 
BRANCH  18  19
ATOM     19  N   UNL     1       1.981  12.538  19.409  0.00  0.00    +0.000 NA
ATOM     20  C   UNL     1       2.356  13.009  18.081  0.00  0.00    +0.000 C 
ATOM     21  C   UNL     1       3.370  14.157  18.095  0.00  0.00    +0.000 C 
ATOM     22  C   UNL     1       2.835  15.374  18.849  0.00  0.00    +0.000 C 
ATOM     23  C   UNL     1       2.604  14.912  20.306  0.00  0.00    +0.000 C 
ATOM     24  C   UNL     1       1.919  13.543  20.481  0.00  0.00    +0.000 C 
BRANCH  22  25
ATOM     25  N   UNL     1       1.759  16.190  18.230  0.00  0.00    +0.000 NA
ATOM     26  C   UNL     1       0.624  16.390  19.141  0.00  0.00    +0.000 C 
ATOM     27  C   UNL     1      -0.581  17.075  18.495  0.00  0.00    +0.000 C 
ATOM     28  C   UNL     1      -0.174  18.364  17.799  0.00  0.00    +0.000 C 
ATOM     29  C   UNL     1       0.960  18.078  16.826  0.00  0.00    +0.000 C 
ATOM     30  C   UNL     1       2.152  17.419  17.538  0.00  0.00    +0.000 C 
ENDBRANCH  22  25
ENDBRANCH  18  19
ENDBRANCH   9  18
TORSDOF 5
ENDMDL
MODEL 6
REMARK VINA RESULT:      -7.7      4.554      9.685
REMARK  Name = 
REMARK  6 active torsions:
REMARK  status: ('A' for Active; 'I' for Inactive)
REMARK    1  A    between atoms: C_1  and  O_2
REMARK    2  A    between atoms: O_2  and  C_3
REMARK    3  A    between atoms: C_8  and  C_9
REMARK    4  A    between atoms: C_17  and  C_18
REMARK    5  A    between atoms: C_18  and  N_19
REMARK    6  A    between atoms: C_22  and  N_23
REMARK                            x       y       z     vdW  Elec       q    Type
REMARK                         _______ _______ _______ _____ _____    ______ ____
ROOT
ATOM      1  C   UNL     1       0.208  10.922  21.711  0.00  0.00    +0.000 A 
ATOM      2  C   UNL     1       0.078   9.722  22.427  0.00  0.00    +0.000 A 
ATOM      3  C   UNL     1       0.417   8.489  21.866  0.00  0.00    +0.000 A 
ATOM      4  C   UNL     1       0.950   8.535  20.588  0.00  0.00    +0.000 A 
ATOM      5  O   UNL     1       1.514   7.481  19.947  0.00  0.00    +0.000 OA
ATOM      6  C   UNL     1       2.038   7.951  18.775  0.00  0.00    +0.000 A 
ATOM      7  C   UNL     1       1.661   9.268  18.603  0.00  0.00    +0.000 A 
ATOM      8  C   UNL     1       1.029   9.679  19.812  0.00  0.00    +0.000 A 
ATOM      9  C   UNL     1       0.564  10.914  20.332  0.00  0.00    +0.000 A 
ENDROOT
BRANCH   6  10
ATOM     10  C   UNL     1       2.926   7.040  18.060  0.00  0.00    +0.000 A 
ATOM     11  C   UNL     1       2.767   5.648  18.158  0.00  0.00    +0.000 A 
ATOM     12  C   UNL     1       3.693   4.778  17.578  0.00  0.00    +0.000 A 
ATOM     13  C   UNL     1       4.791   5.288  16.890  0.00  0.00    +0.000 A 
ATOM     14  C   UNL     1       4.955   6.666  16.766  0.00  0.00    +0.000 A 
ATOM     15  C   UNL     1       4.026   7.536  17.343  0.00  0.00    +0.000 A 
ENDBRANCH   6  10
BRANCH   1  17
ATOM     16  C   UNL     1      -1.292  12.339  22.953  0.00  0.00    +0.000 C 
ATOM     17  O   UNL     1      -0.041  12.146  22.284  0.00  0.00    +0.000 OA
ENDBRANCH   1  17
BRANCH   9  18
ATOM     18  C   UNL     1       0.566  12.165  19.477  0.00  0.00    +0.000 C 
BRANCH  18  19
ATOM     19  N   UNL     1       1.893  12.836  19.389  0.00  0.00    +0.000 NA
ATOM     20  C   UNL     1       2.111  13.406  18.066  0.00  0.00    +0.000 C 
ATOM     21  C   UNL     1       3.238  14.443  18.018  0.00  0.00    +0.000 C 
ATOM     22  C   UNL     1       2.965  15.620  18.954  0.00  0.00    +0.000 C 
ATOM     23  C   UNL     1       2.908  15.030  20.382  0.00  0.00    +0.000 C 
ATOM     24  C   UNL     1       2.107  13.722  20.543  0.00  0.00    +0.000 C 
BRANCH  22  25
ATOM     25  N   UNL     1       1.906  16.596  18.594  0.00  0.00    +0.000 NA
ATOM     26  C   UNL     1       2.149  17.220  17.286  0.00  0.00    +0.000 C 
ATOM     27  C   UNL     1       1.183  18.356  16.947  0.00  0.00    +0.000 C 
ATOM     28  C   UNL     1      -0.263  17.916  17.109  0.00  0.00    +0.000 C 
ATOM     29  C   UNL     1      -0.464  17.338  18.502  0.00  0.00    +0.000 C 
ATOM     30  C   UNL     1       0.512  16.183  18.773  0.00  0.00    +0.000 C 
ENDBRANCH  22  25
ENDBRANCH  18  19
ENDBRANCH   9  18
TORSDOF 5
ENDMDL
MODEL 7
REMARK VINA RESULT:      -7.5      4.220     10.148
REMARK  Name = 
REMARK  6 active torsions:
REMARK  status: ('A' for Active; 'I' for Inactive)
REMARK    1  A    between atoms: C_1  and  O_2
REMARK    2  A    between atoms: O_2  and  C_3
REMARK    3  A    between atoms: C_8  and  C_9
REMARK    4  A    between atoms: C_17  and  C_18
REMARK    5  A    between atoms: C_18  and  N_19
REMARK    6  A    between atoms: C_22  and  N_23
REMARK                            x       y       z     vdW  Elec       q    Type
REMARK                         _______ _______ _______ _____ _____    ______ ____
ROOT
ATOM      1  C   UNL     1       0.199  10.702  21.220  0.00  0.00    +0.000 A 
ATOM      2  C   UNL     1       0.590   9.761  22.186  0.00  0.00    +0.000 A 
ATOM      3  C   UNL     1       1.196   8.554  21.835  0.00  0.00    +0.000 A 
ATOM      4  C   UNL     1       1.449   8.376  20.485  0.00  0.00    +0.000 A 
ATOM      5  O   UNL     1       2.193   7.371  19.963  0.00  0.00    +0.000 OA
ATOM      6  C   UNL     1       2.321   7.612  18.623  0.00  0.00    +0.000 A 
ATOM      7  C   UNL     1       1.520   8.681  18.275  0.00  0.00    +0.000 A 
ATOM      8  C   UNL     1       1.017   9.235  19.487  0.00  0.00    +0.000 A 
ATOM      9  C   UNL     1       0.285  10.399  19.831  0.00  0.00    +0.000 A 
ENDROOT
BRANCH   6  10
ATOM     10  C   UNL     1       3.309   6.803  17.918  0.00  0.00    +0.000 A 
ATOM     11  C   UNL     1       4.300   7.400  17.122  0.00  0.00    +0.000 A 
ATOM     12  C   UNL     1       5.163   6.623  16.348  0.00  0.00    +0.000 A 
ATOM     13  C   UNL     1       5.049   5.235  16.359  0.00  0.00    +0.000 A 
ATOM     14  C   UNL     1       4.085   4.623  17.156  0.00  0.00    +0.000 A 
ATOM     15  C   UNL     1       3.224   5.402  17.935  0.00  0.00    +0.000 A 
ENDBRANCH   6  10
BRANCH   1  17
ATOM     16  C   UNL     1      -1.424  11.967  22.471  0.00  0.00    +0.000 C 
ATOM     17  O   UNL     1      -0.320  11.929  21.562  0.00  0.00    +0.000 OA
ENDBRANCH   1  17
BRANCH   9  18
ATOM     18  C   UNL     1      -0.266  11.315  18.756  0.00  0.00    +0.000 C 
BRANCH  18  19
ATOM     19  N   UNL     1      -1.225  10.652  17.829  0.00  0.00    +0.000 NA
ATOM     20  C   UNL     1      -2.186   9.834  18.558  0.00  0.00    +0.000 C 
ATOM     21  C   UNL     1      -3.426   9.461  17.739  0.00  0.00    +0.000 C 
ATOM     22  C   UNL     1      -4.186  10.700  17.267  0.00  0.00    +0.000 C 
ATOM     23  C   UNL     1      -3.214  11.477  16.349  0.00  0.00    +0.000 C 
ATOM     24  C   UNL     1      -1.766  11.616  16.860  0.00  0.00    +0.000 C 
BRANCH  22  25
ATOM     25  N   UNL     1      -4.949  11.500  18.259  0.00  0.00    +0.000 NA
ATOM     26  C   UNL     1      -6.121  10.777  18.769  0.00  0.00    +0.000 C 
ATOM     27  C   UNL     1      -7.035  11.619  19.660  0.00  0.00    +0.000 C 
ATOM     28  C   UNL     1      -6.249  12.290  20.775  0.00  0.00    +0.000 C 
ATOM     29  C   UNL     1      -5.089  13.072  20.178  0.00  0.00    +0.000 C 
ATOM     30  C   UNL     1      -4.191  12.168  19.319  0.00  0.00    +0.000 C 
ENDBRANCH  22  25
ENDBRANCH  18  19
ENDBRANCH   9  18
TORSDOF 5
ENDMDL
MODEL 8
REMARK VINA RESULT:      -7.5      5.659     10.098
REMARK  Name = 
REMARK  6 active torsions:
REMARK  status: ('A' for Active; 'I' for Inactive)
REMARK    1  A    between atoms: C_1  and  O_2
REMARK    2  A    between atoms: O_2  and  C_3
REMARK    3  A    between atoms: C_8  and  C_9
REMARK    4  A    between atoms: C_17  and  C_18
REMARK    5  A    between atoms: C_18  and  N_19
REMARK    6  A    between atoms: C_22  and  N_23
REMARK                            x       y       z     vdW  Elec       q    Type
REMARK                         _______ _______ _______ _____ _____    ______ ____
ROOT
ATOM      1  C   UNL     1       0.941   9.375  20.662  0.00  0.00    +0.000 A 
ATOM      2  C   UNL     1       0.954   8.955  22.002  0.00  0.00    +0.000 A 
ATOM      3  C   UNL     1       0.150   9.560  22.971  0.00  0.00    +0.000 A 
ATOM      4  C   UNL     1      -0.706  10.548  22.513  0.00  0.00    +0.000 A 
ATOM      5  O   UNL     1      -1.692  11.119  23.248  0.00  0.00    +0.000 OA
ATOM      6  C   UNL     1      -2.396  11.943  22.414  0.00  0.00    +0.000 A 
ATOM      7  C   UNL     1      -1.751  12.015  21.195  0.00  0.00    +0.000 A 
ATOM      8  C   UNL     1      -0.704  11.050  21.222  0.00  0.00    +0.000 A 
ATOM      9  C   UNL     1       0.204  10.527  20.266  0.00  0.00    +0.000 A 
ENDROOT
BRANCH   6  10
ATOM     10  C   UNL     1      -3.663  12.446  22.931  0.00  0.00    +0.000 A 
ATOM     11  C   UNL     1      -3.968  12.372  24.300  0.00  0.00    +0.000 A 
ATOM     12  C   UNL     1      -5.230  12.735  24.775  0.00  0.00    +0.000 A 
ATOM     13  C   UNL     1      -6.205  13.181  23.888  0.00  0.00    +0.000 A 
ATOM     14  C   UNL     1      -5.916  13.281  22.529  0.00  0.00    +0.000 A 
ATOM     15  C   UNL     1      -4.651  12.920  22.055  0.00  0.00    +0.000 A 
ENDBRANCH   6  10
BRANCH   1  17
ATOM     16  C   UNL     1       2.087   7.385  19.937  0.00  0.00    +0.000 C 
ATOM     17  O   UNL     1       1.664   8.729  19.688  0.00  0.00    +0.000 OA
ENDBRANCH   1  17
BRANCH   9  18
ATOM     18  C   UNL     1       0.281  11.110  18.870  0.00  0.00    +0.000 C 
BRANCH  18  19
ATOM     19  N   UNL     1       0.914  12.457  18.810  0.00  0.00    +0.000 NA
ATOM     20  C   UNL     1      -0.061  13.486  18.472  0.00  0.00    +0.000 C 
ATOM     21  C   UNL     1       0.406  14.910  18.789  0.00  0.00    +0.000 C 
ATOM     22  C   UNL     1       0.717  15.085  20.275  0.00  0.00    +0.000 C 
ATOM     23  C   UNL     1       1.877  14.111  20.590  0.00  0.00    +0.000 C 
ATOM     24  C   UNL     1       1.750  12.694  19.997  0.00  0.00    +0.000 C 
BRANCH  22  25
ATOM     25  N   UNL     1      -0.405  15.121  21.248  0.00  0.00    +0.000 NA
ATOM     26  C   UNL     1       0.068  15.111  22.639  0.00  0.00    +0.000 C 
ATOM     27  C   UNL     1      -1.047  14.973  23.676  0.00  0.00    +0.000 C 
ATOM     28  C   UNL     1      -2.138  16.008  23.452  0.00  0.00    +0.000 C 
ATOM     29  C   UNL     1      -2.628  15.924  22.013  0.00  0.00    +0.000 C 
ATOM     30  C   UNL     1      -1.470  16.100  21.019  0.00  0.00    +0.000 C 
ENDBRANCH  22  25
ENDBRANCH  18  19
ENDBRANCH   9  18
TORSDOF 5
ENDMDL
MODEL 9
REMARK VINA RESULT:      -7.4      0.615      1.426
REMARK  Name = 
REMARK  6 active torsions:
REMARK  status: ('A' for Active; 'I' for Inactive)
REMARK    1  A    between atoms: C_1  and  O_2
REMARK    2  A    between atoms: O_2  and  C_3
REMARK    3  A    between atoms: C_8  and  C_9
REMARK    4  A    between atoms: C_17  and  C_18
REMARK    5  A    between atoms: C_18  and  N_19
REMARK    6  A    between atoms: C_22  and  N_23
REMARK                            x       y       z     vdW  Elec       q    Type
REMARK                         _______ _______ _______ _____ _____    ______ ____
ROOT
ATOM      1  C   UNL     1       2.286   3.421  19.255  0.00  0.00    +0.000 A 
ATOM      2  C   UNL     1       1.804   3.376  20.572  0.00  0.00    +0.000 A 
ATOM      3  C   UNL     1       1.574   4.537  21.312  0.00  0.00    +0.000 A 
ATOM      4  C   UNL     1       1.785   5.730  20.643  0.00  0.00    +0.000 A 
ATOM      5  O   UNL     1       1.441   6.954  21.114  0.00  0.00    +0.000 OA
ATOM      6  C   UNL     1       1.686   7.858  20.118  0.00  0.00    +0.000 A 
ATOM      7  C   UNL     1       2.339   7.225  19.079  0.00  0.00    +0.000 A 
ATOM      8  C   UNL     1       2.331   5.831  19.373  0.00  0.00    +0.000 A 
ATOM      9  C   UNL     1       2.689   4.654  18.668  0.00  0.00    +0.000 A 
ENDROOT
BRANCH   6  10
ATOM     10  C   UNL     1       1.134   9.194  20.315  0.00  0.00    +0.000 A 
ATOM     11  C   UNL     1       1.235  10.174  19.314  0.00  0.00    +0.000 A 
ATOM     12  C   UNL     1       0.821  11.486  19.551  0.00  0.00    +0.000 A 
ATOM     13  C   UNL     1       0.299  11.838  20.793  0.00  0.00    +0.000 A 
ATOM     14  C   UNL     1       0.173  10.875  21.792  0.00  0.00    +0.000 A 
ATOM     15  C   UNL     1       0.583   9.561  21.553  0.00  0.00    +0.000 A 
ENDBRANCH   6  10
BRANCH   1  17
ATOM     16  C   UNL     1       3.587   1.469  18.710  0.00  0.00    +0.000 C 
ATOM     17  O   UNL     1       2.433   2.287  18.491  0.00  0.00    +0.000 OA
ENDBRANCH   1  17
BRANCH   9  18
ATOM     18  C   UNL     1       3.359   4.737  17.311  0.00  0.00    +0.000 C 
BRANCH  18  19
ATOM     19  N   UNL     1       4.769   5.215  17.360  0.00  0.00    +0.000 NA
ATOM     20  C   UNL     1       5.709   4.108  17.237  0.00  0.00    +0.000 C 
ATOM     21  C   UNL     1       7.131   4.542  16.870  0.00  0.00    +0.000 C 
ATOM     22  C   UNL     1       7.168   5.289  15.537  0.00  0.00    +0.000 C 
ATOM     23  C   UNL     1       6.307   6.559  15.731  0.00  0.00    +0.000 C 
ATOM     24  C   UNL     1       4.963   6.361  16.459  0.00  0.00    +0.000 C 
BRANCH  22  25
ATOM     25  N   UNL     1       6.960   4.530  14.278  0.00  0.00    +0.000 NA
ATOM     26  C   UNL     1       5.559   4.126  14.100  0.00  0.00    +0.000 C 
ATOM     27  C   UNL     1       5.324   3.195  12.910  0.00  0.00    +0.000 C 
ATOM     28  C   UNL     1       5.917   3.773  11.635  0.00  0.00    +0.000 C 
ATOM     29  C   UNL     1       7.383   4.111  11.866  0.00  0.00    +0.000 C 
ATOM     30  C   UNL     1       7.553   5.071  13.053  0.00  0.00    +0.000 C 
ENDBRANCH  22  25
ENDBRANCH  18  19
ENDBRANCH   9  18
TORSDOF 5
ENDMDL
