MODEL 1
REMARK VINA RESULT:      -7.1      0.000      0.000
REMARK  Name = 
REMARK  7 active torsions:
REMARK  status: ('A' for Active; 'I' for Inactive)
REMARK    1  A    between atoms: C_1  and  O_2
REMARK    2  A    between atoms: O_2  and  C_3
REMARK    3  A    between atoms: C_3  and  C_5
REMARK    4  A    between atoms: C_6  and  C_7
REMARK    5  A    between atoms: N_8  and  C_9
REMARK    6  A    between atoms: C_9  and  C_10
REMARK    7  A    between atoms: C_10  and  C_11
REMARK                            x       y       z     vdW  Elec       q    Type
REMARK                         _______ _______ _______ _____ _____    ______ ____
ROOT
ATOM      1  C   UNL     1       6.245   4.938  15.998  0.00  0.00    +0.000 C 
ATOM      2  C   UNL     1       5.360   5.886  16.340  0.00  0.00    +0.000 C 
ATOM      3  C   UNL     1       4.748   6.952  15.490  0.00  0.00    +0.000 C 
ATOM      4  N   UNL     1       5.024   5.738  17.675  0.00  0.00    +0.000 N 
ATOM      5  C   UNL     1       5.651   4.614  18.217  0.00  0.00    +0.000 C 
ATOM      6  O   UNL     1       5.524   4.155  19.340  0.00  0.00    +0.000 OA
ATOM      7  C   UNL     1       6.541   4.019  17.143  0.00  0.00    +0.000 C 
ENDROOT
BRANCH   1   8
ATOM      8  C   UNL     1       6.881   4.774  14.683  0.00  0.00    +0.000 C 
ATOM      9  O   UNL     1       7.813   5.448  14.274  0.00  0.00    +0.000 OA
BRANCH   8  11
ATOM     10  C   UNL     1       6.532   3.789  12.601  0.00  0.00    +0.000 C 
ATOM     11  O   UNL     1       6.285   3.762  14.008  0.00  0.00    +0.000 OA
ENDBRANCH   8  11
ENDBRANCH   1   8
BRANCH   4  12
ATOM     12  C   UNL     1       3.983   6.512  18.348  0.00  0.00    +0.000 C 
BRANCH  12  13
ATOM     13  C   UNL     1       2.533   6.123  18.026  0.00  0.00    +0.000 C 
BRANCH  13  14
ATOM     14  C   UNL     1       2.066   4.911  18.815  0.00  0.00    +0.000 C 
ATOM     15  C   UNL     1       1.921   4.952  20.154  0.00  0.00    +0.000 C 
ATOM     16  C   UNL     1       1.488   3.779  20.987  0.00  0.00    +0.000 C 
ATOM     17  C   UNL     1       1.556   2.452  20.231  0.00  0.00    +0.000 C 
ATOM     18  C   UNL     1       0.985   2.599  18.825  0.00  0.00    +0.000 C 
ATOM     19  C   UNL     1       1.750   3.657  18.029  0.00  0.00    +0.000 C 
ENDBRANCH  13  14
ENDBRANCH  12  13
ENDBRANCH   4  12
TORSDOF 5
ENDMDL
MODEL 2
REMARK VINA RESULT:      -7.0      0.416      1.216
REMARK  Name = 
REMARK  7 active torsions:
REMARK  status: ('A' for Active; 'I' for Inactive)
REMARK    1  A    between atoms: C_1  and  O_2
REMARK    2  A    between atoms: O_2  and  C_3
REMARK    3  A    between atoms: C_3  and  C_5
REMARK    4  A    between atoms: C_6  and  C_7
REMARK    5  A    between atoms: N_8  and  C_9
REMARK    6  A    between atoms: C_9  and  C_10
REMARK    7  A    between atoms: C_10  and  C_11
REMARK                            x       y       z     vdW  Elec       q    Type
REMARK                         _______ _______ _______ _____ _____    ______ ____
ROOT
ATOM      1  C   UNL     1       6.359   5.015  16.123  0.00  0.00    +0.000 C 
ATOM      2  C   UNL     1       5.396   5.913  16.380  0.00  0.00    +0.000 C 
ATOM      3  C   UNL     1       4.731   6.873  15.448  0.00  0.00    +0.000 C 
ATOM      4  N   UNL     1       5.033   5.825  17.713  0.00  0.00    +0.000 N 
ATOM      5  C   UNL     1       5.726   4.788  18.344  0.00  0.00    +0.000 C 
ATOM      6  O   UNL     1       5.600   4.393  19.491  0.00  0.00    +0.000 OA
ATOM      7  C   UNL     1       6.688   4.195  17.332  0.00  0.00    +0.000 C 
ENDROOT
BRANCH   1   8
ATOM      8  C   UNL     1       7.044   4.817  14.838  0.00  0.00    +0.000 C 
ATOM      9  O   UNL     1       7.874   5.579  14.370  0.00  0.00    +0.000 OA
BRANCH   8  11
ATOM     10  C   UNL     1       6.086   3.838  12.952  0.00  0.00    +0.000 C 
ATOM     11  O   UNL     1       6.622   3.664  14.266  0.00  0.00    +0.000 OA
ENDBRANCH   8  11
ENDBRANCH   1   8
BRANCH   4  12
ATOM     12  C   UNL     1       3.918   6.558  18.309  0.00  0.00    +0.000 C 
BRANCH  12  13
ATOM     13  C   UNL     1       2.515   5.998  18.036  0.00  0.00    +0.000 C 
BRANCH  13  14
ATOM     14  C   UNL     1       2.146   4.864  18.978  0.00  0.00    +0.000 C 
ATOM     15  C   UNL     1       1.786   3.651  18.516  0.00  0.00    +0.000 C 
ATOM     16  C   UNL     1       1.388   2.502  19.399  0.00  0.00    +0.000 C 
ATOM     17  C   UNL     1       1.099   2.927  20.838  0.00  0.00    +0.000 C 
ATOM     18  C   UNL     1       2.160   3.899  21.341  0.00  0.00    +0.000 C 
ATOM     19  C   UNL     1       2.220   5.150  20.462  0.00  0.00    +0.000 C 
ENDBRANCH  13  14
ENDBRANCH  12  13
ENDBRANCH   4  12
TORSDOF 5
ENDMDL
MODEL 3
REMARK VINA RESULT:      -6.8      2.032      3.407
REMARK  Name = 
REMARK  7 active torsions:
REMARK  status: ('A' for Active; 'I' for Inactive)
REMARK    1  A    between atoms: C_1  and  O_2
REMARK    2  A    between atoms: O_2  and  C_3
REMARK    3  A    between atoms: C_3  and  C_5
REMARK    4  A    between atoms: C_6  and  C_7
REMARK    5  A    between atoms: N_8  and  C_9
REMARK    6  A    between atoms: C_9  and  C_10
REMARK    7  A    between atoms: C_10  and  C_11
REMARK                            x       y       z     vdW  Elec       q    Type
REMARK                         _______ _______ _______ _____ _____    ______ ____
ROOT
ATOM      1  C   UNL     1       6.836   5.836  17.184  0.00  0.00    +0.000 C 
ATOM      2  C   UNL     1       5.958   5.014  17.776  0.00  0.00    +0.000 C 
ATOM      3  C   UNL     1       5.487   5.004  19.194  0.00  0.00    +0.000 C 
ATOM      4  N   UNL     1       5.470   4.117  16.842  0.00  0.00    +0.000 N 
ATOM      5  C   UNL     1       5.987   4.396  15.575  0.00  0.00    +0.000 C 
ATOM      6  O   UNL     1       5.717   3.850  14.518  0.00  0.00    +0.000 OA
ATOM      7  C   UNL     1       6.966   5.546  15.720  0.00  0.00    +0.000 C 
ENDROOT
BRANCH   1   8
ATOM      8  C   UNL     1       7.608   6.903  17.837  0.00  0.00    +0.000 C 
ATOM      9  O   UNL     1       8.285   6.754  18.842  0.00  0.00    +0.000 OA
BRANCH   8  11
ATOM     10  C   UNL     1       8.072   9.186  17.789  0.00  0.00    +0.000 C 
ATOM     11  O   UNL     1       7.460   8.062  17.152  0.00  0.00    +0.000 OA
ENDBRANCH   8  11
ENDBRANCH   1   8
BRANCH   4  12
ATOM     12  C   UNL     1       4.392   3.165  17.105  0.00  0.00    +0.000 C 
BRANCH  12  13
ATOM     13  C   UNL     1       2.970   3.743  17.137  0.00  0.00    +0.000 C 
BRANCH  13  14
ATOM     14  C   UNL     1       2.363   3.724  18.530  0.00  0.00    +0.000 C 
ATOM     15  C   UNL     1       1.938   4.853  19.131  0.00  0.00    +0.000 C 
ATOM     16  C   UNL     1       1.354   4.898  20.515  0.00  0.00    +0.000 C 
ATOM     17  C   UNL     1       1.600   3.614  21.308  0.00  0.00    +0.000 C 
ATOM     18  C   UNL     1       1.338   2.385  20.445  0.00  0.00    +0.000 C 
ATOM     19  C   UNL     1       2.240   2.378  19.210  0.00  0.00    +0.000 C 
ENDBRANCH  13  14
ENDBRANCH  12  13
ENDBRANCH   4  12
TORSDOF 5
ENDMDL
MODEL 4
REMARK VINA RESULT:      -6.7      1.994      3.248
REMARK  Name = 
REMARK  7 active torsions:
REMARK  status: ('A' for Active; 'I' for Inactive)
REMARK    1  A    between atoms: C_1  and  O_2
REMARK    2  A    between atoms: O_2  and  C_3
REMARK    3  A    between atoms: C_3  and  C_5
REMARK    4  A    between atoms: C_6  and  C_7
REMARK    5  A    between atoms: N_8  and  C_9
REMARK    6  A    between atoms: C_9  and  C_10
REMARK    7  A    between atoms: C_10  and  C_11
REMARK                            x       y       z     vdW  Elec       q    Type
REMARK                         _______ _______ _______ _____ _____    ______ ____
ROOT
ATOM      1  C   UNL     1       5.603   5.803  17.305  0.00  0.00    +0.000 C 
ATOM      2  C   UNL     1       5.164   4.657  16.765  0.00  0.00    +0.000 C 
ATOM      3  C   UNL     1       5.925   3.626  15.998  0.00  0.00    +0.000 C 
ATOM      4  N   UNL     1       3.816   4.506  17.047  0.00  0.00    +0.000 N 
ATOM      5  C   UNL     1       3.364   5.549  17.858  0.00  0.00    +0.000 C 
ATOM      6  O   UNL     1       2.255   5.690  18.347  0.00  0.00    +0.000 OA
ATOM      7  C   UNL     1       4.520   6.510  18.060  0.00  0.00    +0.000 C 
ENDROOT
BRANCH   1   8
ATOM      8  C   UNL     1       6.963   6.350  17.200  0.00  0.00    +0.000 C 
ATOM      9  O   UNL     1       7.585   6.468  16.156  0.00  0.00    +0.000 OA
BRANCH   8  11
ATOM     10  C   UNL     1       7.748   5.599  19.261  0.00  0.00    +0.000 C 
ATOM     11  O   UNL     1       7.410   6.709  18.427  0.00  0.00    +0.000 OA
ENDBRANCH   8  11
ENDBRANCH   1   8
BRANCH   4  12
ATOM     12  C   UNL     1       3.043   3.306  16.731  0.00  0.00    +0.000 C 
BRANCH  12  13
ATOM     13  C   UNL     1       3.201   2.124  17.698  0.00  0.00    +0.000 C 
BRANCH  13  14
ATOM     14  C   UNL     1       2.602   2.405  19.066  0.00  0.00    +0.000 C 
ATOM     15  C   UNL     1       3.369   2.478  20.172  0.00  0.00    +0.000 C 
ATOM     16  C   UNL     1       2.829   2.728  21.552  0.00  0.00    +0.000 C 
ATOM     17  C   UNL     1       1.313   2.551  21.640  0.00  0.00    +0.000 C 
ATOM     18  C   UNL     1       0.619   3.212  20.455  0.00  0.00    +0.000 C 
ATOM     19  C   UNL     1       1.105   2.617  19.132  0.00  0.00    +0.000 C 
ENDBRANCH  13  14
ENDBRANCH  12  13
ENDBRANCH   4  12
TORSDOF 5
ENDMDL
MODEL 5
REMARK VINA RESULT:      -6.6      0.678      1.003
REMARK  Name = 
REMARK  7 active torsions:
REMARK  status: ('A' for Active; 'I' for Inactive)
REMARK    1  A    between atoms: C_1  and  O_2
REMARK    2  A    between atoms: O_2  and  C_3
REMARK    3  A    between atoms: C_3  and  C_5
REMARK    4  A    between atoms: C_6  and  C_7
REMARK    5  A    between atoms: N_8  and  C_9
REMARK    6  A    between atoms: C_9  and  C_10
REMARK    7  A    between atoms: C_10  and  C_11
REMARK                            x       y       z     vdW  Elec       q    Type
REMARK                         _______ _______ _______ _____ _____    ______ ____
ROOT
ATOM      1  C   UNL     1       5.931   4.693  15.636  0.00  0.00    +0.000 C 
ATOM      2  C   UNL     1       5.269   5.758  16.113  0.00  0.00    +0.000 C 
ATOM      3  C   UNL     1       4.912   7.032  15.420  0.00  0.00    +0.000 C 
ATOM      4  N   UNL     1       4.893   5.513  17.423  0.00  0.00    +0.000 N 
ATOM      5  C   UNL     1       5.255   4.219  17.804  0.00  0.00    +0.000 C 
ATOM      6  O   UNL     1       5.018   3.655  18.860  0.00  0.00    +0.000 OA
ATOM      7  C   UNL     1       6.007   3.590  16.646  0.00  0.00    +0.000 C 
ENDROOT
BRANCH   1   8
ATOM      8  C   UNL     1       6.531   4.568  14.300  0.00  0.00    +0.000 C 
ATOM      9  O   UNL     1       6.122   3.825  13.422  0.00  0.00    +0.000 OA
BRANCH   8  11
ATOM     10  C   UNL     1       8.159   5.444  12.883  0.00  0.00    +0.000 C 
ATOM     11  O   UNL     1       7.590   5.406  14.193  0.00  0.00    +0.000 OA
ENDBRANCH   8  11
ENDBRANCH   1   8
BRANCH   4  12
ATOM     12  C   UNL     1       4.038   6.400  18.209  0.00  0.00    +0.000 C 
BRANCH  12  13
ATOM     13  C   UNL     1       2.524   6.204  18.044  0.00  0.00    +0.000 C 
BRANCH  13  14
ATOM     14  C   UNL     1       2.009   4.984  18.790  0.00  0.00    +0.000 C 
ATOM     15  C   UNL     1       1.896   4.973  20.133  0.00  0.00    +0.000 C 
ATOM     16  C   UNL     1       1.418   3.789  20.925  0.00  0.00    +0.000 C 
ATOM     17  C   UNL     1       1.397   2.496  20.110  0.00  0.00    +0.000 C 
ATOM     18  C   UNL     1       0.804   2.735  18.726  0.00  0.00    +0.000 C 
ATOM     19  C   UNL     1       1.608   3.785  17.958  0.00  0.00    +0.000 C 
ENDBRANCH  13  14
ENDBRANCH  12  13
ENDBRANCH   4  12
TORSDOF 5
ENDMDL
MODEL 6
REMARK VINA RESULT:      -6.6      1.415      2.072
REMARK  Name = 
REMARK  7 active torsions:
REMARK  status: ('A' for Active; 'I' for Inactive)
REMARK    1  A    between atoms: C_1  and  O_2
REMARK    2  A    between atoms: O_2  and  C_3
REMARK    3  A    between atoms: C_3  and  C_5
REMARK    4  A    between atoms: C_6  and  C_7
REMARK    5  A    between atoms: N_8  and  C_9
REMARK    6  A    between atoms: C_9  and  C_10
REMARK    7  A    between atoms: C_10  and  C_11
REMARK                            x       y       z     vdW  Elec       q    Type
REMARK                         _______ _______ _______ _____ _____    ______ ____
ROOT
ATOM      1  C   UNL     1       6.290   5.415  15.628  0.00  0.00    +0.000 C 
ATOM      2  C   UNL     1       6.495   5.089  16.912  0.00  0.00    +0.000 C 
ATOM      3  C   UNL     1       7.609   4.299  17.517  0.00  0.00    +0.000 C 
ATOM      4  N   UNL     1       5.488   5.638  17.689  0.00  0.00    +0.000 N 
ATOM      5  C   UNL     1       4.629   6.411  16.905  0.00  0.00    +0.000 C 
ATOM      6  O   UNL     1       3.683   7.087  17.274  0.00  0.00    +0.000 OA
ATOM      7  C   UNL     1       5.085   6.288  15.463  0.00  0.00    +0.000 C 
ENDROOT
BRANCH   1   8
ATOM      8  C   UNL     1       7.110   4.995  14.482  0.00  0.00    +0.000 C 
ATOM      9  O   UNL     1       8.028   5.647  14.010  0.00  0.00    +0.000 OA
BRANCH   8  11
ATOM     10  C   UNL     1       6.206   3.792  12.704  0.00  0.00    +0.000 C 
ATOM     11  O   UNL     1       6.700   3.781  14.045  0.00  0.00    +0.000 OA
ENDBRANCH   8  11
ENDBRANCH   1   8
BRANCH   4  12
ATOM     12  C   UNL     1       5.469   5.601  19.150  0.00  0.00    +0.000 C 
BRANCH  12  13
ATOM     13  C   UNL     1       5.028   4.276  19.789  0.00  0.00    +0.000 C 
BRANCH  13  14
ATOM     14  C   UNL     1       3.531   4.045  19.680  0.00  0.00    +0.000 C 
ATOM     15  C   UNL     1       2.659   4.659  20.504  0.00  0.00    +0.000 C 
ATOM     16  C   UNL     1       1.171   4.449  20.458  0.00  0.00    +0.000 C 
ATOM     17  C   UNL     1       0.766   3.230  19.631  0.00  0.00    +0.000 C 
ATOM     18  C   UNL     1       1.551   3.174  18.325  0.00  0.00    +0.000 C 
ATOM     19  C   UNL     1       3.056   3.108  18.591  0.00  0.00    +0.000 C 
ENDBRANCH  13  14
ENDBRANCH  12  13
ENDBRANCH   4  12
TORSDOF 5
ENDMDL
MODEL 7
REMARK VINA RESULT:      -6.6      1.433      2.416
REMARK  Name = 
REMARK  7 active torsions:
REMARK  status: ('A' for Active; 'I' for Inactive)
REMARK    1  A    between atoms: C_1  and  O_2
REMARK    2  A    between atoms: O_2  and  C_3
REMARK    3  A    between atoms: C_3  and  C_5
REMARK    4  A    between atoms: C_6  and  C_7
REMARK    5  A    between atoms: N_8  and  C_9
REMARK    6  A    between atoms: C_9  and  C_10
REMARK    7  A    between atoms: C_10  and  C_11
REMARK                            x       y       z     vdW  Elec       q    Type
REMARK                         _______ _______ _______ _____ _____    ______ ____
ROOT
ATOM      1  C   UNL     1       6.235   5.428  15.553  0.00  0.00    +0.000 C 
ATOM      2  C   UNL     1       6.512   5.119  16.828  0.00  0.00    +0.000 C 
ATOM      3  C   UNL     1       7.654   4.328  17.378  0.00  0.00    +0.000 C 
ATOM      4  N   UNL     1       5.557   5.688  17.654  0.00  0.00    +0.000 N 
ATOM      5  C   UNL     1       4.659   6.457  16.909  0.00  0.00    +0.000 C 
ATOM      6  O   UNL     1       3.741   7.146  17.323  0.00  0.00    +0.000 OA
ATOM      7  C   UNL     1       5.028   6.308  15.445  0.00  0.00    +0.000 C 
ENDROOT
BRANCH   1   8
ATOM      8  C   UNL     1       6.982   4.984  14.368  0.00  0.00    +0.000 C 
ATOM      9  O   UNL     1       7.962   5.552  13.912  0.00  0.00    +0.000 OA
BRANCH   8  11
ATOM     10  C   UNL     1       6.573   3.714  12.457  0.00  0.00    +0.000 C 
ATOM     11  O   UNL     1       6.427   3.852  13.872  0.00  0.00    +0.000 OA
ENDBRANCH   8  11
ENDBRANCH   1   8
BRANCH   4  12
ATOM     12  C   UNL     1       5.622   5.673  19.114  0.00  0.00    +0.000 C 
BRANCH  12  13
ATOM     13  C   UNL     1       5.170   4.376  19.800  0.00  0.00    +0.000 C 
BRANCH  13  14
ATOM     14  C   UNL     1       3.797   3.919  19.336  0.00  0.00    +0.000 C 
ATOM     15  C   UNL     1       3.648   2.907  18.459  0.00  0.00    +0.000 C 
ATOM     16  C   UNL     1       2.318   2.430  17.947  0.00  0.00    +0.000 C 
ATOM     17  C   UNL     1       1.180   3.407  18.240  0.00  0.00    +0.000 C 
ATOM     18  C   UNL     1       1.267   3.928  19.670  0.00  0.00    +0.000 C 
ATOM     19  C   UNL     1       2.599   4.638  19.917  0.00  0.00    +0.000 C 
ENDBRANCH  13  14
ENDBRANCH  12  13
ENDBRANCH   4  12
TORSDOF 5
ENDMDL
MODEL 8
REMARK VINA RESULT:      -6.5      1.325      1.663
REMARK  Name = 
REMARK  7 active torsions:
REMARK  status: ('A' for Active; 'I' for Inactive)
REMARK    1  A    between atoms: C_1  and  O_2
REMARK    2  A    between atoms: O_2  and  C_3
REMARK    3  A    between atoms: C_3  and  C_5
REMARK    4  A    between atoms: C_6  and  C_7
REMARK    5  A    between atoms: N_8  and  C_9
REMARK    6  A    between atoms: C_9  and  C_10
REMARK    7  A    between atoms: C_10  and  C_11
REMARK                            x       y       z     vdW  Elec       q    Type
REMARK                         _______ _______ _______ _____ _____    ______ ____
ROOT
ATOM      1  C   UNL     1       6.767   5.077  15.519  0.00  0.00    +0.000 C 
ATOM      2  C   UNL     1       5.847   5.860  16.101  0.00  0.00    +0.000 C 
ATOM      3  C   UNL     1       4.739   6.639  15.470  0.00  0.00    +0.000 C 
ATOM      4  N   UNL     1       6.034   5.842  17.473  0.00  0.00    +0.000 N 
ATOM      5  C   UNL     1       7.065   4.965  17.817  0.00  0.00    +0.000 C 
ATOM      6  O   UNL     1       7.445   4.658  18.935  0.00  0.00    +0.000 OA
ATOM      7  C   UNL     1       7.652   4.417  16.531  0.00  0.00    +0.000 C 
ENDROOT
BRANCH   1   8
ATOM      8  C   UNL     1       6.936   4.858  14.076  0.00  0.00    +0.000 C 
ATOM      9  O   UNL     1       7.743   5.448  13.374  0.00  0.00    +0.000 OA
BRANCH   8  11
ATOM     10  C   UNL     1       6.331   3.451  12.320  0.00  0.00    +0.000 C 
ATOM     11  O   UNL     1       6.075   3.902  13.652  0.00  0.00    +0.000 OA
ENDBRANCH   8  11
ENDBRANCH   1   8
BRANCH   4  12
ATOM     12  C   UNL     1       5.128   6.473  18.431  0.00  0.00    +0.000 C 
BRANCH  12  13
ATOM     13  C   UNL     1       4.508   5.548  19.489  0.00  0.00    +0.000 C 
BRANCH  13  14
ATOM     14  C   UNL     1       3.570   4.517  18.885  0.00  0.00    +0.000 C 
ATOM     15  C   UNL     1       2.396   4.870  18.327  0.00  0.00    +0.000 C 
ATOM     16  C   UNL     1       1.418   3.893  17.738  0.00  0.00    +0.000 C 
ATOM     17  C   UNL     1       1.713   2.445  18.131  0.00  0.00    +0.000 C 
ATOM     18  C   UNL     1       3.203   2.144  18.019  0.00  0.00    +0.000 C 
ATOM     19  C   UNL     1       4.020   3.072  18.919  0.00  0.00    +0.000 C 
ENDBRANCH  13  14
ENDBRANCH  12  13
ENDBRANCH   4  12
TORSDOF 5
ENDMDL
MODEL 9
REMARK VINA RESULT:      -6.5      1.982      3.300
REMARK  Name = 
REMARK  7 active torsions:
REMARK  status: ('A' for Active; 'I' for Inactive)
REMARK    1  A    between atoms: C_1  and  O_2
REMARK    2  A    between atoms: O_2  and  C_3
REMARK    3  A    between atoms: C_3  and  C_5
REMARK    4  A    between atoms: C_6  and  C_7
REMARK    5  A    between atoms: N_8  and  C_9
REMARK    6  A    between atoms: C_9  and  C_10
REMARK    7  A    between atoms: C_10  and  C_11
REMARK                            x       y       z     vdW  Elec       q    Type
REMARK                         _______ _______ _______ _____ _____    ______ ____
ROOT
ATOM      1  C   UNL     1       5.719   5.942  17.233  0.00  0.00    +0.000 C 
ATOM      2  C   UNL     1       5.231   4.805  16.715  0.00  0.00    +0.000 C 
ATOM      3  C   UNL     1       5.951   3.716  15.990  0.00  0.00    +0.000 C 
ATOM      4  N   UNL     1       3.872   4.732  16.974  0.00  0.00    +0.000 N 
ATOM      5  C   UNL     1       3.461   5.818  17.750  0.00  0.00    +0.000 C 
ATOM      6  O   UNL     1       2.352   6.030  18.213  0.00  0.00    +0.000 OA
ATOM      7  C   UNL     1       4.662   6.724  17.948  0.00  0.00    +0.000 C 
ENDROOT
BRANCH   1   8
ATOM      8  C   UNL     1       7.108   6.414  17.140  0.00  0.00    +0.000 C 
ATOM      9  O   UNL     1       7.755   6.466  16.106  0.00  0.00    +0.000 OA
BRANCH   8  11
ATOM     10  C   UNL     1       7.902   5.691  19.207  0.00  0.00    +0.000 C 
ATOM     11  O   UNL     1       7.548   6.790  18.364  0.00  0.00    +0.000 OA
ENDBRANCH   8  11
ENDBRANCH   1   8
BRANCH   4  12
ATOM     12  C   UNL     1       3.044   3.566  16.676  0.00  0.00    +0.000 C 
BRANCH  12  13
ATOM     13  C   UNL     1       3.210   2.358  17.609  0.00  0.00    +0.000 C 
BRANCH  13  14
ATOM     14  C   UNL     1       2.642   2.610  18.996  0.00  0.00    +0.000 C 
ATOM     15  C   UNL     1       1.336   2.879  19.187  0.00  0.00    +0.000 C 
ATOM     16  C   UNL     1       0.725   3.161  20.530  0.00  0.00    +0.000 C 
ATOM     17  C   UNL     1       1.767   3.452  21.610  0.00  0.00    +0.000 C 
ATOM     18  C   UNL     1       2.925   2.464  21.528  0.00  0.00    +0.000 C 
ATOM     19  C   UNL     1       3.606   2.528  20.160  0.00  0.00    +0.000 C 
ENDBRANCH  13  14
ENDBRANCH  12  13
ENDBRANCH   4  12
TORSDOF 5
ENDMDL
