MODEL 1
REMARK VINA RESULT:      -8.4      0.000      0.000
REMARK  Name = 
REMARK  7 active torsions:
REMARK  status: ('A' for Active; 'I' for Inactive)
REMARK    1  A    between atoms: C_1  and  N_2
REMARK    2  A    between atoms: N_8  and  C_9
REMARK    3  A    between atoms: C_12  and  O_13
REMARK    4  A    between atoms: O_13  and  C_14
REMARK    5  A    between atoms: C_20  and  O_21
REMARK    6  A    between atoms: O_21  and  C_22
REMARK    7  A    between atoms: C_22  and  C_23
REMARK                            x       y       z     vdW  Elec       q    Type
REMARK                         _______ _______ _______ _____ _____    ______ ____
ROOT
ATOM      1  C   UNL     1       1.338   8.787  19.535  0.00  0.00    +0.000 A 
ATOM      2  C   UNL     1       1.988   8.981  18.312  0.00  0.00    +0.000 A 
ATOM      3  C   UNL     1       2.814   7.981  17.798  0.00  0.00    +0.000 A 
ATOM      4  C   UNL     1       2.953   6.755  18.463  0.00  0.00    +0.000 A 
ATOM      5  C   UNL     1       2.281   6.536  19.676  0.00  0.00    +0.000 A 
ATOM      6  C   UNL     1       1.495   7.567  20.208  0.00  0.00    +0.000 A 
ENDROOT
BRANCH   1  14
ATOM      7  C   UNL     1      -2.388  11.885  19.258  0.00  0.00    +0.000 C 
ATOM      8  N   UNL     1      -1.250  11.359  19.984  0.00  0.00    +0.000 N 
ATOM      9  C   UNL     1      -1.028  11.776  21.274  0.00  0.00    +0.000 A 
ATOM     10  O   UNL     1      -1.706  12.620  21.859  0.00  0.00    +0.000 OA
ATOM     11  N   UNL     1       0.007  11.189  21.921  0.00  0.00    +0.000 N 
ATOM     12  C   UNL     1       0.777  10.181  21.431  0.00  0.00    +0.000 A 
ATOM     13  O   UNL     1       1.619   9.683  22.175  0.00  0.00    +0.000 OA
ATOM     14  N   UNL     1       0.547   9.827  20.112  0.00  0.00    +0.000 N 
ATOM     15  C   UNL     1      -0.466  10.407  19.346  0.00  0.00    +0.000 A 
ATOM     16  O   UNL     1      -0.713  10.070  18.182  0.00  0.00    +0.000 OA
ATOM     17  H   UNL     1       0.175  11.470  22.876  0.00  0.00    +0.000 HD
ENDBRANCH   1  14
BRANCH   4  18
ATOM     18  O   UNL     1       3.855   5.896  17.873  0.00  0.00    +0.000 OA
BRANCH  18  19
ATOM     19  C   UNL     1       5.206   6.077  18.045  0.00  0.00    +0.000 A 
ATOM     20  C   UNL     1       6.014   6.872  17.232  0.00  0.00    +0.000 A 
ATOM     21  C   UNL     1       7.388   6.936  17.465  0.00  0.00    +0.000 A 
ATOM     22  C   UNL     1       7.947   6.251  18.544  0.00  0.00    +0.000 A 
ATOM     23  C   UNL     1       7.130   5.520  19.405  0.00  0.00    +0.000 A 
ATOM     24  C   UNL     1       5.760   5.436  19.156  0.00  0.00    +0.000 A 
ENDBRANCH  18  19
ENDBRANCH   4  18
BRANCH   5  25
ATOM     25  O   UNL     1       2.470   5.350  20.344  0.00  0.00    +0.000 OA
BRANCH  25  26
ATOM     26  C   UNL     1       1.276   4.605  20.628  0.00  0.00    +0.000 C 
BRANCH  26  27
ATOM     27  C   UNL     1       1.483   3.172  20.185  0.00  0.00    +0.000 C 
ATOM     28  C   UNL     1       1.167   2.852  18.719  0.00  0.00    +0.000 C 
ATOM     29  O   UNL     1       2.421   2.126  18.590  0.00  0.00    +0.000 OA
ATOM     30  C   UNL     1       2.919   2.797  19.778  0.00  0.00    +0.000 C 
ENDBRANCH  26  27
ENDBRANCH  25  26
ENDBRANCH   5  25
TORSDOF 6
ENDMDL
MODEL 2
REMARK VINA RESULT:      -8.4      0.721      1.280
REMARK  Name = 
REMARK  7 active torsions:
REMARK  status: ('A' for Active; 'I' for Inactive)
REMARK    1  A    between atoms: C_1  and  N_2
REMARK    2  A    between atoms: N_8  and  C_9
REMARK    3  A    between atoms: C_12  and  O_13
REMARK    4  A    between atoms: O_13  and  C_14
REMARK    5  A    between atoms: C_20  and  O_21
REMARK    6  A    between atoms: O_21  and  C_22
REMARK    7  A    between atoms: C_22  and  C_23
REMARK                            x       y       z     vdW  Elec       q    Type
REMARK                         _______ _______ _______ _____ _____    ______ ____
ROOT
ATOM      1  C   UNL     1       1.323   8.863  19.503  0.00  0.00    +0.000 A 
ATOM      2  C   UNL     1       2.023   9.092  18.314  0.00  0.00    +0.000 A 
ATOM      3  C   UNL     1       2.839   8.091  17.785  0.00  0.00    +0.000 A 
ATOM      4  C   UNL     1       2.919   6.833  18.399  0.00  0.00    +0.000 A 
ATOM      5  C   UNL     1       2.196   6.581  19.575  0.00  0.00    +0.000 A 
ATOM      6  C   UNL     1       1.421   7.611  20.126  0.00  0.00    +0.000 A 
ENDROOT
BRANCH   1  14
ATOM      7  C   UNL     1      -2.434  11.931  19.320  0.00  0.00    +0.000 C 
ATOM      8  N   UNL     1      -1.270  11.418  20.015  0.00  0.00    +0.000 N 
ATOM      9  C   UNL     1      -1.014  11.843  21.295  0.00  0.00    +0.000 A 
ATOM     10  O   UNL     1      -1.681  12.685  21.896  0.00  0.00    +0.000 OA
ATOM     11  N   UNL     1       0.045  11.267  21.914  0.00  0.00    +0.000 N 
ATOM     12  C   UNL     1       0.808  10.263  21.407  0.00  0.00    +0.000 A 
ATOM     13  O   UNL     1       1.675   9.775  22.129  0.00  0.00    +0.000 OA
ATOM     14  N   UNL     1       0.541   9.900  20.097  0.00  0.00    +0.000 N 
ATOM     15  C   UNL     1      -0.498  10.468  19.359  0.00  0.00    +0.000 A 
ATOM     16  O   UNL     1      -0.776  10.124  18.205  0.00  0.00    +0.000 OA
ATOM     17  H   UNL     1       0.238  11.555  22.863  0.00  0.00    +0.000 HD
ENDBRANCH   1  14
BRANCH   4  18
ATOM     18  O   UNL     1       3.817   5.975  17.803  0.00  0.00    +0.000 OA
BRANCH  18  19
ATOM     19  C   UNL     1       5.155   6.039  18.113  0.00  0.00    +0.000 A 
ATOM     20  C   UNL     1       5.763   5.356  19.166  0.00  0.00    +0.000 A 
ATOM     21  C   UNL     1       7.121   5.543  19.424  0.00  0.00    +0.000 A 
ATOM     22  C   UNL     1       7.884   6.368  18.597  0.00  0.00    +0.000 A 
ATOM     23  C   UNL     1       7.294   6.989  17.497  0.00  0.00    +0.000 A 
ATOM     24  C   UNL     1       5.931   6.822  17.255  0.00  0.00    +0.000 A 
ENDBRANCH  18  19
ENDBRANCH   4  18
BRANCH   5  25
ATOM     25  O   UNL     1       2.327   5.362  20.196  0.00  0.00    +0.000 OA
BRANCH  25  26
ATOM     26  C   UNL     1       1.358   4.371  19.818  0.00  0.00    +0.000 C 
BRANCH  26  27
ATOM     27  C   UNL     1       1.829   3.020  20.316  0.00  0.00    +0.000 C 
ATOM     28  C   UNL     1       3.345   2.794  20.360  0.00  0.00    +0.000 C 
ATOM     29  O   UNL     1       3.240   2.246  21.704  0.00  0.00    +0.000 OA
ATOM     30  C   UNL     1       1.934   2.868  21.843  0.00  0.00    +0.000 C 
ENDBRANCH  26  27
ENDBRANCH  25  26
ENDBRANCH   5  25
TORSDOF 6
ENDMDL
MODEL 3
REMARK VINA RESULT:      -8.3      0.440      1.096
REMARK  Name = 
REMARK  7 active torsions:
REMARK  status: ('A' for Active; 'I' for Inactive)
REMARK    1  A    between atoms: C_1  and  N_2
REMARK    2  A    between atoms: N_8  and  C_9
REMARK    3  A    between atoms: C_12  and  O_13
REMARK    4  A    between atoms: O_13  and  C_14
REMARK    5  A    between atoms: C_20  and  O_21
REMARK    6  A    between atoms: O_21  and  C_22
REMARK    7  A    between atoms: C_22  and  C_23
REMARK                            x       y       z     vdW  Elec       q    Type
REMARK                         _______ _______ _______ _____ _____    ______ ____
ROOT
ATOM      1  C   UNL     1       1.353   8.919  19.401  0.00  0.00    +0.000 A 
ATOM      2  C   UNL     1       1.978   9.145  18.171  0.00  0.00    +0.000 A 
ATOM      3  C   UNL     1       2.826   8.177  17.634  0.00  0.00    +0.000 A 
ATOM      4  C   UNL     1       3.014   6.950  18.285  0.00  0.00    +0.000 A 
ATOM      5  C   UNL     1       2.368   6.697  19.505  0.00  0.00    +0.000 A 
ATOM      6  C   UNL     1       1.558   7.699  20.060  0.00  0.00    +0.000 A 
ENDROOT
BRANCH   1  14
ATOM      7  C   UNL     1      -2.482  11.889  19.219  0.00  0.00    +0.000 C 
ATOM      8  N   UNL     1      -1.311  11.398  19.919  0.00  0.00    +0.000 N 
ATOM      9  C   UNL     1      -1.078  11.816  21.207  0.00  0.00    +0.000 A 
ATOM     10  O   UNL     1      -1.772  12.632  21.811  0.00  0.00    +0.000 OA
ATOM     11  N   UNL     1      -0.010  11.260  21.829  0.00  0.00    +0.000 N 
ATOM     12  C   UNL     1       0.784  10.282  21.317  0.00  0.00    +0.000 A 
ATOM     13  O   UNL     1       1.657   9.809  22.041  0.00  0.00    +0.000 OA
ATOM     14  N   UNL     1       0.539   9.928  20.001  0.00  0.00    +0.000 N 
ATOM     15  C   UNL     1      -0.509  10.477  19.259  0.00  0.00    +0.000 A 
ATOM     16  O   UNL     1      -0.768  10.139  18.099  0.00  0.00    +0.000 OA
ATOM     17  H   UNL     1       0.168  11.542  22.782  0.00  0.00    +0.000 HD
ENDBRANCH   1  14
BRANCH   4  18
ATOM     18  O   UNL     1       3.934   6.125  17.673  0.00  0.00    +0.000 OA
BRANCH  18  19
ATOM     19  C   UNL     1       5.260   6.172  18.030  0.00  0.00    +0.000 A 
ATOM     20  C   UNL     1       5.833   5.436  19.067  0.00  0.00    +0.000 A 
ATOM     21  C   UNL     1       7.181   5.608  19.380  0.00  0.00    +0.000 A 
ATOM     22  C   UNL     1       7.971   6.473  18.622  0.00  0.00    +0.000 A 
ATOM     23  C   UNL     1       7.418   7.150  17.536  0.00  0.00    +0.000 A 
ATOM     24  C   UNL     1       6.064   6.997  17.240  0.00  0.00    +0.000 A 
ENDBRANCH  18  19
ENDBRANCH   4  18
BRANCH   5  25
ATOM     25  O   UNL     1       2.604   5.512  20.158  0.00  0.00    +0.000 OA
BRANCH  25  26
ATOM     26  C   UNL     1       1.503   4.590  20.181  0.00  0.00    +0.000 C 
BRANCH  26  27
ATOM     27  C   UNL     1       1.479   3.833  18.870  0.00  0.00    +0.000 C 
ATOM     28  C   UNL     1       2.743   3.045  18.506  0.00  0.00    +0.000 C 
ATOM     29  O   UNL     1       1.937   1.885  18.154  0.00  0.00    +0.000 OA
ATOM     30  C   UNL     1       0.828   2.440  18.911  0.00  0.00    +0.000 C 
ENDBRANCH  26  27
ENDBRANCH  25  26
ENDBRANCH   5  25
TORSDOF 6
ENDMDL
MODEL 4
REMARK VINA RESULT:      -8.1      2.621      3.688
REMARK  Name = 
REMARK  7 active torsions:
REMARK  status: ('A' for Active; 'I' for Inactive)
REMARK    1  A    between atoms: C_1  and  N_2
REMARK    2  A    between atoms: N_8  and  C_9
REMARK    3  A    between atoms: C_12  and  O_13
REMARK    4  A    between atoms: O_13  and  C_14
REMARK    5  A    between atoms: C_20  and  O_21
REMARK    6  A    between atoms: O_21  and  C_22
REMARK    7  A    between atoms: C_22  and  C_23
REMARK                            x       y       z     vdW  Elec       q    Type
REMARK                         _______ _______ _______ _____ _____    ______ ____
ROOT
ATOM      1  C   UNL     1       3.129   6.699  18.280  0.00  0.00    +0.000 A 
ATOM      2  C   UNL     1       4.401   7.074  17.836  0.00  0.00    +0.000 A 
ATOM      3  C   UNL     1       5.219   6.138  17.202  0.00  0.00    +0.000 A 
ATOM      4  C   UNL     1       4.758   4.839  16.949  0.00  0.00    +0.000 A 
ATOM      5  C   UNL     1       3.471   4.460  17.362  0.00  0.00    +0.000 A 
ATOM      6  C   UNL     1       2.678   5.393  18.043  0.00  0.00    +0.000 A 
ENDROOT
BRANCH   1  14
ATOM      7  C   UNL     1       0.507  10.783  18.394  0.00  0.00    +0.000 C 
ATOM      8  N   UNL     1       1.044   9.621  19.075  0.00  0.00    +0.000 N 
ATOM      9  C   UNL     1       0.644   9.355  20.361  0.00  0.00    +0.000 A 
ATOM     10  O   UNL     1      -0.112  10.069  21.017  0.00  0.00    +0.000 OA
ATOM     11  N   UNL     1       1.125   8.214  20.911  0.00  0.00    +0.000 N 
ATOM     12  C   UNL     1       1.891   7.289  20.273  0.00  0.00    +0.000 A 
ATOM     13  O   UNL     1       2.169   6.254  20.875  0.00  0.00    +0.000 OA
ATOM     14  N   UNL     1       2.306   7.623  18.994  0.00  0.00    +0.000 N 
ATOM     15  C   UNL     1       1.903   8.798  18.358  0.00  0.00    +0.000 A 
ATOM     16  O   UNL     1       2.230   9.089  17.202  0.00  0.00    +0.000 OA
ATOM     17  H   UNL     1       0.828   7.992  21.851  0.00  0.00    +0.000 HD
ENDBRANCH   1  14
BRANCH   4  18
ATOM     18  O   UNL     1       5.702   4.010  16.383  0.00  0.00    +0.000 OA
BRANCH  18  19
ATOM     19  C   UNL     1       6.006   4.109  15.046  0.00  0.00    +0.000 A 
ATOM     20  C   UNL     1       5.233   3.582  14.012  0.00  0.00    +0.000 A 
ATOM     21  C   UNL     1       5.671   3.692  12.691  0.00  0.00    +0.000 A 
ATOM     22  C   UNL     1       6.851   4.376  12.400  0.00  0.00    +0.000 A 
ATOM     23  C   UNL     1       7.583   4.971  13.425  0.00  0.00    +0.000 A 
ATOM     24  C   UNL     1       7.159   4.839  14.747  0.00  0.00    +0.000 A 
ENDBRANCH  18  19
ENDBRANCH   4  18
BRANCH   5  25
ATOM     25  O   UNL     1       3.054   3.167  17.156  0.00  0.00    +0.000 OA
BRANCH  25  26
ATOM     26  C   UNL     1       3.499   2.211  18.130  0.00  0.00    +0.000 C 
BRANCH  26  27
ATOM     27  C   UNL     1       2.321   1.820  18.998  0.00  0.00    +0.000 C 
ATOM     28  C   UNL     1       2.130   2.611  20.297  0.00  0.00    +0.000 C 
ATOM     29  O   UNL     1       0.712   2.771  20.009  0.00  0.00    +0.000 OA
ATOM     30  C   UNL     1       0.970   2.449  18.616  0.00  0.00    +0.000 C 
ENDBRANCH  26  27
ENDBRANCH  25  26
ENDBRANCH   5  25
TORSDOF 6
ENDMDL
MODEL 5
REMARK VINA RESULT:      -8.0      0.743      1.033
REMARK  Name = 
REMARK  7 active torsions:
REMARK  status: ('A' for Active; 'I' for Inactive)
REMARK    1  A    between atoms: C_1  and  N_2
REMARK    2  A    between atoms: N_8  and  C_9
REMARK    3  A    between atoms: C_12  and  O_13
REMARK    4  A    between atoms: O_13  and  C_14
REMARK    5  A    between atoms: C_20  and  O_21
REMARK    6  A    between atoms: O_21  and  C_22
REMARK    7  A    between atoms: C_22  and  C_23
REMARK                            x       y       z     vdW  Elec       q    Type
REMARK                         _______ _______ _______ _____ _____    ______ ____
ROOT
ATOM      1  C   UNL     1       1.485   8.414  19.606  0.00  0.00    +0.000 A 
ATOM      2  C   UNL     1       2.105   8.478  18.354  0.00  0.00    +0.000 A 
ATOM      3  C   UNL     1       2.795   7.369  17.864  0.00  0.00    +0.000 A 
ATOM      4  C   UNL     1       2.825   6.168  18.585  0.00  0.00    +0.000 A 
ATOM      5  C   UNL     1       2.180   6.081  19.828  0.00  0.00    +0.000 A 
ATOM      6  C   UNL     1       1.533   7.217  20.334  0.00  0.00    +0.000 A 
ENDROOT
BRANCH   1  14
ATOM      7  C   UNL     1      -1.745  12.015  19.207  0.00  0.00    +0.000 C 
ATOM      8  N   UNL     1      -0.717  11.336  19.969  0.00  0.00    +0.000 N 
ATOM      9  C   UNL     1      -0.476  11.726  21.264  0.00  0.00    +0.000 A 
ATOM     10  O   UNL     1      -1.041  12.662  21.826  0.00  0.00    +0.000 OA
ATOM     11  N   UNL     1       0.444  10.999  21.943  0.00  0.00    +0.000 N 
ATOM     12  C   UNL     1       1.075   9.887  21.480  0.00  0.00    +0.000 A 
ATOM     13  O   UNL     1       1.814   9.278  22.251  0.00  0.00    +0.000 OA
ATOM     14  N   UNL     1       0.835   9.561  20.156  0.00  0.00    +0.000 N 
ATOM     15  C   UNL     1      -0.060  10.276  19.358  0.00  0.00    +0.000 A 
ATOM     16  O   UNL     1      -0.318   9.971  18.188  0.00  0.00    +0.000 OA
ATOM     17  H   UNL     1       0.622  11.260  22.903  0.00  0.00    +0.000 HD
ENDBRANCH   1  14
BRANCH   4  18
ATOM     18  O   UNL     1       3.604   5.187  18.009  0.00  0.00    +0.000 OA
BRANCH  18  19
ATOM     19  C   UNL     1       4.970   5.204  18.159  0.00  0.00    +0.000 A 
ATOM     20  C   UNL     1       5.639   5.516  19.342  0.00  0.00    +0.000 A 
ATOM     21  C   UNL     1       7.033   5.560  19.363  0.00  0.00    +0.000 A 
ATOM     22  C   UNL     1       7.760   5.237  18.218  0.00  0.00    +0.000 A 
ATOM     23  C   UNL     1       7.095   4.848  17.056  0.00  0.00    +0.000 A 
ATOM     24  C   UNL     1       5.701   4.830  17.028  0.00  0.00    +0.000 A 
ENDBRANCH  18  19
ENDBRANCH   4  18
BRANCH   5  25
ATOM     25  O   UNL     1       2.263   4.914  20.548  0.00  0.00    +0.000 OA
BRANCH  25  26
ATOM     26  C   UNL     1       1.074   4.108  20.558  0.00  0.00    +0.000 C 
BRANCH  26  27
ATOM     27  C   UNL     1       1.428   2.718  20.075  0.00  0.00    +0.000 C 
ATOM     28  C   UNL     1       1.380   2.482  18.561  0.00  0.00    +0.000 C 
ATOM     29  O   UNL     1       2.675   1.818  18.607  0.00  0.00    +0.000 OA
ATOM     30  C   UNL     1       2.929   2.431  19.900  0.00  0.00    +0.000 C 
ENDBRANCH  26  27
ENDBRANCH  25  26
ENDBRANCH   5  25
TORSDOF 6
ENDMDL
MODEL 6
REMARK VINA RESULT:      -8.0      2.312      3.417
REMARK  Name = 
REMARK  7 active torsions:
REMARK  status: ('A' for Active; 'I' for Inactive)
REMARK    1  A    between atoms: C_1  and  N_2
REMARK    2  A    between atoms: N_8  and  C_9
REMARK    3  A    between atoms: C_12  and  O_13
REMARK    4  A    between atoms: O_13  and  C_14
REMARK    5  A    between atoms: C_20  and  O_21
REMARK    6  A    between atoms: O_21  and  C_22
REMARK    7  A    between atoms: C_22  and  C_23
REMARK                            x       y       z     vdW  Elec       q    Type
REMARK                         _______ _______ _______ _____ _____    ______ ____
ROOT
ATOM      1  C   UNL     1       2.664   7.134  18.524  0.00  0.00    +0.000 A 
ATOM      2  C   UNL     1       3.923   7.384  17.969  0.00  0.00    +0.000 A 
ATOM      3  C   UNL     1       4.685   6.327  17.471  0.00  0.00    +0.000 A 
ATOM      4  C   UNL     1       4.178   5.020  17.463  0.00  0.00    +0.000 A 
ATOM      5  C   UNL     1       2.903   4.760  17.989  0.00  0.00    +0.000 A 
ATOM      6  C   UNL     1       2.167   5.823  18.534  0.00  0.00    +0.000 A 
ENDROOT
BRANCH   1  14
ATOM      7  C   UNL     1       0.527   9.151  22.387  0.00  0.00    +0.000 C 
ATOM      8  N   UNL     1       0.834   9.178  20.971  0.00  0.00    +0.000 N 
ATOM      9  C   UNL     1       0.500  10.288  20.235  0.00  0.00    +0.000 A 
ATOM     10  O   UNL     1      -0.099  11.265  20.681  0.00  0.00    +0.000 OA
ATOM     11  N   UNL     1       0.883  10.279  18.935  0.00  0.00    +0.000 N 
ATOM     12  C   UNL     1       1.629   9.312  18.336  0.00  0.00    +0.000 A 
ATOM     13  O   UNL     1       1.981   9.492  17.172  0.00  0.00    +0.000 OA
ATOM     14  N   UNL     1       1.901   8.192  19.104  0.00  0.00    +0.000 N 
ATOM     15  C   UNL     1       1.508   8.086  20.440  0.00  0.00    +0.000 A 
ATOM     16  O   UNL     1       1.781   7.113  21.151  0.00  0.00    +0.000 OA
ATOM     17  H   UNL     1       0.662  11.095  18.382  0.00  0.00    +0.000 HD
ENDBRANCH   1  14
BRANCH   4  18
ATOM     18  O   UNL     1       5.071   4.075  17.007  0.00  0.00    +0.000 OA
BRANCH  18  19
ATOM     19  C   UNL     1       5.641   4.196  15.763  0.00  0.00    +0.000 A 
ATOM     20  C   UNL     1       5.032   3.814  14.567  0.00  0.00    +0.000 A 
ATOM     21  C   UNL     1       5.729   3.928  13.364  0.00  0.00    +0.000 A 
ATOM     22  C   UNL     1       7.012   4.475  13.348  0.00  0.00    +0.000 A 
ATOM     23  C   UNL     1       7.591   4.930  14.531  0.00  0.00    +0.000 A 
ATOM     24  C   UNL     1       6.904   4.792  15.737  0.00  0.00    +0.000 A 
ENDBRANCH  18  19
ENDBRANCH   4  18
BRANCH   5  25
ATOM     25  O   UNL     1       2.441   3.467  18.024  0.00  0.00    +0.000 OA
BRANCH  25  26
ATOM     26  C   UNL     1       1.326   3.233  18.899  0.00  0.00    +0.000 C 
BRANCH  26  27
ATOM     27  C   UNL     1       1.787   2.360  20.047  0.00  0.00    +0.000 C 
ATOM     28  C   UNL     1       3.202   2.613  20.579  0.00  0.00    +0.000 C 
ATOM     29  O   UNL     1       2.708   2.597  21.948  0.00  0.00    +0.000 OA
ATOM     30  C   UNL     1       1.361   2.821  21.452  0.00  0.00    +0.000 C 
ENDBRANCH  26  27
ENDBRANCH  25  26
ENDBRANCH   5  25
TORSDOF 6
ENDMDL
MODEL 7
REMARK VINA RESULT:      -8.0      2.561      3.830
REMARK  Name = 
REMARK  7 active torsions:
REMARK  status: ('A' for Active; 'I' for Inactive)
REMARK    1  A    between atoms: C_1  and  N_2
REMARK    2  A    between atoms: N_8  and  C_9
REMARK    3  A    between atoms: C_12  and  O_13
REMARK    4  A    between atoms: O_13  and  C_14
REMARK    5  A    between atoms: C_20  and  O_21
REMARK    6  A    between atoms: O_21  and  C_22
REMARK    7  A    between atoms: C_22  and  C_23
REMARK                            x       y       z     vdW  Elec       q    Type
REMARK                         _______ _______ _______ _____ _____    ______ ____
ROOT
ATOM      1  C   UNL     1       2.979   6.934  18.231  0.00  0.00    +0.000 A 
ATOM      2  C   UNL     1       4.281   7.257  17.834  0.00  0.00    +0.000 A 
ATOM      3  C   UNL     1       5.097   6.278  17.268  0.00  0.00    +0.000 A 
ATOM      4  C   UNL     1       4.609   4.985  17.034  0.00  0.00    +0.000 A 
ATOM      5  C   UNL     1       3.294   4.657  17.398  0.00  0.00    +0.000 A 
ATOM      6  C   UNL     1       2.500   5.634  18.014  0.00  0.00    +0.000 A 
ENDROOT
BRANCH   1  14
ATOM      7  C   UNL     1       0.695   8.532  22.204  0.00  0.00    +0.000 C 
ATOM      8  N   UNL     1       1.015   8.684  20.799  0.00  0.00    +0.000 N 
ATOM      9  C   UNL     1       0.630   9.829  20.145  0.00  0.00    +0.000 A 
ATOM     10  O   UNL     1      -0.025  10.735  20.655  0.00  0.00    +0.000 OA
ATOM     11  N   UNL     1       1.028   9.940  18.854  0.00  0.00    +0.000 N 
ATOM     12  C   UNL     1       1.831   9.063  18.195  0.00  0.00    +0.000 A 
ATOM     13  O   UNL     1       2.185   9.350  17.053  0.00  0.00    +0.000 OA
ATOM     14  N   UNL     1       2.154   7.903  18.879  0.00  0.00    +0.000 N 
ATOM     15  C   UNL     1       1.753   7.674  20.197  0.00  0.00    +0.000 A 
ATOM     16  O   UNL     1       2.071   6.664  20.836  0.00  0.00    +0.000 OA
ATOM     17  H   UNL     1       0.769  10.783  18.362  0.00  0.00    +0.000 HD
ENDBRANCH   1  14
BRANCH   4  18
ATOM     18  O   UNL     1       5.551   4.111  16.536  0.00  0.00    +0.000 OA
BRANCH  18  19
ATOM     19  C   UNL     1       5.923   4.164  15.214  0.00  0.00    +0.000 A 
ATOM     20  C   UNL     1       5.204   3.600  14.160  0.00  0.00    +0.000 A 
ATOM     21  C   UNL     1       5.708   3.664  12.861  0.00  0.00    +0.000 A 
ATOM     22  C   UNL     1       6.901   4.340  12.606  0.00  0.00    +0.000 A 
ATOM     23  C   UNL     1       7.581   4.972  13.646  0.00  0.00    +0.000 A 
ATOM     24  C   UNL     1       7.090   4.886  14.949  0.00  0.00    +0.000 A 
ENDBRANCH  18  19
ENDBRANCH   4  18
BRANCH   5  25
ATOM     25  O   UNL     1       2.846   3.371  17.213  0.00  0.00    +0.000 OA
BRANCH  25  26
ATOM     26  C   UNL     1       3.391   2.392  18.111  0.00  0.00    +0.000 C 
BRANCH  26  27
ATOM     27  C   UNL     1       2.305   1.966  19.077  0.00  0.00    +0.000 C 
ATOM     28  C   UNL     1       2.149   2.804  20.351  0.00  0.00    +0.000 C 
ATOM     29  O   UNL     1       0.707   2.856  20.160  0.00  0.00    +0.000 OA
ATOM     30  C   UNL     1       0.891   2.485  18.767  0.00  0.00    +0.000 C 
ENDBRANCH  26  27
ENDBRANCH  25  26
ENDBRANCH   5  25
TORSDOF 6
ENDMDL
MODEL 8
REMARK VINA RESULT:      -7.9      1.649      4.035
REMARK  Name = 
REMARK  7 active torsions:
REMARK  status: ('A' for Active; 'I' for Inactive)
REMARK    1  A    between atoms: C_1  and  N_2
REMARK    2  A    between atoms: N_8  and  C_9
REMARK    3  A    between atoms: C_12  and  O_13
REMARK    4  A    between atoms: O_13  and  C_14
REMARK    5  A    between atoms: C_20  and  O_21
REMARK    6  A    between atoms: O_21  and  C_22
REMARK    7  A    between atoms: C_22  and  C_23
REMARK                            x       y       z     vdW  Elec       q    Type
REMARK                         _______ _______ _______ _____ _____    ______ ____
ROOT
ATOM      1  C   UNL     1       0.782   9.611  19.858  0.00  0.00    +0.000 A 
ATOM      2  C   UNL     1       0.869   8.792  20.988  0.00  0.00    +0.000 A 
ATOM      3  C   UNL     1       1.601   7.606  20.933  0.00  0.00    +0.000 A 
ATOM      4  C   UNL     1       2.304   7.253  19.773  0.00  0.00    +0.000 A 
ATOM      5  C   UNL     1       2.251   8.081  18.641  0.00  0.00    +0.000 A 
ATOM      6  C   UNL     1       1.470   9.245  18.692  0.00  0.00    +0.000 A 
ENDROOT
BRANCH   1  14
ATOM      7  C   UNL     1      -3.364  11.892  18.778  0.00  0.00    +0.000 C 
ATOM      8  N   UNL     1      -2.026  11.925  19.334  0.00  0.00    +0.000 N 
ATOM      9  C   UNL     1      -1.601  13.055  19.988  0.00  0.00    +0.000 A 
ATOM     10  O   UNL     1      -2.262  14.086  20.098  0.00  0.00    +0.000 OA
ATOM     11  N   UNL     1      -0.370  12.991  20.549  0.00  0.00    +0.000 N 
ATOM     12  C   UNL     1       0.428  11.891  20.585  0.00  0.00    +0.000 A 
ATOM     13  O   UNL     1       1.480  11.960  21.218  0.00  0.00    +0.000 OA
ATOM     14  N   UNL     1      -0.022  10.791  19.873  0.00  0.00    +0.000 N 
ATOM     15  C   UNL     1      -1.256  10.774  19.221  0.00  0.00    +0.000 A 
ATOM     16  O   UNL     1      -1.691   9.786  18.620  0.00  0.00    +0.000 OA
ATOM     17  H   UNL     1      -0.047  13.807  21.049  0.00  0.00    +0.000 HD
ENDBRANCH   1  14
BRANCH   4  18
ATOM     18  O   UNL     1       2.921   6.022  19.844  0.00  0.00    +0.000 OA
BRANCH  18  19
ATOM     19  C   UNL     1       2.230   4.876  19.530  0.00  0.00    +0.000 A 
ATOM     20  C   UNL     1       2.053   4.381  18.238  0.00  0.00    +0.000 A 
ATOM     21  C   UNL     1       1.281   3.237  18.031  0.00  0.00    +0.000 A 
ATOM     22  C   UNL     1       0.732   2.557  19.118  0.00  0.00    +0.000 A 
ATOM     23  C   UNL     1       0.973   3.006  20.416  0.00  0.00    +0.000 A 
ATOM     24  C   UNL     1       1.724   4.164  20.620  0.00  0.00    +0.000 A 
ENDBRANCH  18  19
ENDBRANCH   4  18
BRANCH   5  25
ATOM     25  O   UNL     1       2.901   7.695  17.494  0.00  0.00    +0.000 OA
BRANCH  25  26
ATOM     26  C   UNL     1       4.329   7.846  17.513  0.00  0.00    +0.000 C 
BRANCH  26  27
ATOM     27  C   UNL     1       4.960   6.542  17.072  0.00  0.00    +0.000 C 
ATOM     28  C   UNL     1       5.184   6.361  15.566  0.00  0.00    +0.000 C 
ATOM     29  O   UNL     1       6.541   5.893  15.808  0.00  0.00    +0.000 OA
ATOM     30  C   UNL     1       6.495   6.485  17.134  0.00  0.00    +0.000 C 
ENDBRANCH  26  27
ENDBRANCH  25  26
ENDBRANCH   5  25
TORSDOF 6
ENDMDL
MODEL 9
REMARK VINA RESULT:      -7.8      2.952      7.730
REMARK  Name = 
REMARK  7 active torsions:
REMARK  status: ('A' for Active; 'I' for Inactive)
REMARK    1  A    between atoms: C_1  and  N_2
REMARK    2  A    between atoms: N_8  and  C_9
REMARK    3  A    between atoms: C_12  and  O_13
REMARK    4  A    between atoms: O_13  and  C_14
REMARK    5  A    between atoms: C_20  and  O_21
REMARK    6  A    between atoms: O_21  and  C_22
REMARK    7  A    between atoms: C_22  and  C_23
REMARK                            x       y       z     vdW  Elec       q    Type
REMARK                         _______ _______ _______ _____ _____    ______ ____
ROOT
ATOM      1  C   UNL     1       2.940   6.348  18.881  0.00  0.00    +0.000 A 
ATOM      2  C   UNL     1       3.096   6.969  17.638  0.00  0.00    +0.000 A 
ATOM      3  C   UNL     1       2.637   8.273  17.450  0.00  0.00    +0.000 A 
ATOM      4  C   UNL     1       2.073   8.993  18.512  0.00  0.00    +0.000 A 
ATOM      5  C   UNL     1       1.940   8.392  19.774  0.00  0.00    +0.000 A 
ATOM      6  C   UNL     1       2.358   7.064  19.937  0.00  0.00    +0.000 A 
ENDROOT
BRANCH   1  14
ATOM      7  C   UNL     1       1.876   1.612  18.879  0.00  0.00    +0.000 C 
ATOM      8  N   UNL     1       2.832   2.680  19.098  0.00  0.00    +0.000 N 
ATOM      9  C   UNL     1       4.142   2.362  19.356  0.00  0.00    +0.000 A 
ATOM     10  O   UNL     1       4.572   1.215  19.469  0.00  0.00    +0.000 OA
ATOM     11  N   UNL     1       4.997   3.407  19.475  0.00  0.00    +0.000 N 
ATOM     12  C   UNL     1       4.680   4.715  19.283  0.00  0.00    +0.000 A 
ATOM     13  O   UNL     1       5.587   5.542  19.331  0.00  0.00    +0.000 OA
ATOM     14  N   UNL     1       3.339   4.989  19.071  0.00  0.00    +0.000 N 
ATOM     15  C   UNL     1       2.373   3.985  18.979  0.00  0.00    +0.000 A 
ATOM     16  O   UNL     1       1.180   4.211  18.746  0.00  0.00    +0.000 OA
ATOM     17  H   UNL     1       5.969   3.192  19.648  0.00  0.00    +0.000 HD
ENDBRANCH   1  14
BRANCH   4  18
ATOM     18  O   UNL     1       1.602  10.238  18.158  0.00  0.00    +0.000 OA
BRANCH  18  19
ATOM     19  C   UNL     1       0.252  10.497  18.149  0.00  0.00    +0.000 A 
ATOM     20  C   UNL     1      -0.729   9.598  17.732  0.00  0.00    +0.000 A 
ATOM     21  C   UNL     1      -2.068   9.990  17.710  0.00  0.00    +0.000 A 
ATOM     22  C   UNL     1      -2.433  11.260  18.157  0.00  0.00    +0.000 A 
ATOM     23  C   UNL     1      -1.462  12.132  18.649  0.00  0.00    +0.000 A 
ATOM     24  C   UNL     1      -0.121  11.749  18.646  0.00  0.00    +0.000 A 
ENDBRANCH  18  19
ENDBRANCH   4  18
BRANCH   5  25
ATOM     25  O   UNL     1       1.337   9.091  20.791  0.00  0.00    +0.000 OA
BRANCH  25  26
ATOM     26  C   UNL     1       0.145   8.495  21.328  0.00  0.00    +0.000 C 
BRANCH  26  27
ATOM     27  C   UNL     1      -0.713   9.588  21.929  0.00  0.00    +0.000 C 
ATOM     28  C   UNL     1      -0.641   9.761  23.451  0.00  0.00    +0.000 C 
ATOM     29  O   UNL     1      -0.499  11.201  23.297  0.00  0.00    +0.000 OA
ATOM     30  C   UNL     1      -0.108  11.002  21.912  0.00  0.00    +0.000 C 
ENDBRANCH  26  27
ENDBRANCH  25  26
ENDBRANCH   5  25
TORSDOF 6
ENDMDL
