MODEL 1
REMARK VINA RESULT:      -8.6      0.000      0.000
REMARK  Name = 
REMARK  6 active torsions:
REMARK  status: ('A' for Active; 'I' for Inactive)
REMARK    1  A    between atoms: C_1  and  O_2
REMARK    2  A    between atoms: O_2  and  C_3
REMARK    3  A    between atoms: C_6  and  C_7
REMARK    4  A    between atoms: C_13  and  C_14
REMARK    5  A    between atoms: C_17  and  C_18
REMARK    6  A    between atoms: C_18  and  O_20
REMARK                            x       y       z     vdW  Elec       q    Type
REMARK                         _______ _______ _______ _____ _____    ______ ____
ROOT
ATOM      1  C   UNL     1       1.074   8.603  20.397  0.00  0.00    +0.000 C 
ATOM      2  O   UNL     1       1.331   8.889  19.231  0.00  0.00    +0.000 OA
ATOM      3  N   UNL     1       1.368   7.403  20.996  0.00  0.00    +0.000 N 
ATOM      4  C   UNL     1       2.051   6.405  20.358  0.00  0.00    +0.000 A 
ATOM      5  N   UNL     1       2.241   5.190  20.822  0.00  0.00    +0.000 NA
ATOM      6  N   UNL     1       3.004   4.530  19.886  0.00  0.00    +0.000 NA
ATOM      7  C   UNL     1       3.255   5.399  18.926  0.00  0.00    +0.000 A 
ATOM      8  O   UNL     1       2.669   6.616  19.156  0.00  0.00    +0.000 OA
ATOM      9  H   UNL     1       1.024   7.150  21.907  0.00  0.00    +0.000 HD
ENDROOT
BRANCH   1  13
ATOM     10  C   UNL     1      -0.917  11.658  22.722  0.00  0.00    +0.000 A 
ATOM     11  C   UNL     1      -0.353  11.934  21.479  0.00  0.00    +0.000 A 
ATOM     12  C   UNL     1       0.264  10.926  20.738  0.00  0.00    +0.000 A 
ATOM     13  C   UNL     1       0.352   9.619  21.237  0.00  0.00    +0.000 A 
ATOM     14  C   UNL     1      -0.198   9.346  22.498  0.00  0.00    +0.000 A 
ATOM     15  C   UNL     1      -0.834  10.361  23.235  0.00  0.00    +0.000 A 
BRANCH  10  17
ATOM     16  C   UNL     1      -0.905  14.003  23.057  0.00  0.00    +0.000 C 
ATOM     17  O   UNL     1      -1.467  12.733  23.362  0.00  0.00    +0.000 OA
ENDBRANCH  10  17
ENDBRANCH   1  13
BRANCH   7  18
ATOM     18  C   UNL     1       4.099   5.259  17.744  0.00  0.00    +0.000 A 
ATOM     19  C   UNL     1       4.462   3.975  17.306  0.00  0.00    +0.000 A 
ATOM     20  C   UNL     1       5.332   3.801  16.224  0.00  0.00    +0.000 A 
ATOM     21  C   UNL     1       5.860   4.912  15.559  0.00  0.00    +0.000 A 
ATOM     22  C   UNL     1       5.473   6.199  15.955  0.00  0.00    +0.000 A 
ATOM     23  C   UNL     1       4.602   6.367  17.043  0.00  0.00    +0.000 A 
BRANCH  21  24
ATOM     24  C   UNL     1       6.795   4.665  14.429  0.00  0.00    +0.000 C 
ATOM     25  O   UNL     1       7.722   5.411  14.166  0.00  0.00    +0.000 OA
BRANCH  24  26
ATOM     26  O   UNL     1       6.496   3.577  13.690  0.00  0.00    +0.000 OA
ATOM     27  H   UNL     1       5.562   3.490  13.428  0.00  0.00    +0.000 HD
ENDBRANCH  24  26
ENDBRANCH  21  24
ENDBRANCH   7  18
TORSDOF 5
ENDMDL
MODEL 2
REMARK VINA RESULT:      -8.6      0.546      1.485
REMARK  Name = 
REMARK  6 active torsions:
REMARK  status: ('A' for Active; 'I' for Inactive)
REMARK    1  A    between atoms: C_1  and  O_2
REMARK    2  A    between atoms: O_2  and  C_3
REMARK    3  A    between atoms: C_6  and  C_7
REMARK    4  A    between atoms: C_13  and  C_14
REMARK    5  A    between atoms: C_17  and  C_18
REMARK    6  A    between atoms: C_18  and  O_20
REMARK                            x       y       z     vdW  Elec       q    Type
REMARK                         _______ _______ _______ _____ _____    ______ ____
ROOT
ATOM      1  C   UNL     1       1.265   8.590  20.326  0.00  0.00    +0.000 C 
ATOM      2  O   UNL     1       1.617   8.856  19.180  0.00  0.00    +0.000 OA
ATOM      3  N   UNL     1       1.442   7.374  20.941  0.00  0.00    +0.000 N 
ATOM      4  C   UNL     1       2.100   6.334  20.347  0.00  0.00    +0.000 A 
ATOM      5  N   UNL     1       2.180   5.109  20.820  0.00  0.00    +0.000 NA
ATOM      6  N   UNL     1       2.960   4.400  19.935  0.00  0.00    +0.000 NA
ATOM      7  C   UNL     1       3.329   5.249  18.996  0.00  0.00    +0.000 A 
ATOM      8  O   UNL     1       2.808   6.501  19.190  0.00  0.00    +0.000 OA
ATOM      9  H   UNL     1       1.022   7.146  21.826  0.00  0.00    +0.000 HD
ENDROOT
BRANCH   1  13
ATOM     10  C   UNL     1      -0.872  11.514  22.688  0.00  0.00    +0.000 A 
ATOM     11  C   UNL     1      -0.784  10.179  23.078  0.00  0.00    +0.000 A 
ATOM     12  C   UNL     1      -0.070   9.259  22.310  0.00  0.00    +0.000 A 
ATOM     13  C   UNL     1       0.556   9.651  21.118  0.00  0.00    +0.000 A 
ATOM     14  C   UNL     1       0.449  10.991  20.715  0.00  0.00    +0.000 A 
ATOM     15  C   UNL     1      -0.258  11.918  21.501  0.00  0.00    +0.000 A 
BRANCH  10  17
ATOM     16  C   UNL     1      -3.031  12.248  23.331  0.00  0.00    +0.000 C 
ATOM     17  O   UNL     1      -1.622  12.309  23.508  0.00  0.00    +0.000 OA
ENDBRANCH  10  17
ENDBRANCH   1  13
BRANCH   7  18
ATOM     18  C   UNL     1       4.240   5.053  17.872  0.00  0.00    +0.000 A 
ATOM     19  C   UNL     1       4.722   6.172  17.175  0.00  0.00    +0.000 A 
ATOM     20  C   UNL     1       5.534   6.022  16.044  0.00  0.00    +0.000 A 
ATOM     21  C   UNL     1       5.877   4.746  15.588  0.00  0.00    +0.000 A 
ATOM     22  C   UNL     1       5.441   3.620  16.299  0.00  0.00    +0.000 A 
ATOM     23  C   UNL     1       4.624   3.777  17.430  0.00  0.00    +0.000 A 
BRANCH  21  24
ATOM     24  C   UNL     1       6.727   4.649  14.371  0.00  0.00    +0.000 C 
ATOM     25  O   UNL     1       7.604   5.456  14.114  0.00  0.00    +0.000 OA
BRANCH  24  26
ATOM     26  O   UNL     1       6.410   3.625  13.553  0.00  0.00    +0.000 OA
ATOM     27  H   UNL     1       5.832   3.850  12.801  0.00  0.00    +0.000 HD
ENDBRANCH  24  26
ENDBRANCH  21  24
ENDBRANCH   7  18
TORSDOF 5
ENDMDL
MODEL 3
REMARK VINA RESULT:      -8.6      0.584      1.291
REMARK  Name = 
REMARK  6 active torsions:
REMARK  status: ('A' for Active; 'I' for Inactive)
REMARK    1  A    between atoms: C_1  and  O_2
REMARK    2  A    between atoms: O_2  and  C_3
REMARK    3  A    between atoms: C_6  and  C_7
REMARK    4  A    between atoms: C_13  and  C_14
REMARK    5  A    between atoms: C_17  and  C_18
REMARK    6  A    between atoms: C_18  and  O_20
REMARK                            x       y       z     vdW  Elec       q    Type
REMARK                         _______ _______ _______ _____ _____    ______ ____
ROOT
ATOM      1  C   UNL     1       1.213   8.617  20.251  0.00  0.00    +0.000 C 
ATOM      2  O   UNL     1       1.439   8.900  19.078  0.00  0.00    +0.000 OA
ATOM      3  N   UNL     1       1.516   7.415  20.842  0.00  0.00    +0.000 N 
ATOM      4  C   UNL     1       2.172   6.412  20.184  0.00  0.00    +0.000 A 
ATOM      5  N   UNL     1       2.366   5.195  20.644  0.00  0.00    +0.000 NA
ATOM      6  N   UNL     1       3.096   4.528  19.686  0.00  0.00    +0.000 NA
ATOM      7  C   UNL     1       3.326   5.395  18.718  0.00  0.00    +0.000 A 
ATOM      8  O   UNL     1       2.756   6.617  18.966  0.00  0.00    +0.000 OA
ATOM      9  H   UNL     1       1.197   7.165  21.763  0.00  0.00    +0.000 HD
ENDROOT
BRANCH   1  13
ATOM     10  C   UNL     1      -0.855  11.421  22.813  0.00  0.00    +0.000 A 
ATOM     11  C   UNL     1      -0.698  10.082  23.167  0.00  0.00    +0.000 A 
ATOM     12  C   UNL     1      -0.007   9.203  22.333  0.00  0.00    +0.000 A 
ATOM     13  C   UNL     1       0.524   9.638  21.111  0.00  0.00    +0.000 A 
ATOM     14  C   UNL     1       0.348  10.981  20.746  0.00  0.00    +0.000 A 
ATOM     15  C   UNL     1      -0.335  11.869  21.597  0.00  0.00    +0.000 A 
BRANCH  10  17
ATOM     16  C   UNL     1      -2.937  12.406  23.367  0.00  0.00    +0.000 C 
ATOM     17  O   UNL     1      -1.573  12.174  23.698  0.00  0.00    +0.000 OA
ENDBRANCH  10  17
ENDBRANCH   1  13
BRANCH   7  18
ATOM     18  C   UNL     1       4.134   5.249  17.512  0.00  0.00    +0.000 A 
ATOM     19  C   UNL     1       4.487   3.962  17.074  0.00  0.00    +0.000 A 
ATOM     20  C   UNL     1       5.325   3.783  15.968  0.00  0.00    +0.000 A 
ATOM     21  C   UNL     1       5.829   4.890  15.278  0.00  0.00    +0.000 A 
ATOM     22  C   UNL     1       5.449   6.178  15.675  0.00  0.00    +0.000 A 
ATOM     23  C   UNL     1       4.611   6.352  16.788  0.00  0.00    +0.000 A 
BRANCH  21  24
ATOM     24  C   UNL     1       6.729   4.637  14.122  0.00  0.00    +0.000 C 
ATOM     25  O   UNL     1       6.532   3.743  13.317  0.00  0.00    +0.000 OA
BRANCH  24  26
ATOM     26  O   UNL     1       7.807   5.446  14.070  0.00  0.00    +0.000 OA
ATOM     27  H   UNL     1       8.665   5.014  14.232  0.00  0.00    +0.000 HD
ENDBRANCH  24  26
ENDBRANCH  21  24
ENDBRANCH   7  18
TORSDOF 5
ENDMDL
MODEL 4
REMARK VINA RESULT:      -8.5      6.797      7.500
REMARK  Name = 
REMARK  6 active torsions:
REMARK  status: ('A' for Active; 'I' for Inactive)
REMARK    1  A    between atoms: C_1  and  O_2
REMARK    2  A    between atoms: O_2  and  C_3
REMARK    3  A    between atoms: C_6  and  C_7
REMARK    4  A    between atoms: C_13  and  C_14
REMARK    5  A    between atoms: C_17  and  C_18
REMARK    6  A    between atoms: C_18  and  O_20
REMARK                            x       y       z     vdW  Elec       q    Type
REMARK                         _______ _______ _______ _____ _____    ______ ____
ROOT
ATOM      1  C   UNL     1       8.534   9.120  18.280  0.00  0.00    +0.000 C 
ATOM      2  O   UNL     1       7.961   9.293  17.208  0.00  0.00    +0.000 OA
ATOM      3  N   UNL     1       8.589   7.928  18.960  0.00  0.00    +0.000 N 
ATOM      4  C   UNL     1       8.051   6.771  18.469  0.00  0.00    +0.000 A 
ATOM      5  N   UNL     1       7.945   5.637  19.126  0.00  0.00    +0.000 NA
ATOM      6  N   UNL     1       7.386   4.731  18.253  0.00  0.00    +0.000 NA
ATOM      7  C   UNL     1       7.217   5.367  17.110  0.00  0.00    +0.000 A 
ATOM      8  O   UNL     1       7.611   6.678  17.178  0.00  0.00    +0.000 OA
ATOM      9  H   UNL     1       8.947   7.851  19.897  0.00  0.00    +0.000 HD
ENDROOT
BRANCH   1  13
ATOM     10  C   UNL     1      10.566  12.530  19.996  0.00  0.00    +0.000 A 
ATOM     11  C   UNL     1      10.555  12.298  18.623  0.00  0.00    +0.000 A 
ATOM     12  C   UNL     1       9.874  11.203  18.092  0.00  0.00    +0.000 A 
ATOM     13  C   UNL     1       9.204  10.299  18.928  0.00  0.00    +0.000 A 
ATOM     14  C   UNL     1       9.232  10.522  20.313  0.00  0.00    +0.000 A 
ATOM     15  C   UNL     1       9.907  11.637  20.843  0.00  0.00    +0.000 A 
BRANCH  10  17
ATOM     16  C   UNL     1      11.505  14.627  19.417  0.00  0.00    +0.000 C 
ATOM     17  O   UNL     1      11.290  13.618  20.395  0.00  0.00    +0.000 OA
ENDBRANCH  10  17
ENDBRANCH   1  13
BRANCH   7  18
ATOM     18  C   UNL     1       6.756   4.857  15.823  0.00  0.00    +0.000 A 
ATOM     19  C   UNL     1       5.654   3.987  15.782  0.00  0.00    +0.000 A 
ATOM     20  C   UNL     1       5.231   3.415  14.577  0.00  0.00    +0.000 A 
ATOM     21  C   UNL     1       5.904   3.702  13.387  0.00  0.00    +0.000 A 
ATOM     22  C   UNL     1       6.977   4.604  13.403  0.00  0.00    +0.000 A 
ATOM     23  C   UNL     1       7.399   5.171  14.615  0.00  0.00    +0.000 A 
BRANCH  21  24
ATOM     24  C   UNL     1       5.420   3.051  12.141  0.00  0.00    +0.000 C 
ATOM     25  O   UNL     1       4.424   3.425  11.546  0.00  0.00    +0.000 OA
BRANCH  24  26
ATOM     26  O   UNL     1       6.146   1.981  11.755  0.00  0.00    +0.000 OA
ATOM     27  H   UNL     1       6.995   2.183  11.323  0.00  0.00    +0.000 HD
ENDBRANCH  24  26
ENDBRANCH  21  24
ENDBRANCH   7  18
TORSDOF 5
ENDMDL
MODEL 5
REMARK VINA RESULT:      -8.3      6.787      7.356
REMARK  Name = 
REMARK  6 active torsions:
REMARK  status: ('A' for Active; 'I' for Inactive)
REMARK    1  A    between atoms: C_1  and  O_2
REMARK    2  A    between atoms: O_2  and  C_3
REMARK    3  A    between atoms: C_6  and  C_7
REMARK    4  A    between atoms: C_13  and  C_14
REMARK    5  A    between atoms: C_17  and  C_18
REMARK    6  A    between atoms: C_18  and  O_20
REMARK                            x       y       z     vdW  Elec       q    Type
REMARK                         _______ _______ _______ _____ _____    ______ ____
ROOT
ATOM      1  C   UNL     1       8.515   9.128  18.239  0.00  0.00    +0.000 C 
ATOM      2  O   UNL     1       7.939   9.224  17.158  0.00  0.00    +0.000 OA
ATOM      3  N   UNL     1       8.585   7.982  18.994  0.00  0.00    +0.000 N 
ATOM      4  C   UNL     1       8.064   6.789  18.577  0.00  0.00    +0.000 A 
ATOM      5  N   UNL     1       7.974   5.698  19.305  0.00  0.00    +0.000 NA
ATOM      6  N   UNL     1       7.429   4.730  18.491  0.00  0.00    +0.000 NA
ATOM      7  C   UNL     1       7.251   5.290  17.310  0.00  0.00    +0.000 A 
ATOM      8  O   UNL     1       7.627   6.607  17.295  0.00  0.00    +0.000 OA
ATOM      9  H   UNL     1       8.944   7.970  19.933  0.00  0.00    +0.000 HD
ENDROOT
BRANCH   1  13
ATOM     10  C   UNL     1      10.310  12.624  20.042  0.00  0.00    +0.000 A 
ATOM     11  C   UNL     1       9.819  11.572  20.813  0.00  0.00    +0.000 A 
ATOM     12  C   UNL     1       9.265  10.445  20.206  0.00  0.00    +0.000 A 
ATOM     13  C   UNL     1       9.167  10.355  18.811  0.00  0.00    +0.000 A 
ATOM     14  C   UNL     1       9.642  11.424  18.036  0.00  0.00    +0.000 A 
ATOM     15  C   UNL     1      10.216  12.551  18.651  0.00  0.00    +0.000 A 
BRANCH  10  17
ATOM     16  C   UNL     1       9.921  14.271  21.701  0.00  0.00    +0.000 C 
ATOM     17  O   UNL     1      10.802  13.683  20.752  0.00  0.00    +0.000 OA
ENDBRANCH  10  17
ENDBRANCH   1  13
BRANCH   7  18
ATOM     18  C   UNL     1       6.799   4.692  16.058  0.00  0.00    +0.000 A 
ATOM     19  C   UNL     1       7.466   5.009  14.864  0.00  0.00    +0.000 A 
ATOM     20  C   UNL     1       7.014   4.518  13.634  0.00  0.00    +0.000 A 
ATOM     21  C   UNL     1       5.882   3.701  13.574  0.00  0.00    +0.000 A 
ATOM     22  C   UNL     1       5.232   3.338  14.761  0.00  0.00    +0.000 A 
ATOM     23  C   UNL     1       5.688   3.837  15.992  0.00  0.00    +0.000 A 
BRANCH  21  24
ATOM     24  C   UNL     1       5.439   3.224  12.237  0.00  0.00    +0.000 C 
ATOM     25  O   UNL     1       4.440   3.650  11.684  0.00  0.00    +0.000 OA
BRANCH  24  26
ATOM     26  O   UNL     1       6.207   2.247  11.714  0.00  0.00    +0.000 OA
ATOM     27  H   UNL     1       5.944   1.933  10.829  0.00  0.00    +0.000 HD
ENDBRANCH  24  26
ENDBRANCH  21  24
ENDBRANCH   7  18
TORSDOF 5
ENDMDL
MODEL 6
REMARK VINA RESULT:      -8.1      1.098      1.900
REMARK  Name = 
REMARK  6 active torsions:
REMARK  status: ('A' for Active; 'I' for Inactive)
REMARK    1  A    between atoms: C_1  and  O_2
REMARK    2  A    between atoms: O_2  and  C_3
REMARK    3  A    between atoms: C_6  and  C_7
REMARK    4  A    between atoms: C_13  and  C_14
REMARK    5  A    between atoms: C_17  and  C_18
REMARK    6  A    between atoms: C_18  and  O_20
REMARK                            x       y       z     vdW  Elec       q    Type
REMARK                         _______ _______ _______ _____ _____    ______ ____
ROOT
ATOM      1  C   UNL     1       1.818   8.000  19.831  0.00  0.00    +0.000 C 
ATOM      2  O   UNL     1       2.044   8.313  18.665  0.00  0.00    +0.000 OA
ATOM      3  N   UNL     1       2.193   6.814  20.413  0.00  0.00    +0.000 N 
ATOM      4  C   UNL     1       2.928   5.867  19.755  0.00  0.00    +0.000 A 
ATOM      5  N   UNL     1       3.197   4.661  20.204  0.00  0.00    +0.000 NA
ATOM      6  N   UNL     1       3.988   4.059  19.251  0.00  0.00    +0.000 NA
ATOM      7  C   UNL     1       4.174   4.952  18.298  0.00  0.00    +0.000 A 
ATOM      8  O   UNL     1       3.517   6.128  18.550  0.00  0.00    +0.000 OA
ATOM      9  H   UNL     1       1.876   6.531  21.325  0.00  0.00    +0.000 HD
ENDROOT
BRANCH   1  13
ATOM     10  C   UNL     1      -0.417  10.634  22.432  0.00  0.00    +0.000 A 
ATOM     11  C   UNL     1       0.257   9.518  22.923  0.00  0.00    +0.000 A 
ATOM     12  C   UNL     1       0.990   8.696  22.066  0.00  0.00    +0.000 A 
ATOM     13  C   UNL     1       1.046   8.960  20.691  0.00  0.00    +0.000 A 
ATOM     14  C   UNL     1       0.349  10.072  20.194  0.00  0.00    +0.000 A 
ATOM     15  C   UNL     1      -0.375  10.908  21.064  0.00  0.00    +0.000 A 
BRANCH  10  17
ATOM     16  C   UNL     1      -2.086  12.259  22.864  0.00  0.00    +0.000 C 
ATOM     17  O   UNL     1      -1.121  11.343  23.364  0.00  0.00    +0.000 OA
ENDBRANCH  10  17
ENDBRANCH   1  13
BRANCH   7  18
ATOM     18  C   UNL     1       5.011   4.877  17.105  0.00  0.00    +0.000 A 
ATOM     19  C   UNL     1       5.963   5.881  16.869  0.00  0.00    +0.000 A 
ATOM     20  C   UNL     1       6.730   5.887  15.698  0.00  0.00    +0.000 A 
ATOM     21  C   UNL     1       6.556   4.886  14.738  0.00  0.00    +0.000 A 
ATOM     22  C   UNL     1       5.642   3.852  14.980  0.00  0.00    +0.000 A 
ATOM     23  C   UNL     1       4.873   3.854  16.154  0.00  0.00    +0.000 A 
BRANCH  21  24
ATOM     24  C   UNL     1       7.386   4.954  13.506  0.00  0.00    +0.000 C 
ATOM     25  O   UNL     1       7.146   4.291  12.512  0.00  0.00    +0.000 OA
BRANCH  24  26
ATOM     26  O   UNL     1       8.454   5.771  13.601  0.00  0.00    +0.000 OA
ATOM     27  H   UNL     1       8.483   6.503  12.958  0.00  0.00    +0.000 HD
ENDBRANCH  24  26
ENDBRANCH  21  24
ENDBRANCH   7  18
TORSDOF 5
ENDMDL
MODEL 7
REMARK VINA RESULT:      -8.0      0.949      1.274
REMARK  Name = 
REMARK  6 active torsions:
REMARK  status: ('A' for Active; 'I' for Inactive)
REMARK    1  A    between atoms: C_1  and  O_2
REMARK    2  A    between atoms: O_2  and  C_3
REMARK    3  A    between atoms: C_6  and  C_7
REMARK    4  A    between atoms: C_13  and  C_14
REMARK    5  A    between atoms: C_17  and  C_18
REMARK    6  A    between atoms: C_18  and  O_20
REMARK                            x       y       z     vdW  Elec       q    Type
REMARK                         _______ _______ _______ _____ _____    ______ ____
ROOT
ATOM      1  C   UNL     1       1.713   8.007  20.155  0.00  0.00    +0.000 C 
ATOM      2  O   UNL     1       1.992   8.367  19.014  0.00  0.00    +0.000 OA
ATOM      3  N   UNL     1       2.009   6.776  20.686  0.00  0.00    +0.000 N 
ATOM      4  C   UNL     1       2.717   5.827  20.002  0.00  0.00    +0.000 A 
ATOM      5  N   UNL     1       2.912   4.587  20.396  0.00  0.00    +0.000 NA
ATOM      6  N   UNL     1       3.703   3.994  19.437  0.00  0.00    +0.000 NA
ATOM      7  C   UNL     1       3.963   4.923  18.538  0.00  0.00    +0.000 A 
ATOM      8  O   UNL     1       3.358   6.117  18.830  0.00  0.00    +0.000 OA
ATOM      9  H   UNL     1       1.649   6.464  21.572  0.00  0.00    +0.000 HD
ENDROOT
BRANCH   1  13
ATOM     10  C   UNL     1      -0.400  10.890  22.589  0.00  0.00    +0.000 A 
ATOM     11  C   UNL     1      -0.073  11.151  21.260  0.00  0.00    +0.000 A 
ATOM     12  C   UNL     1       0.589  10.196  20.489  0.00  0.00    +0.000 A 
ATOM     13  C   UNL     1       0.962   8.962  21.039  0.00  0.00    +0.000 A 
ATOM     14  C   UNL     1       0.651   8.707  22.383  0.00  0.00    +0.000 A 
ATOM     15  C   UNL     1      -0.032   9.666  23.153  0.00  0.00    +0.000 A 
BRANCH  10  17
ATOM     16  C   UNL     1      -0.780  13.223  22.747  0.00  0.00    +0.000 C 
ATOM     17  O   UNL     1      -1.022  11.914  23.246  0.00  0.00    +0.000 OA
ENDBRANCH  10  17
ENDBRANCH   1  13
BRANCH   7  18
ATOM     18  C   UNL     1       4.834   4.865  17.368  0.00  0.00    +0.000 A 
ATOM     19  C   UNL     1       5.982   5.672  17.325  0.00  0.00    +0.000 A 
ATOM     20  C   UNL     1       6.799   5.703  16.189  0.00  0.00    +0.000 A 
ATOM     21  C   UNL     1       6.481   4.926  15.071  0.00  0.00    +0.000 A 
ATOM     22  C   UNL     1       5.364   4.081  15.116  0.00  0.00    +0.000 A 
ATOM     23  C   UNL     1       4.546   4.057  16.257  0.00  0.00    +0.000 A 
BRANCH  21  24
ATOM     24  C   UNL     1       7.376   5.014  13.887  0.00  0.00    +0.000 C 
ATOM     25  O   UNL     1       8.388   5.693  13.875  0.00  0.00    +0.000 OA
BRANCH  24  26
ATOM     26  O   UNL     1       6.946   4.320  12.814  0.00  0.00    +0.000 OA
ATOM     27  H   UNL     1       6.243   4.748  12.290  0.00  0.00    +0.000 HD
ENDBRANCH  24  26
ENDBRANCH  21  24
ENDBRANCH   7  18
TORSDOF 5
ENDMDL
MODEL 8
REMARK VINA RESULT:      -7.9      0.794      1.253
REMARK  Name = 
REMARK  6 active torsions:
REMARK  status: ('A' for Active; 'I' for Inactive)
REMARK    1  A    between atoms: C_1  and  O_2
REMARK    2  A    between atoms: O_2  and  C_3
REMARK    3  A    between atoms: C_6  and  C_7
REMARK    4  A    between atoms: C_13  and  C_14
REMARK    5  A    between atoms: C_17  and  C_18
REMARK    6  A    between atoms: C_18  and  O_20
REMARK                            x       y       z     vdW  Elec       q    Type
REMARK                         _______ _______ _______ _____ _____    ______ ____
ROOT
ATOM      1  C   UNL     1       0.794   9.394  19.931  0.00  0.00    +0.000 C 
ATOM      2  O   UNL     1       1.088   9.524  18.746  0.00  0.00    +0.000 OA
ATOM      3  N   UNL     1       1.066   8.282  20.691  0.00  0.00    +0.000 N 
ATOM      4  C   UNL     1       1.764   7.210  20.209  0.00  0.00    +0.000 A 
ATOM      5  N   UNL     1       1.935   6.065  20.834  0.00  0.00    +0.000 NA
ATOM      6  N   UNL     1       2.723   5.288  20.015  0.00  0.00    +0.000 NA
ATOM      7  C   UNL     1       3.006   6.025  18.958  0.00  0.00    +0.000 A 
ATOM      8  O   UNL     1       2.418   7.261  19.010  0.00  0.00    +0.000 OA
ATOM      9  H   UNL     1       0.694   8.150  21.616  0.00  0.00    +0.000 HD
ENDROOT
BRANCH   1  13
ATOM     10  C   UNL     1      -1.373  12.496  22.023  0.00  0.00    +0.000 A 
ATOM     11  C   UNL     1      -0.821  11.407  22.694  0.00  0.00    +0.000 A 
ATOM     12  C   UNL     1      -0.107  10.431  22.000  0.00  0.00    +0.000 A 
ATOM     13  C   UNL     1       0.051  10.510  20.609  0.00  0.00    +0.000 A 
ATOM     14  C   UNL     1      -0.523  11.596  19.931  0.00  0.00    +0.000 A 
ATOM     15  C   UNL     1      -1.228  12.587  20.637  0.00  0.00    +0.000 A 
BRANCH  10  17
ATOM     16  C   UNL     1      -1.314  14.122  23.745  0.00  0.00    +0.000 C 
ATOM     17  O   UNL     1      -2.073  13.368  22.809  0.00  0.00    +0.000 OA
ENDBRANCH  10  17
ENDBRANCH   1  13
BRANCH   7  18
ATOM     18  C   UNL     1       3.885   5.732  17.831  0.00  0.00    +0.000 A 
ATOM     19  C   UNL     1       4.226   4.398  17.553  0.00  0.00    +0.000 A 
ATOM     20  C   UNL     1       5.128   4.082  16.530  0.00  0.00    +0.000 A 
ATOM     21  C   UNL     1       5.708   5.097  15.765  0.00  0.00    +0.000 A 
ATOM     22  C   UNL     1       5.344   6.430  15.999  0.00  0.00    +0.000 A 
ATOM     23  C   UNL     1       4.442   6.741  17.029  0.00  0.00    +0.000 A 
BRANCH  21  24
ATOM     24  C   UNL     1       6.672   4.702  14.704  0.00  0.00    +0.000 C 
ATOM     25  O   UNL     1       7.632   5.388  14.397  0.00  0.00    +0.000 OA
BRANCH  24  26
ATOM     26  O   UNL     1       6.365   3.548  14.077  0.00  0.00    +0.000 OA
ATOM     27  H   UNL     1       5.569   3.573  13.516  0.00  0.00    +0.000 HD
ENDBRANCH  24  26
ENDBRANCH  21  24
ENDBRANCH   7  18
TORSDOF 5
ENDMDL
MODEL 9
REMARK VINA RESULT:      -7.8      3.060      3.664
REMARK  Name = 
REMARK  6 active torsions:
REMARK  status: ('A' for Active; 'I' for Inactive)
REMARK    1  A    between atoms: C_1  and  O_2
REMARK    2  A    between atoms: O_2  and  C_3
REMARK    3  A    between atoms: C_6  and  C_7
REMARK    4  A    between atoms: C_13  and  C_14
REMARK    5  A    between atoms: C_17  and  C_18
REMARK    6  A    between atoms: C_18  and  O_20
REMARK                            x       y       z     vdW  Elec       q    Type
REMARK                         _______ _______ _______ _____ _____    ______ ____
ROOT
ATOM      1  C   UNL     1       0.359   9.966  20.764  0.00  0.00    +0.000 C 
ATOM      2  O   UNL     1       0.784   9.093  21.517  0.00  0.00    +0.000 OA
ATOM      3  N   UNL     1       0.698  10.096  19.440  0.00  0.00    +0.000 N 
ATOM      4  C   UNL     1       1.513   9.207  18.794  0.00  0.00    +0.000 A 
ATOM      5  N   UNL     1       1.986   9.349  17.576  0.00  0.00    +0.000 NA
ATOM      6  N   UNL     1       2.722   8.217  17.309  0.00  0.00    +0.000 NA
ATOM      7  C   UNL     1       2.622   7.445  18.374  0.00  0.00    +0.000 A 
ATOM      8  O   UNL     1       1.872   8.019  19.366  0.00  0.00    +0.000 OA
ATOM      9  H   UNL     1       0.442  10.897  18.888  0.00  0.00    +0.000 HD
ENDROOT
BRANCH   1  13
ATOM     10  C   UNL     1      -2.376  12.820  22.517  0.00  0.00    +0.000 A 
ATOM     11  C   UNL     1      -1.844  11.765  23.256  0.00  0.00    +0.000 A 
ATOM     12  C   UNL     1      -0.946  10.871  22.673  0.00  0.00    +0.000 A 
ATOM     13  C   UNL     1      -0.576  10.998  21.327  0.00  0.00    +0.000 A 
ATOM     14  C   UNL     1      -1.129  12.048  20.578  0.00  0.00    +0.000 A 
ATOM     15  C   UNL     1      -2.021  12.958  21.173  0.00  0.00    +0.000 A 
BRANCH  10  17
ATOM     16  C   UNL     1      -4.197  12.939  24.028  0.00  0.00    +0.000 C 
ATOM     17  O   UNL     1      -3.265  13.610  23.190  0.00  0.00    +0.000 OA
ENDBRANCH  10  17
ENDBRANCH   1  13
BRANCH   7  18
ATOM     18  C   UNL     1       3.121   6.091  18.589  0.00  0.00    +0.000 A 
ATOM     19  C   UNL     1       2.236   5.006  18.481  0.00  0.00    +0.000 A 
ATOM     20  C   UNL     1       2.659   3.701  18.757  0.00  0.00    +0.000 A 
ATOM     21  C   UNL     1       3.978   3.455  19.149  0.00  0.00    +0.000 A 
ATOM     22  C   UNL     1       4.885   4.521  19.217  0.00  0.00    +0.000 A 
ATOM     23  C   UNL     1       4.454   5.829  18.943  0.00  0.00    +0.000 A 
BRANCH  21  24
ATOM     24  C   UNL     1       4.365   2.050  19.446  0.00  0.00    +0.000 C 
ATOM     25  O   UNL     1       5.008   1.739  20.434  0.00  0.00    +0.000 OA
BRANCH  24  26
ATOM     26  O   UNL     1       3.988   1.161  18.506  0.00  0.00    +0.000 OA
ATOM     27  H   UNL     1       4.535   1.143  17.699  0.00  0.00    +0.000 HD
ENDBRANCH  24  26
ENDBRANCH  21  24
ENDBRANCH   7  18
TORSDOF 5
ENDMDL
