MODEL 1
REMARK VINA RESULT:      -7.1      0.000      0.000
REMARK  Name = 
REMARK  7 active torsions:
REMARK  status: ('A' for Active; 'I' for Inactive)
REMARK    1  A    between atoms: C_1  and  N_2
REMARK    2  A    between atoms: N_2  and  C_3
REMARK    3  A    between atoms: C_3  and  C_4
REMARK    4  A    between atoms: C_6  and  C_7
REMARK    5  A    between atoms: C_13  and  C_15
REMARK    6  A    between atoms: C_15  and  C_16
REMARK    7  A    between atoms: C_16  and  C_17
REMARK                            x       y       z     vdW  Elec       q    Type
REMARK                         _______ _______ _______ _____ _____    ______ ____
ROOT
ATOM      1  C   UNL     1       3.690   1.477  18.447  0.00  0.00    +0.000 C 
ATOM      2  N   UNL     1       3.059   2.791  18.407  0.00  0.00    +0.000 N 
ATOM      3  C   UNL     1       2.361   3.187  19.545  0.00  0.00    +0.000 C 
ATOM      4  O   UNL     1       2.311   2.472  20.546  0.00  0.00    +0.000 OA
ENDROOT
BRANCH   2   5
ATOM      5  C   UNL     1       3.270   3.621  17.217  0.00  0.00    +0.000 C 
BRANCH   5   6
ATOM      6  C   UNL     1       4.675   4.158  17.116  0.00  0.00    +0.000 A 
ATOM      7  N   UNL     1       5.330   4.717  18.115  0.00  0.00    +0.000 NA
ATOM      8  C   UNL     1       6.650   5.006  17.747  0.00  0.00    +0.000 A 
ATOM      9  C   UNL     1       6.944   4.686  16.432  0.00  0.00    +0.000 A 
ATOM     10  S   UNL     1       5.590   3.961  15.671  0.00  0.00    +0.000 S 
BRANCH   8  11
ATOM     11  C   UNL     1       7.623   5.581  18.737  0.00  0.00    +0.000 C 
ATOM     12  F   UNL     1       8.099   6.799  18.373  0.00  0.00    +0.000 F 
ATOM     13  F   UNL     1       7.053   5.732  19.963  0.00  0.00    +0.000 F 
ATOM     14  F   UNL     1       8.703   4.771  18.912  0.00  0.00    +0.000 F 
ENDBRANCH   8  11
ENDBRANCH   5   6
ENDBRANCH   2   5
BRANCH   3  15
ATOM     15  C   UNL     1       1.640   4.519  19.500  0.00  0.00    +0.000 C 
BRANCH  15  16
ATOM     16  C   UNL     1       2.494   5.615  20.134  0.00  0.00    +0.000 C 
BRANCH  16  17
ATOM     17  C   UNL     1       2.194   6.973  19.566  0.00  0.00    +0.000 A 
ATOM     18  C   UNL     1       2.523   7.302  18.252  0.00  0.00    +0.000 A 
ATOM     19  C   UNL     1       2.214   8.567  17.761  0.00  0.00    +0.000 A 
ATOM     20  C   UNL     1       1.595   9.468  18.611  0.00  0.00    +0.000 A 
ATOM     21  N   UNL     1       1.279   9.194  19.893  0.00  0.00    +0.000 NA
ATOM     22  C   UNL     1       1.581   7.954  20.342  0.00  0.00    +0.000 A 
ENDBRANCH  16  17
ENDBRANCH  15  16
ENDBRANCH   3  15
TORSDOF 6
ENDMDL
MODEL 2
REMARK VINA RESULT:      -6.8      0.650      1.040
REMARK  Name = 
REMARK  7 active torsions:
REMARK  status: ('A' for Active; 'I' for Inactive)
REMARK    1  A    between atoms: C_1  and  N_2
REMARK    2  A    between atoms: N_2  and  C_3
REMARK    3  A    between atoms: C_3  and  C_4
REMARK    4  A    between atoms: C_6  and  C_7
REMARK    5  A    between atoms: C_13  and  C_15
REMARK    6  A    between atoms: C_15  and  C_16
REMARK    7  A    between atoms: C_16  and  C_17
REMARK                            x       y       z     vdW  Elec       q    Type
REMARK                         _______ _______ _______ _____ _____    ______ ____
ROOT
ATOM      1  C   UNL     1       3.666   1.612  18.548  0.00  0.00    +0.000 C 
ATOM      2  N   UNL     1       3.050   2.932  18.516  0.00  0.00    +0.000 N 
ATOM      3  C   UNL     1       2.358   3.330  19.656  0.00  0.00    +0.000 C 
ATOM      4  O   UNL     1       2.300   2.610  20.654  0.00  0.00    +0.000 OA
ENDROOT
BRANCH   2   5
ATOM      5  C   UNL     1       3.270   3.767  17.329  0.00  0.00    +0.000 C 
BRANCH   5   6
ATOM      6  C   UNL     1       4.688   4.263  17.214  0.00  0.00    +0.000 A 
ATOM      7  N   UNL     1       5.368   4.807  18.205  0.00  0.00    +0.000 NA
ATOM      8  C   UNL     1       6.692   5.057  17.824  0.00  0.00    +0.000 A 
ATOM      9  C   UNL     1       6.965   4.723  16.508  0.00  0.00    +0.000 A 
ATOM     10  S   UNL     1       5.585   4.033  15.763  0.00  0.00    +0.000 S 
BRANCH   8  11
ATOM     11  C   UNL     1       7.689   5.608  18.803  0.00  0.00    +0.000 C 
ATOM     12  F   UNL     1       8.185   6.818  18.437  0.00  0.00    +0.000 F 
ATOM     13  F   UNL     1       7.139   5.767  20.037  0.00  0.00    +0.000 F 
ATOM     14  F   UNL     1       8.755   4.776  18.961  0.00  0.00    +0.000 F 
ENDBRANCH   8  11
ENDBRANCH   5   6
ENDBRANCH   2   5
BRANCH   3  15
ATOM     15  C   UNL     1       1.652   4.671  19.619  0.00  0.00    +0.000 C 
BRANCH  15  16
ATOM     16  C   UNL     1       2.589   5.786  20.077  0.00  0.00    +0.000 C 
BRANCH  16  17
ATOM     17  C   UNL     1       2.258   7.107  19.442  0.00  0.00    +0.000 A 
ATOM     18  C   UNL     1       1.564   8.095  20.138  0.00  0.00    +0.000 A 
ATOM     19  C   UNL     1       1.291   9.311  19.516  0.00  0.00    +0.000 A 
ATOM     20  C   UNL     1       1.713   9.490  18.210  0.00  0.00    +0.000 A 
ATOM     21  N   UNL     1       2.369   8.552  17.499  0.00  0.00    +0.000 NA
ATOM     22  C   UNL     1       2.631   7.384  18.129  0.00  0.00    +0.000 A 
ENDBRANCH  16  17
ENDBRANCH  15  16
ENDBRANCH   3  15
TORSDOF 6
ENDMDL
MODEL 3
REMARK VINA RESULT:      -6.8      3.220      4.541
REMARK  Name = 
REMARK  7 active torsions:
REMARK  status: ('A' for Active; 'I' for Inactive)
REMARK    1  A    between atoms: C_1  and  N_2
REMARK    2  A    between atoms: N_2  and  C_3
REMARK    3  A    between atoms: C_3  and  C_4
REMARK    4  A    between atoms: C_6  and  C_7
REMARK    5  A    between atoms: C_13  and  C_15
REMARK    6  A    between atoms: C_15  and  C_16
REMARK    7  A    between atoms: C_16  and  C_17
REMARK                            x       y       z     vdW  Elec       q    Type
REMARK                         _______ _______ _______ _____ _____    ______ ____
ROOT
ATOM      1  C   UNL     1       6.356   3.985  15.787  0.00  0.00    +0.000 C 
ATOM      2  N   UNL     1       5.777   4.794  16.852  0.00  0.00    +0.000 N 
ATOM      3  C   UNL     1       5.187   5.997  16.475  0.00  0.00    +0.000 C 
ATOM      4  O   UNL     1       5.130   6.341  15.294  0.00  0.00    +0.000 OA
ENDROOT
BRANCH   2   5
ATOM      5  C   UNL     1       5.788   4.251  18.215  0.00  0.00    +0.000 C 
BRANCH   5   6
ATOM      6  C   UNL     1       4.453   3.696  18.637  0.00  0.00    +0.000 A 
ATOM      7  N   UNL     1       3.820   4.043  19.741  0.00  0.00    +0.000 NA
ATOM      8  C   UNL     1       2.553   3.448  19.798  0.00  0.00    +0.000 A 
ATOM      9  C   UNL     1       2.280   2.616  18.726  0.00  0.00    +0.000 A 
ATOM     10  S   UNL     1       3.580   2.626  17.609  0.00  0.00    +0.000 S 
BRANCH   8  11
ATOM     11  C   UNL     1       1.607   3.746  20.927  0.00  0.00    +0.000 C 
ATOM     12  F   UNL     1       2.155   4.528  21.892  0.00  0.00    +0.000 F 
ATOM     13  F   UNL     1       0.493   4.391  20.485  0.00  0.00    +0.000 F 
ATOM     14  F   UNL     1       1.176   2.609  21.538  0.00  0.00    +0.000 F 
ENDBRANCH   8  11
ENDBRANCH   5   6
ENDBRANCH   2   5
BRANCH   3  15
ATOM     15  C   UNL     1       4.640   6.887  17.574  0.00  0.00    +0.000 C 
BRANCH  15  16
ATOM     16  C   UNL     1       3.344   7.560  17.127  0.00  0.00    +0.000 C 
BRANCH  16  17
ATOM     17  C   UNL     1       2.509   8.020  18.288  0.00  0.00    +0.000 A 
ATOM     18  C   UNL     1       1.811   9.226  18.250  0.00  0.00    +0.000 A 
ATOM     19  C   UNL     1       1.037   9.608  19.343  0.00  0.00    +0.000 A 
ATOM     20  C   UNL     1       1.001   8.772  20.445  0.00  0.00    +0.000 A 
ATOM     21  N   UNL     1       1.676   7.609  20.527  0.00  0.00    +0.000 NA
ATOM     22  C   UNL     1       2.412   7.256  19.448  0.00  0.00    +0.000 A 
ENDBRANCH  16  17
ENDBRANCH  15  16
ENDBRANCH   3  15
TORSDOF 6
ENDMDL
MODEL 4
REMARK VINA RESULT:      -6.7      4.018      6.836
REMARK  Name = 
REMARK  7 active torsions:
REMARK  status: ('A' for Active; 'I' for Inactive)
REMARK    1  A    between atoms: C_1  and  N_2
REMARK    2  A    between atoms: N_2  and  C_3
REMARK    3  A    between atoms: C_3  and  C_4
REMARK    4  A    between atoms: C_6  and  C_7
REMARK    5  A    between atoms: C_13  and  C_15
REMARK    6  A    between atoms: C_15  and  C_16
REMARK    7  A    between atoms: C_16  and  C_17
REMARK                            x       y       z     vdW  Elec       q    Type
REMARK                         _______ _______ _______ _____ _____    ______ ____
ROOT
ATOM      1  C   UNL     1       3.307   7.448  17.609  0.00  0.00    +0.000 C 
ATOM      2  N   UNL     1       4.522   6.647  17.696  0.00  0.00    +0.000 N 
ATOM      3  C   UNL     1       5.282   6.532  16.535  0.00  0.00    +0.000 C 
ATOM      4  O   UNL     1       4.956   7.109  15.497  0.00  0.00    +0.000 OA
ENDROOT
BRANCH   2   5
ATOM      5  C   UNL     1       4.891   6.093  19.003  0.00  0.00    +0.000 C 
BRANCH   5   6
ATOM      6  C   UNL     1       4.101   4.862  19.365  0.00  0.00    +0.000 A 
ATOM      7  N   UNL     1       2.867   4.881  19.831  0.00  0.00    +0.000 NA
ATOM      8  C   UNL     1       2.362   3.582  19.959  0.00  0.00    +0.000 A 
ATOM      9  C   UNL     1       3.269   2.594  19.616  0.00  0.00    +0.000 A 
ATOM     10  S   UNL     1       4.737   3.290  19.067  0.00  0.00    +0.000 S 
BRANCH   8  11
ATOM     11  C   UNL     1       0.946   3.341  20.403  0.00  0.00    +0.000 C 
ATOM     12  F   UNL     1       0.242   2.560  19.545  0.00  0.00    +0.000 F 
ATOM     13  F   UNL     1       0.904   2.729  21.617  0.00  0.00    +0.000 F 
ATOM     14  F   UNL     1       0.254   4.506  20.535  0.00  0.00    +0.000 F 
ENDBRANCH   8  11
ENDBRANCH   5   6
ENDBRANCH   2   5
BRANCH   3  15
ATOM     15  C   UNL     1       6.512   5.648  16.584  0.00  0.00    +0.000 C 
BRANCH  15  16
ATOM     16  C   UNL     1       6.247   4.318  15.882  0.00  0.00    +0.000 C 
BRANCH  16  17
ATOM     17  C   UNL     1       6.602   4.362  14.423  0.00  0.00    +0.000 A 
ATOM     18  C   UNL     1       5.999   3.508  13.500  0.00  0.00    +0.000 A 
ATOM     19  C   UNL     1       6.347   3.592  12.155  0.00  0.00    +0.000 A 
ATOM     20  C   UNL     1       7.299   4.523  11.780  0.00  0.00    +0.000 A 
ATOM     21  N   UNL     1       7.917   5.353  12.644  0.00  0.00    +0.000 NA
ATOM     22  C   UNL     1       7.554   5.258  13.944  0.00  0.00    +0.000 A 
ENDBRANCH  16  17
ENDBRANCH  15  16
ENDBRANCH   3  15
TORSDOF 6
ENDMDL
MODEL 5
REMARK VINA RESULT:      -6.7      2.270      2.665
REMARK  Name = 
REMARK  7 active torsions:
REMARK  status: ('A' for Active; 'I' for Inactive)
REMARK    1  A    between atoms: C_1  and  N_2
REMARK    2  A    between atoms: N_2  and  C_3
REMARK    3  A    between atoms: C_3  and  C_4
REMARK    4  A    between atoms: C_6  and  C_7
REMARK    5  A    between atoms: C_13  and  C_15
REMARK    6  A    between atoms: C_15  and  C_16
REMARK    7  A    between atoms: C_16  and  C_17
REMARK                            x       y       z     vdW  Elec       q    Type
REMARK                         _______ _______ _______ _____ _____    ______ ____
ROOT
ATOM      1  C   UNL     1       3.042   2.059  18.288  0.00  0.00    +0.000 C 
ATOM      2  N   UNL     1       3.387   3.307  18.958  0.00  0.00    +0.000 N 
ATOM      3  C   UNL     1       2.344   4.195  19.207  0.00  0.00    +0.000 C 
ATOM      4  O   UNL     1       1.182   3.920  18.904  0.00  0.00    +0.000 OA
ENDROOT
BRANCH   2   5
ATOM      5  C   UNL     1       4.777   3.498  19.386  0.00  0.00    +0.000 C 
BRANCH   5   6
ATOM      6  C   UNL     1       5.627   4.171  18.340  0.00  0.00    +0.000 A 
ATOM      7  N   UNL     1       5.574   3.897  17.051  0.00  0.00    +0.000 NA
ATOM      8  C   UNL     1       6.395   4.766  16.322  0.00  0.00    +0.000 A 
ATOM      9  C   UNL     1       7.093   5.665  17.110  0.00  0.00    +0.000 A 
ATOM     10  S   UNL     1       6.674   5.471  18.760  0.00  0.00    +0.000 S 
BRANCH   8  11
ATOM     11  C   UNL     1       6.450   4.703  14.821  0.00  0.00    +0.000 C 
ATOM     12  F   UNL     1       6.320   3.443  14.334  0.00  0.00    +0.000 F 
ATOM     13  F   UNL     1       5.462   5.448  14.256  0.00  0.00    +0.000 F 
ATOM     14  F   UNL     1       7.625   5.194  14.339  0.00  0.00    +0.000 F 
ENDBRANCH   8  11
ENDBRANCH   5   6
ENDBRANCH   2   5
BRANCH   3  15
ATOM     15  C   UNL     1       2.690   5.527  19.841  0.00  0.00    +0.000 C 
BRANCH  15  16
ATOM     16  C   UNL     1       2.974   6.576  18.769  0.00  0.00    +0.000 C 
BRANCH  16  17
ATOM     17  C   UNL     1       2.154   7.821  18.956  0.00  0.00    +0.000 A 
ATOM     18  C   UNL     1       1.879   8.679  17.892  0.00  0.00    +0.000 A 
ATOM     19  C   UNL     1       1.102   9.814  18.106  0.00  0.00    +0.000 A 
ATOM     20  C   UNL     1       0.637  10.058  19.386  0.00  0.00    +0.000 A 
ATOM     21  N   UNL     1       0.897   9.264  20.443  0.00  0.00    +0.000 NA
ATOM     22  C   UNL     1       1.645   8.162  20.206  0.00  0.00    +0.000 A 
ENDBRANCH  16  17
ENDBRANCH  15  16
ENDBRANCH   3  15
TORSDOF 6
ENDMDL
MODEL 6
REMARK VINA RESULT:      -6.6      3.514      4.790
REMARK  Name = 
REMARK  7 active torsions:
REMARK  status: ('A' for Active; 'I' for Inactive)
REMARK    1  A    between atoms: C_1  and  N_2
REMARK    2  A    between atoms: N_2  and  C_3
REMARK    3  A    between atoms: C_3  and  C_4
REMARK    4  A    between atoms: C_6  and  C_7
REMARK    5  A    between atoms: C_13  and  C_15
REMARK    6  A    between atoms: C_15  and  C_16
REMARK    7  A    between atoms: C_16  and  C_17
REMARK                            x       y       z     vdW  Elec       q    Type
REMARK                         _______ _______ _______ _____ _____    ______ ____
ROOT
ATOM      1  C   UNL     1       7.077   5.768  17.358  0.00  0.00    +0.000 C 
ATOM      2  N   UNL     1       5.726   5.869  17.897  0.00  0.00    +0.000 N 
ATOM      3  C   UNL     1       4.776   6.494  17.095  0.00  0.00    +0.000 C 
ATOM      4  O   UNL     1       5.060   6.910  15.971  0.00  0.00    +0.000 OA
ENDROOT
BRANCH   2   5
ATOM      5  C   UNL     1       5.453   5.242  19.195  0.00  0.00    +0.000 C 
BRANCH   5   6
ATOM      6  C   UNL     1       4.338   4.229  19.135  0.00  0.00    +0.000 A 
ATOM      7  N   UNL     1       3.259   4.267  19.892  0.00  0.00    +0.000 NA
ATOM      8  C   UNL     1       2.355   3.263  19.523  0.00  0.00    +0.000 A 
ATOM      9  C   UNL     1       2.812   2.451  18.499  0.00  0.00    +0.000 A 
ATOM     10  S   UNL     1       4.346   2.982  17.949  0.00  0.00    +0.000 S 
BRANCH   8  11
ATOM     11  C   UNL     1       1.014   3.144  20.191  0.00  0.00    +0.000 C 
ATOM     12  F   UNL     1       0.453   4.346  20.481  0.00  0.00    +0.000 F 
ATOM     13  F   UNL     1       0.126   2.474  19.407  0.00  0.00    +0.000 F 
ATOM     14  F   UNL     1       1.092   2.453  21.361  0.00  0.00    +0.000 F 
ENDBRANCH   8  11
ENDBRANCH   5   6
ENDBRANCH   2   5
BRANCH   3  15
ATOM     15  C   UNL     1       3.382   6.671  17.663  0.00  0.00    +0.000 C 
BRANCH  15  16
ATOM     16  C   UNL     1       2.991   8.147  17.680  0.00  0.00    +0.000 C 
BRANCH  16  17
ATOM     17  C   UNL     1       2.074   8.482  18.822  0.00  0.00    +0.000 A 
ATOM     18  C   UNL     1       2.036   7.703  19.978  0.00  0.00    +0.000 A 
ATOM     19  C   UNL     1       1.182   8.058  21.019  0.00  0.00    +0.000 A 
ATOM     20  C   UNL     1       0.383   9.177  20.860  0.00  0.00    +0.000 A 
ATOM     21  N   UNL     1       0.378   9.943  19.751  0.00  0.00    +0.000 NA
ATOM     22  C   UNL     1       1.224   9.583  18.759  0.00  0.00    +0.000 A 
ENDBRANCH  16  17
ENDBRANCH  15  16
ENDBRANCH   3  15
TORSDOF 6
ENDMDL
MODEL 7
REMARK VINA RESULT:      -6.6      5.373      8.044
REMARK  Name = 
REMARK  7 active torsions:
REMARK  status: ('A' for Active; 'I' for Inactive)
REMARK    1  A    between atoms: C_1  and  N_2
REMARK    2  A    between atoms: N_2  and  C_3
REMARK    3  A    between atoms: C_3  and  C_4
REMARK    4  A    between atoms: C_6  and  C_7
REMARK    5  A    between atoms: C_13  and  C_15
REMARK    6  A    between atoms: C_15  and  C_16
REMARK    7  A    between atoms: C_16  and  C_17
REMARK                            x       y       z     vdW  Elec       q    Type
REMARK                         _______ _______ _______ _____ _____    ______ ____
ROOT
ATOM      1  C   UNL     1       1.068   8.482  20.820  0.00  0.00    +0.000 C 
ATOM      2  N   UNL     1       1.768   8.522  19.542  0.00  0.00    +0.000 N 
ATOM      3  C   UNL     1       2.333   7.329  19.099  0.00  0.00    +0.000 C 
ATOM      4  O   UNL     1       2.217   6.287  19.744  0.00  0.00    +0.000 OA
ENDROOT
BRANCH   2   5
ATOM      5  C   UNL     1       1.756   9.780  18.788  0.00  0.00    +0.000 C 
BRANCH   5   6
ATOM      6  C   UNL     1       0.368  10.330  18.583  0.00  0.00    +0.000 A 
ATOM      7  N   UNL     1      -0.546   9.772  17.813  0.00  0.00    +0.000 NA
ATOM      8  C   UNL     1      -1.768  10.447  17.920  0.00  0.00    +0.000 A 
ATOM      9  C   UNL     1      -1.726  11.548  18.758  0.00  0.00    +0.000 A 
ATOM     10  S   UNL     1      -0.174  11.704  19.468  0.00  0.00    +0.000 S 
BRANCH   8  11
ATOM     11  C   UNL     1      -2.990   9.958  17.193  0.00  0.00    +0.000 C 
ATOM     12  F   UNL     1      -2.708   9.409  15.983  0.00  0.00    +0.000 F 
ATOM     13  F   UNL     1      -3.649   9.009  17.911  0.00  0.00    +0.000 F 
ATOM     14  F   UNL     1      -3.881  10.962  16.972  0.00  0.00    +0.000 F 
ENDBRANCH   8  11
ENDBRANCH   5   6
ENDBRANCH   2   5
BRANCH   3  15
ATOM     15  C   UNL     1       3.124   7.363  17.807  0.00  0.00    +0.000 C 
BRANCH  15  16
ATOM     16  C   UNL     1       3.824   6.027  17.568  0.00  0.00    +0.000 C 
BRANCH  16  17
ATOM     17  C   UNL     1       5.246   6.032  18.054  0.00  0.00    +0.000 A 
ATOM     18  C   UNL     1       6.243   6.734  17.379  0.00  0.00    +0.000 A 
ATOM     19  C   UNL     1       7.545   6.725  17.871  0.00  0.00    +0.000 A 
ATOM     20  C   UNL     1       7.807   5.999  19.020  0.00  0.00    +0.000 A 
ATOM     21  N   UNL     1       6.874   5.292  19.689  0.00  0.00    +0.000 NA
ATOM     22  C   UNL     1       5.615   5.326  19.196  0.00  0.00    +0.000 A 
ENDBRANCH  16  17
ENDBRANCH  15  16
ENDBRANCH   3  15
TORSDOF 6
ENDMDL
MODEL 8
REMARK VINA RESULT:      -6.6      3.989      6.853
REMARK  Name = 
REMARK  7 active torsions:
REMARK  status: ('A' for Active; 'I' for Inactive)
REMARK    1  A    between atoms: C_1  and  N_2
REMARK    2  A    between atoms: N_2  and  C_3
REMARK    3  A    between atoms: C_3  and  C_4
REMARK    4  A    between atoms: C_6  and  C_7
REMARK    5  A    between atoms: C_13  and  C_15
REMARK    6  A    between atoms: C_15  and  C_16
REMARK    7  A    between atoms: C_16  and  C_17
REMARK                            x       y       z     vdW  Elec       q    Type
REMARK                         _______ _______ _______ _____ _____    ______ ____
ROOT
ATOM      1  C   UNL     1       3.450   7.180  17.713  0.00  0.00    +0.000 C 
ATOM      2  N   UNL     1       4.688   6.411  17.749  0.00  0.00    +0.000 N 
ATOM      3  C   UNL     1       5.455   6.403  16.587  0.00  0.00    +0.000 C 
ATOM      4  O   UNL     1       5.116   7.043  15.591  0.00  0.00    +0.000 OA
ENDROOT
BRANCH   2   5
ATOM      5  C   UNL     1       5.069   5.776  19.015  0.00  0.00    +0.000 C 
BRANCH   5   6
ATOM      6  C   UNL     1       4.198   4.598  19.368  0.00  0.00    +0.000 A 
ATOM      7  N   UNL     1       2.972   4.697  19.844  0.00  0.00    +0.000 NA
ATOM      8  C   UNL     1       2.379   3.434  19.960  0.00  0.00    +0.000 A 
ATOM      9  C   UNL     1       3.213   2.390  19.597  0.00  0.00    +0.000 A 
ATOM     10  S   UNL     1       4.721   2.990  19.045  0.00  0.00    +0.000 S 
BRANCH   8  11
ATOM     11  C   UNL     1       0.953   3.287  20.414  0.00  0.00    +0.000 C 
ATOM     12  F   UNL     1       0.182   2.595  19.536  0.00  0.00    +0.000 F 
ATOM     13  F   UNL     1       0.875   2.634  21.605  0.00  0.00    +0.000 F 
ATOM     14  F   UNL     1       0.354   4.495  20.597  0.00  0.00    +0.000 F 
ENDBRANCH   8  11
ENDBRANCH   5   6
ENDBRANCH   2   5
BRANCH   3  15
ATOM     15  C   UNL     1       6.711   5.555  16.579  0.00  0.00    +0.000 C 
BRANCH  15  16
ATOM     16  C   UNL     1       6.454   4.219  15.887  0.00  0.00    +0.000 C 
BRANCH  16  17
ATOM     17  C   UNL     1       6.693   4.288  14.405  0.00  0.00    +0.000 A 
ATOM     18  C   UNL     1       7.637   5.156  13.859  0.00  0.00    +0.000 A 
ATOM     19  C   UNL     1       7.836   5.178  12.482  0.00  0.00    +0.000 A 
ATOM     20  C   UNL     1       7.072   4.335  11.695  0.00  0.00    +0.000 A 
ATOM     21  N   UNL     1       6.137   3.495  12.183  0.00  0.00    +0.000 NA
ATOM     22  C   UNL     1       5.970   3.486  13.525  0.00  0.00    +0.000 A 
ENDBRANCH  16  17
ENDBRANCH  15  16
ENDBRANCH   3  15
TORSDOF 6
ENDMDL
MODEL 9
REMARK VINA RESULT:      -6.5      4.663      6.507
REMARK  Name = 
REMARK  7 active torsions:
REMARK  status: ('A' for Active; 'I' for Inactive)
REMARK    1  A    between atoms: C_1  and  N_2
REMARK    2  A    between atoms: N_2  and  C_3
REMARK    3  A    between atoms: C_3  and  C_4
REMARK    4  A    between atoms: C_6  and  C_7
REMARK    5  A    between atoms: C_13  and  C_15
REMARK    6  A    between atoms: C_15  and  C_16
REMARK    7  A    between atoms: C_16  and  C_17
REMARK                            x       y       z     vdW  Elec       q    Type
REMARK                         _______ _______ _______ _____ _____    ______ ____
ROOT
ATOM      1  C   UNL     1       6.316   4.372  17.029  0.00  0.00    +0.000 C 
ATOM      2  N   UNL     1       6.610   5.509  17.891  0.00  0.00    +0.000 N 
ATOM      3  C   UNL     1       7.339   6.552  17.327  0.00  0.00    +0.000 C 
ATOM      4  O   UNL     1       7.687   6.525  16.146  0.00  0.00    +0.000 OA
ENDROOT
BRANCH   2   5
ATOM      5  C   UNL     1       6.056   5.507  19.249  0.00  0.00    +0.000 C 
BRANCH   5   6
ATOM      6  C   UNL     1       4.590   5.159  19.286  0.00  0.00    +0.000 A 
ATOM      7  N   UNL     1       4.093   4.099  19.892  0.00  0.00    +0.000 NA
ATOM      8  C   UNL     1       2.693   4.111  19.853  0.00  0.00    +0.000 A 
ATOM      9  C   UNL     1       2.165   5.189  19.162  0.00  0.00    +0.000 A 
ATOM     10  S   UNL     1       3.416   6.226  18.617  0.00  0.00    +0.000 S 
BRANCH   8  11
ATOM     11  C   UNL     1       1.889   3.044  20.541  0.00  0.00    +0.000 C 
ATOM     12  F   UNL     1       0.610   3.421  20.797  0.00  0.00    +0.000 F 
ATOM     13  F   UNL     1       1.823   1.911  19.791  0.00  0.00    +0.000 F 
ATOM     14  F   UNL     1       2.441   2.686  21.733  0.00  0.00    +0.000 F 
ENDBRANCH   8  11
ENDBRANCH   5   6
ENDBRANCH   2   5
BRANCH   3  15
ATOM     15  C   UNL     1       7.716   7.714  18.224  0.00  0.00    +0.000 C 
BRANCH  15  16
ATOM     16  C   UNL     1       8.210   8.897  17.395  0.00  0.00    +0.000 C 
BRANCH  16  17
ATOM     17  C   UNL     1       8.679  10.039  18.252  0.00  0.00    +0.000 A 
ATOM     18  C   UNL     1       9.268   9.822  19.496  0.00  0.00    +0.000 A 
ATOM     19  C   UNL     1       9.702  10.908  20.251  0.00  0.00    +0.000 A 
ATOM     20  C   UNL     1       9.517  12.180  19.738  0.00  0.00    +0.000 A 
ATOM     21  N   UNL     1       8.935  12.431  18.548  0.00  0.00    +0.000 NA
ATOM     22  C   UNL     1       8.532  11.358  17.830  0.00  0.00    +0.000 A 
ENDBRANCH  16  17
ENDBRANCH  15  16
ENDBRANCH   3  15
TORSDOF 6
ENDMDL
