MODEL 1
REMARK VINA RESULT:      -7.3      0.000      0.000
REMARK  Name = 
REMARK  11 active torsions:
REMARK  status: ('A' for Active; 'I' for Inactive)
REMARK    1  A    between atoms: C_1  and  C_2
REMARK    2  A    between atoms: C_2  and  N_3
REMARK    3  A    between atoms: N_3  and  C_4
REMARK    4  A    between atoms: N_3  and  C_6
REMARK    5  A    between atoms: C_4  and  C_5
REMARK    6  A    between atoms: C_6  and  N_8
REMARK    7  A    between atoms: N_8  and  N_9
REMARK    8  A    between atoms: N_13  and  C_14
REMARK    9  A    between atoms: C_14  and  N_15
REMARK   10  A    between atoms: N_18  and  C_19
REMARK   11  A    between atoms: C_22  and  N_23
REMARK                            x       y       z     vdW  Elec       q    Type
REMARK                         _______ _______ _______ _____ _____    ______ ____
ROOT
ATOM      1  N   UNL     1       4.497   4.083  16.903  0.00  0.00    +0.000 NA
ATOM      2  C   UNL     1       3.552   4.660  17.595  0.00  0.00    +0.000 C 
ATOM      3  C   UNL     1       3.414   6.165  17.793  0.00  0.00    +0.000 C 
ATOM      4  O   UNL     1       3.606   6.979  16.913  0.00  0.00    +0.000 OA
ATOM      5  N   UNL     1       2.956   6.329  19.083  0.00  0.00    +0.000 N 
ATOM      6  C   UNL     1       2.306   5.113  19.457  0.00  0.00    +0.000 A 
ATOM      7  C   UNL     1       1.385   4.879  20.464  0.00  0.00    +0.000 A 
ATOM      8  C   UNL     1       0.646   3.679  20.424  0.00  0.00    +0.000 A 
ATOM      9  C   UNL     1       0.845   2.727  19.407  0.00  0.00    +0.000 A 
ATOM     10  C   UNL     1       1.848   2.918  18.442  0.00  0.00    +0.000 A 
ATOM     11  C   UNL     1       2.571   4.099  18.516  0.00  0.00    +0.000 A 
ENDROOT
BRANCH   1  12
ATOM     12  N   UNL     1       5.183   4.981  16.119  0.00  0.00    +0.000 N 
ATOM     13  H   UNL     1       4.644   5.385  15.347  0.00  0.00    +0.000 HD
BRANCH  12  14
ATOM     14  C   UNL     1       6.481   5.391  16.074  0.00  0.00    +0.000 C 
ATOM     15  S   UNL     1       7.207   4.997  14.593  0.00  0.00    +0.000 S 
BRANCH  14  16
ATOM     16  N   UNL     1       7.090   6.103  17.102  0.00  0.00    +0.000 N 
BRANCH  16  18
ATOM     17  C   UNL     1       8.152   8.267  17.928  0.00  0.00    +0.000 C 
ATOM     18  C   UNL     1       7.073   7.590  17.081  0.00  0.00    +0.000 C 
ENDBRANCH  16  18
BRANCH  16  19
ATOM     19  C   UNL     1       7.613   5.424  18.300  0.00  0.00    +0.000 C 
ATOM     20  C   UNL     1       6.714   5.351  19.533  0.00  0.00    +0.000 C 
ENDBRANCH  16  19
ENDBRANCH  14  16
ENDBRANCH  12  14
ENDBRANCH   1  12
BRANCH   5  21
ATOM     21  C   UNL     1       2.741   7.666  19.600  0.00  0.00    +0.000 C 
BRANCH  21  22
ATOM     22  N   UNL     1       1.386   8.164  19.312  0.00  0.00    +0.000 NA
ATOM     23  C   UNL     1       0.742   9.016  20.335  0.00  0.00    +0.000 C 
ATOM     24  C   UNL     1       1.174  10.513  20.479  0.00  0.00    +0.000 C 
ATOM     25  N   UNL     1       1.359  11.245  19.189  0.00  0.00    +0.000 N 
ATOM     26  C   UNL     1       1.809  10.405  18.058  0.00  0.00    +0.000 C 
ATOM     27  C   UNL     1       1.326   8.927  18.048  0.00  0.00    +0.000 C 
BRANCH  25  28
ATOM     28  C   UNL     1       1.914  12.550  19.264  0.00  0.00    +0.000 A 
ATOM     29  C   UNL     1       2.277  13.277  18.107  0.00  0.00    +0.000 A 
ATOM     30  C   UNL     1       2.933  14.515  18.161  0.00  0.00    +0.000 A 
ATOM     31  C   UNL     1       3.214  15.094  19.390  0.00  0.00    +0.000 A 
ATOM     32  C   UNL     1       2.746  14.482  20.558  0.00  0.00    +0.000 A 
ATOM     33  C   UNL     1       2.104  13.228  20.490  0.00  0.00    +0.000 A 
BRANCH  31  34
ATOM     34  N   UNL     1       4.013  16.321  19.453  0.00  0.00    +0.000 N 
ATOM     35  O   UNL     1       3.905  17.130  18.513  0.00  0.00    +0.000 OA
ATOM     36  O   UNL     1       4.775  16.479  20.421  0.00  0.00    +0.000 OA
ENDBRANCH  31  34
ENDBRANCH  25  28
ENDBRANCH  21  22
ENDBRANCH   5  21
TORSDOF 9
ENDMDL
MODEL 2
REMARK VINA RESULT:      -6.8      3.846      4.749
REMARK  Name = 
REMARK  11 active torsions:
REMARK  status: ('A' for Active; 'I' for Inactive)
REMARK    1  A    between atoms: C_1  and  C_2
REMARK    2  A    between atoms: C_2  and  N_3
REMARK    3  A    between atoms: N_3  and  C_4
REMARK    4  A    between atoms: N_3  and  C_6
REMARK    5  A    between atoms: C_4  and  C_5
REMARK    6  A    between atoms: C_6  and  N_8
REMARK    7  A    between atoms: N_8  and  N_9
REMARK    8  A    between atoms: N_13  and  C_14
REMARK    9  A    between atoms: C_14  and  N_15
REMARK   10  A    between atoms: N_18  and  C_19
REMARK   11  A    between atoms: C_22  and  N_23
REMARK                            x       y       z     vdW  Elec       q    Type
REMARK                         _______ _______ _______ _____ _____    ______ ____
ROOT
ATOM      1  N   UNL     1       5.648   3.564  19.180  0.00  0.00    +0.000 NA
ATOM      2  C   UNL     1       4.373   3.844  19.185  0.00  0.00    +0.000 C 
ATOM      3  C   UNL     1       3.714   4.919  18.327  0.00  0.00    +0.000 C 
ATOM      4  O   UNL     1       4.005   5.124  17.166  0.00  0.00    +0.000 OA
ATOM      5  N   UNL     1       2.724   5.468  19.114  0.00  0.00    +0.000 N 
ATOM      6  C   UNL     1       2.380   4.492  20.100  0.00  0.00    +0.000 A 
ATOM      7  C   UNL     1       1.236   4.385  20.874  0.00  0.00    +0.000 A 
ATOM      8  C   UNL     1       0.988   3.161  21.529  0.00  0.00    +0.000 A 
ATOM      9  C   UNL     1       1.880   2.077  21.424  0.00  0.00    +0.000 A 
ATOM     10  C   UNL     1       3.088   2.217  20.721  0.00  0.00    +0.000 A 
ATOM     11  C   UNL     1       3.314   3.437  20.102  0.00  0.00    +0.000 A 
ENDROOT
BRANCH   1  12
ATOM     12  N   UNL     1       6.294   4.127  18.104  0.00  0.00    +0.000 N 
ATOM     13  H   UNL     1       6.186   3.622  17.219  0.00  0.00    +0.000 HD
BRANCH  12  14
ATOM     14  C   UNL     1       7.150   5.177  17.964  0.00  0.00    +0.000 C 
ATOM     15  S   UNL     1       7.881   5.585  19.440  0.00  0.00    +0.000 S 
BRANCH  14  16
ATOM     16  N   UNL     1       7.425   5.778  16.740  0.00  0.00    +0.000 N 
BRANCH  16  18
ATOM     17  C   UNL     1       6.020   5.190  14.697  0.00  0.00    +0.000 C 
ATOM     18  C   UNL     1       7.314   4.985  15.487  0.00  0.00    +0.000 C 
ENDBRANCH  16  18
BRANCH  16  19
ATOM     19  C   UNL     1       7.665   7.227  16.634  0.00  0.00    +0.000 C 
ATOM     20  C   UNL     1       6.863   8.156  17.544  0.00  0.00    +0.000 C 
ENDBRANCH  16  19
ENDBRANCH  14  16
ENDBRANCH  12  14
ENDBRANCH   1  12
BRANCH   5  21
ATOM     21  C   UNL     1       1.915   6.551  18.593  0.00  0.00    +0.000 C 
BRANCH  21  22
ATOM     22  N   UNL     1       2.356   7.865  19.087  0.00  0.00    +0.000 NA
ATOM     23  C   UNL     1       2.378   8.984  18.119  0.00  0.00    +0.000 C 
ATOM     24  C   UNL     1       1.038   9.678  17.708  0.00  0.00    +0.000 C 
ATOM     25  N   UNL     1       0.091   9.943  18.834  0.00  0.00    +0.000 N 
ATOM     26  C   UNL     1       0.161   8.969  19.945  0.00  0.00    +0.000 C 
ATOM     27  C   UNL     1       1.550   8.333  20.233  0.00  0.00    +0.000 C 
BRANCH  25  28
ATOM     28  C   UNL     1      -1.203  10.414  18.489  0.00  0.00    +0.000 A 
ATOM     29  C   UNL     1      -1.810  11.497  19.164  0.00  0.00    +0.000 A 
ATOM     30  C   UNL     1      -3.131  11.902  18.920  0.00  0.00    +0.000 A 
ATOM     31  C   UNL     1      -3.882  11.255  17.949  0.00  0.00    +0.000 A 
ATOM     32  C   UNL     1      -3.277  10.274  17.155  0.00  0.00    +0.000 A 
ATOM     33  C   UNL     1      -1.955   9.864  17.425  0.00  0.00    +0.000 A 
BRANCH  31  34
ATOM     34  N   UNL     1      -5.300  11.588  17.782  0.00  0.00    +0.000 N 
ATOM     35  O   UNL     1      -5.578  12.667  17.227  0.00  0.00    +0.000 OA
ATOM     36  O   UNL     1      -6.147  10.796  18.224  0.00  0.00    +0.000 OA
ENDBRANCH  31  34
ENDBRANCH  25  28
ENDBRANCH  21  22
ENDBRANCH   5  21
TORSDOF 9
ENDMDL
MODEL 3
REMARK VINA RESULT:      -6.8      0.499      1.458
REMARK  Name = 
REMARK  11 active torsions:
REMARK  status: ('A' for Active; 'I' for Inactive)
REMARK    1  A    between atoms: C_1  and  C_2
REMARK    2  A    between atoms: C_2  and  N_3
REMARK    3  A    between atoms: N_3  and  C_4
REMARK    4  A    between atoms: N_3  and  C_6
REMARK    5  A    between atoms: C_4  and  C_5
REMARK    6  A    between atoms: C_6  and  N_8
REMARK    7  A    between atoms: N_8  and  N_9
REMARK    8  A    between atoms: N_13  and  C_14
REMARK    9  A    between atoms: C_14  and  N_15
REMARK   10  A    between atoms: N_18  and  C_19
REMARK   11  A    between atoms: C_22  and  N_23
REMARK                            x       y       z     vdW  Elec       q    Type
REMARK                         _______ _______ _______ _____ _____    ______ ____
ROOT
ATOM      1  N   UNL     1       4.535   3.835  16.997  0.00  0.00    +0.000 NA
ATOM      2  C   UNL     1       3.599   4.474  17.645  0.00  0.00    +0.000 C 
ATOM      3  C   UNL     1       3.478   5.992  17.726  0.00  0.00    +0.000 C 
ATOM      4  O   UNL     1       3.676   6.733  16.786  0.00  0.00    +0.000 OA
ATOM      5  N   UNL     1       3.026   6.260  19.001  0.00  0.00    +0.000 N 
ATOM      6  C   UNL     1       2.364   5.083  19.469  0.00  0.00    +0.000 A 
ATOM      7  C   UNL     1       1.443   4.938  20.494  0.00  0.00    +0.000 A 
ATOM      8  C   UNL     1       0.691   3.746  20.548  0.00  0.00    +0.000 A 
ATOM      9  C   UNL     1       0.877   2.716  19.606  0.00  0.00    +0.000 A 
ATOM     10  C   UNL     1       1.879   2.821  18.628  0.00  0.00    +0.000 A 
ATOM     11  C   UNL     1       2.614   3.997  18.609  0.00  0.00    +0.000 A 
ENDROOT
BRANCH   1  12
ATOM     12  N   UNL     1       5.229   4.662  16.145  0.00  0.00    +0.000 N 
ATOM     13  H   UNL     1       4.758   4.867  15.258  0.00  0.00    +0.000 HD
BRANCH  12  14
ATOM     14  C   UNL     1       6.477   5.206  16.170  0.00  0.00    +0.000 C 
ATOM     15  S   UNL     1       7.261   5.034  14.676  0.00  0.00    +0.000 S 
BRANCH  14  16
ATOM     16  N   UNL     1       6.995   5.875  17.275  0.00  0.00    +0.000 N 
BRANCH  16  18
ATOM     17  C   UNL     1       7.706   5.625  19.709  0.00  0.00    +0.000 C 
ATOM     18  C   UNL     1       7.823   5.135  18.264  0.00  0.00    +0.000 C 
ENDBRANCH  16  18
BRANCH  16  19
ATOM     19  C   UNL     1       6.883   7.338  17.407  0.00  0.00    +0.000 C 
ATOM     20  C   UNL     1       8.170   8.147  17.551  0.00  0.00    +0.000 C 
ENDBRANCH  16  19
ENDBRANCH  14  16
ENDBRANCH  12  14
ENDBRANCH   1  12
BRANCH   5  21
ATOM     21  C   UNL     1       2.826   7.634  19.414  0.00  0.00    +0.000 C 
BRANCH  21  22
ATOM     22  N   UNL     1       1.464   8.112  19.125  0.00  0.00    +0.000 NA
ATOM     23  C   UNL     1       0.779   8.893  20.178  0.00  0.00    +0.000 C 
ATOM     24  C   UNL     1       1.168  10.390  20.408  0.00  0.00    +0.000 C 
ATOM     25  N   UNL     1       1.357  11.194  19.162  0.00  0.00    +0.000 N 
ATOM     26  C   UNL     1       1.851  10.425  17.998  0.00  0.00    +0.000 C 
ATOM     27  C   UNL     1       1.408   8.939  17.902  0.00  0.00    +0.000 C 
BRANCH  25  28
ATOM     28  C   UNL     1       1.876  12.507  19.316  0.00  0.00    +0.000 A 
ATOM     29  C   UNL     1       1.736  13.229  20.523  0.00  0.00    +0.000 A 
ATOM     30  C   UNL     1       2.136  14.567  20.660  0.00  0.00    +0.000 A 
ATOM     31  C   UNL     1       2.734  15.220  19.592  0.00  0.00    +0.000 A 
ATOM     32  C   UNL     1       3.026  14.503  18.426  0.00  0.00    +0.000 A 
ATOM     33  C   UNL     1       2.600  13.165  18.296  0.00  0.00    +0.000 A 
BRANCH  31  34
ATOM     34  N   UNL     1       3.034  16.652  19.688  0.00  0.00    +0.000 N 
ATOM     35  O   UNL     1       3.039  17.167  20.822  0.00  0.00    +0.000 OA
ATOM     36  O   UNL     1       3.238  17.282  18.638  0.00  0.00    +0.000 OA
ENDBRANCH  31  34
ENDBRANCH  25  28
ENDBRANCH  21  22
ENDBRANCH   5  21
TORSDOF 9
ENDMDL
MODEL 4
REMARK VINA RESULT:      -6.6      3.790      4.504
REMARK  Name = 
REMARK  11 active torsions:
REMARK  status: ('A' for Active; 'I' for Inactive)
REMARK    1  A    between atoms: C_1  and  C_2
REMARK    2  A    between atoms: C_2  and  N_3
REMARK    3  A    between atoms: N_3  and  C_4
REMARK    4  A    between atoms: N_3  and  C_6
REMARK    5  A    between atoms: C_4  and  C_5
REMARK    6  A    between atoms: C_6  and  N_8
REMARK    7  A    between atoms: N_8  and  N_9
REMARK    8  A    between atoms: N_13  and  C_14
REMARK    9  A    between atoms: C_14  and  N_15
REMARK   10  A    between atoms: N_18  and  C_19
REMARK   11  A    between atoms: C_22  and  N_23
REMARK                            x       y       z     vdW  Elec       q    Type
REMARK                         _______ _______ _______ _____ _____    ______ ____
ROOT
ATOM      1  N   UNL     1       5.728   3.660  19.114  0.00  0.00    +0.000 NA
ATOM      2  C   UNL     1       4.447   3.909  19.143  0.00  0.00    +0.000 C 
ATOM      3  C   UNL     1       3.748   4.974  18.305  0.00  0.00    +0.000 C 
ATOM      4  O   UNL     1       4.014   5.196  17.142  0.00  0.00    +0.000 OA
ATOM      5  N   UNL     1       2.758   5.491  19.114  0.00  0.00    +0.000 N 
ATOM      6  C   UNL     1       2.454   4.499  20.096  0.00  0.00    +0.000 A 
ATOM      7  C   UNL     1       1.327   4.358  20.888  0.00  0.00    +0.000 A 
ATOM      8  C   UNL     1       1.120   3.122  21.536  0.00  0.00    +0.000 A 
ATOM      9  C   UNL     1       2.036   2.061  21.407  0.00  0.00    +0.000 A 
ATOM     10  C   UNL     1       3.228   2.237  20.685  0.00  0.00    +0.000 A 
ATOM     11  C   UNL     1       3.414   3.468  20.073  0.00  0.00    +0.000 A 
ENDROOT
BRANCH   1  12
ATOM     12  N   UNL     1       6.342   4.248  18.033  0.00  0.00    +0.000 N 
ATOM     13  H   UNL     1       6.209   3.763  17.140  0.00  0.00    +0.000 HD
BRANCH  12  14
ATOM     14  C   UNL     1       7.193   5.302  17.892  0.00  0.00    +0.000 C 
ATOM     15  S   UNL     1       7.990   5.658  19.346  0.00  0.00    +0.000 S 
BRANCH  14  16
ATOM     16  N   UNL     1       7.414   5.945  16.678  0.00  0.00    +0.000 N 
BRANCH  16  18
ATOM     17  C   UNL     1       6.798   8.273  17.511  0.00  0.00    +0.000 C 
ATOM     18  C   UNL     1       7.721   7.400  16.658  0.00  0.00    +0.000 C 
ENDBRANCH  16  18
BRANCH  16  19
ATOM     19  C   UNL     1       7.517   5.189  15.418  0.00  0.00    +0.000 C 
ATOM     20  C   UNL     1       6.230   4.893  14.651  0.00  0.00    +0.000 C 
ENDBRANCH  16  19
ENDBRANCH  14  16
ENDBRANCH  12  14
ENDBRANCH   1  12
BRANCH   5  21
ATOM     21  C   UNL     1       1.914   6.558  18.616  0.00  0.00    +0.000 C 
BRANCH  21  22
ATOM     22  N   UNL     1       2.448   7.891  18.941  0.00  0.00    +0.000 NA
ATOM     23  C   UNL     1       2.309   8.948  17.916  0.00  0.00    +0.000 C 
ATOM     24  C   UNL     1       0.924   9.644  17.703  0.00  0.00    +0.000 C 
ATOM     25  N   UNL     1       0.193   9.995  18.959  0.00  0.00    +0.000 N 
ATOM     26  C   UNL     1       0.448   9.088  20.099  0.00  0.00    +0.000 C 
ATOM     27  C   UNL     1       1.860   8.443  20.179  0.00  0.00    +0.000 C 
BRANCH  25  28
ATOM     28  C   UNL     1      -1.137  10.470  18.817  0.00  0.00    +0.000 A 
ATOM     29  C   UNL     1      -2.039   9.902  17.888  0.00  0.00    +0.000 A 
ATOM     30  C   UNL     1      -3.317  10.430  17.648  0.00  0.00    +0.000 A 
ATOM     31  C   UNL     1      -3.755  11.531  18.370  0.00  0.00    +0.000 A 
ATOM     32  C   UNL     1      -2.955  12.037  19.401  0.00  0.00    +0.000 A 
ATOM     33  C   UNL     1      -1.665  11.509  19.617  0.00  0.00    +0.000 A 
BRANCH  31  34
ATOM     34  N   UNL     1      -5.034  12.162  18.032  0.00  0.00    +0.000 N 
ATOM     35  O   UNL     1      -5.640  12.763  18.939  0.00  0.00    +0.000 OA
ATOM     36  O   UNL     1      -5.461  12.043  16.872  0.00  0.00    +0.000 OA
ENDBRANCH  31  34
ENDBRANCH  25  28
ENDBRANCH  21  22
ENDBRANCH   5  21
TORSDOF 9
ENDMDL
MODEL 5
REMARK VINA RESULT:      -6.5      0.462      1.059
REMARK  Name = 
REMARK  11 active torsions:
REMARK  status: ('A' for Active; 'I' for Inactive)
REMARK    1  A    between atoms: C_1  and  C_2
REMARK    2  A    between atoms: C_2  and  N_3
REMARK    3  A    between atoms: N_3  and  C_4
REMARK    4  A    between atoms: N_3  and  C_6
REMARK    5  A    between atoms: C_4  and  C_5
REMARK    6  A    between atoms: C_6  and  N_8
REMARK    7  A    between atoms: N_8  and  N_9
REMARK    8  A    between atoms: N_13  and  C_14
REMARK    9  A    between atoms: C_14  and  N_15
REMARK   10  A    between atoms: N_18  and  C_19
REMARK   11  A    between atoms: C_22  and  N_23
REMARK                            x       y       z     vdW  Elec       q    Type
REMARK                         _______ _______ _______ _____ _____    ______ ____
ROOT
ATOM      1  N   UNL     1       4.643   3.926  17.093  0.00  0.00    +0.000 NA
ATOM      2  C   UNL     1       3.700   4.558  17.737  0.00  0.00    +0.000 C 
ATOM      3  C   UNL     1       3.550   6.074  17.794  0.00  0.00    +0.000 C 
ATOM      4  O   UNL     1       3.727   6.803  16.839  0.00  0.00    +0.000 OA
ATOM      5  N   UNL     1       3.103   6.356  19.067  0.00  0.00    +0.000 N 
ATOM      6  C   UNL     1       2.467   5.175  19.561  0.00  0.00    +0.000 A 
ATOM      7  C   UNL     1       1.557   5.030  20.595  0.00  0.00    +0.000 A 
ATOM      8  C   UNL     1       0.828   3.825  20.675  0.00  0.00    +0.000 A 
ATOM      9  C   UNL     1       1.026   2.783  19.750  0.00  0.00    +0.000 A 
ATOM     10  C   UNL     1       2.018   2.890  18.762  0.00  0.00    +0.000 A 
ATOM     11  C   UNL     1       2.731   4.079  18.717  0.00  0.00    +0.000 A 
ENDROOT
BRANCH   1  12
ATOM     12  N   UNL     1       5.314   4.751  16.222  0.00  0.00    +0.000 N 
ATOM     13  H   UNL     1       4.771   5.059  15.409  0.00  0.00    +0.000 HD
BRANCH  12  14
ATOM     14  C   UNL     1       6.602   5.184  16.139  0.00  0.00    +0.000 C 
ATOM     15  S   UNL     1       7.205   5.048  14.559  0.00  0.00    +0.000 S 
BRANCH  14  16
ATOM     16  N   UNL     1       7.293   5.729  17.216  0.00  0.00    +0.000 N 
BRANCH  16  18
ATOM     17  C   UNL     1       7.897   5.592  19.689  0.00  0.00    +0.000 C 
ATOM     18  C   UNL     1       7.680   4.863  18.362  0.00  0.00    +0.000 C 
ENDBRANCH  16  18
BRANCH  16  19
ATOM     19  C   UNL     1       7.800   7.112  17.181  0.00  0.00    +0.000 C 
ATOM     20  C   UNL     1       6.841   8.239  17.560  0.00  0.00    +0.000 C 
ENDBRANCH  16  19
ENDBRANCH  14  16
ENDBRANCH  12  14
ENDBRANCH   1  12
BRANCH   5  21
ATOM     21  C   UNL     1       2.880   7.733  19.459  0.00  0.00    +0.000 C 
BRANCH  21  22
ATOM     22  N   UNL     1       1.528   8.200  19.111  0.00  0.00    +0.000 NA
ATOM     23  C   UNL     1       0.792   8.976  20.134  0.00  0.00    +0.000 C 
ATOM     24  C   UNL     1       1.160  10.476  20.381  0.00  0.00    +0.000 C 
ATOM     25  N   UNL     1       1.396  11.281  19.143  0.00  0.00    +0.000 N 
ATOM     26  C   UNL     1       1.945  10.517  18.002  0.00  0.00    +0.000 C 
ATOM     27  C   UNL     1       1.518   9.027  17.887  0.00  0.00    +0.000 C 
BRANCH  25  28
ATOM     28  C   UNL     1       1.897  12.598  19.319  0.00  0.00    +0.000 A 
ATOM     29  C   UNL     1       2.452  13.337  18.249  0.00  0.00    +0.000 A 
ATOM     30  C   UNL     1       3.058  14.590  18.423  0.00  0.00    +0.000 A 
ATOM     31  C   UNL     1       3.093  15.170  19.683  0.00  0.00    +0.000 A 
ATOM     32  C   UNL     1       2.430  14.544  20.744  0.00  0.00    +0.000 A 
ATOM     33  C   UNL     1       1.841  13.275  20.559  0.00  0.00    +0.000 A 
BRANCH  31  34
ATOM     34  N   UNL     1       3.838  16.415  19.893  0.00  0.00    +0.000 N 
ATOM     35  O   UNL     1       3.438  17.434  19.300  0.00  0.00    +0.000 OA
ATOM     36  O   UNL     1       4.841  16.385  20.623  0.00  0.00    +0.000 OA
ENDBRANCH  31  34
ENDBRANCH  25  28
ENDBRANCH  21  22
ENDBRANCH   5  21
TORSDOF 9
ENDMDL
MODEL 6
REMARK VINA RESULT:      -6.4      3.149      5.826
REMARK  Name = 
REMARK  11 active torsions:
REMARK  status: ('A' for Active; 'I' for Inactive)
REMARK    1  A    between atoms: C_1  and  C_2
REMARK    2  A    between atoms: C_2  and  N_3
REMARK    3  A    between atoms: N_3  and  C_4
REMARK    4  A    between atoms: N_3  and  C_6
REMARK    5  A    between atoms: C_4  and  C_5
REMARK    6  A    between atoms: C_6  and  N_8
REMARK    7  A    between atoms: N_8  and  N_9
REMARK    8  A    between atoms: N_13  and  C_14
REMARK    9  A    between atoms: C_14  and  N_15
REMARK   10  A    between atoms: N_18  and  C_19
REMARK   11  A    between atoms: C_22  and  N_23
REMARK                            x       y       z     vdW  Elec       q    Type
REMARK                         _______ _______ _______ _____ _____    ______ ____
ROOT
ATOM      1  N   UNL     1       1.547   8.044  21.073  0.00  0.00    +0.000 NA
ATOM      2  C   UNL     1       0.980   9.194  20.828  0.00  0.00    +0.000 C 
ATOM      3  C   UNL     1       1.227  10.039  19.583  0.00  0.00    +0.000 C 
ATOM      4  O   UNL     1       1.333   9.575  18.466  0.00  0.00    +0.000 OA
ATOM      5  N   UNL     1       1.194  11.349  20.011  0.00  0.00    +0.000 N 
ATOM      6  C   UNL     1       0.432  11.379  21.219  0.00  0.00    +0.000 A 
ATOM      7  C   UNL     1      -0.198  12.446  21.838  0.00  0.00    +0.000 A 
ATOM      8  C   UNL     1      -1.156  12.166  22.834  0.00  0.00    +0.000 A 
ATOM      9  C   UNL     1      -1.458  10.844  23.213  0.00  0.00    +0.000 A 
ATOM     10  C   UNL     1      -0.749   9.767  22.656  0.00  0.00    +0.000 A 
ATOM     11  C   UNL     1       0.200  10.073  21.692  0.00  0.00    +0.000 A 
ENDROOT
BRANCH   1  12
ATOM     12  N   UNL     1       2.161   7.525  19.957  0.00  0.00    +0.000 N 
ATOM     13  H   UNL     1       2.329   8.196  19.201  0.00  0.00    +0.000 HD
BRANCH  12  14
ATOM     14  C   UNL     1       2.516   6.266  19.578  0.00  0.00    +0.000 C 
ATOM     15  S   UNL     1       1.935   5.102  20.666  0.00  0.00    +0.000 S 
BRANCH  14  16
ATOM     16  N   UNL     1       3.210   5.992  18.404  0.00  0.00    +0.000 N 
BRANCH  16  18
ATOM     17  C   UNL     1       4.843   6.699  16.581  0.00  0.00    +0.000 C 
ATOM     18  C   UNL     1       3.785   7.108  17.608  0.00  0.00    +0.000 C 
ENDBRANCH  16  18
BRANCH  16  19
ATOM     19  C   UNL     1       3.534   4.609  18.011  0.00  0.00    +0.000 C 
ATOM     20  C   UNL     1       2.449   3.786  17.320  0.00  0.00    +0.000 C 
ENDBRANCH  16  19
ENDBRANCH  14  16
ENDBRANCH  12  14
ENDBRANCH   1  12
BRANCH   5  21
ATOM     21  C   UNL     1       1.422  12.418  19.059  0.00  0.00    +0.000 C 
BRANCH  21  22
ATOM     22  N   UNL     1       1.307  13.749  19.676  0.00  0.00    +0.000 NA
ATOM     23  C   UNL     1       2.260  14.083  20.757  0.00  0.00    +0.000 C 
ATOM     24  C   UNL     1       3.734  14.465  20.398  0.00  0.00    +0.000 C 
ATOM     25  N   UNL     1       3.882  15.386  19.229  0.00  0.00    +0.000 N 
ATOM     26  C   UNL     1       2.834  15.248  18.195  0.00  0.00    +0.000 C 
ATOM     27  C   UNL     1       1.417  14.838  18.684  0.00  0.00    +0.000 C 
BRANCH  25  28
ATOM     28  C   UNL     1       5.202  15.624  18.762  0.00  0.00    +0.000 A 
ATOM     29  C   UNL     1       5.927  14.647  18.042  0.00  0.00    +0.000 A 
ATOM     30  C   UNL     1       7.271  14.816  17.673  0.00  0.00    +0.000 A 
ATOM     31  C   UNL     1       7.927  15.999  17.980  0.00  0.00    +0.000 A 
ATOM     32  C   UNL     1       7.208  17.050  18.561  0.00  0.00    +0.000 A 
ATOM     33  C   UNL     1       5.864  16.859  18.944  0.00  0.00    +0.000 A 
BRANCH  31  34
ATOM     34  N   UNL     1       9.362  16.128  17.712  0.00  0.00    +0.000 N 
ATOM     35  O   UNL     1       9.830  17.277  17.606  0.00  0.00    +0.000 OA
ATOM     36  O   UNL     1      10.031  15.091  17.577  0.00  0.00    +0.000 OA
ENDBRANCH  31  34
ENDBRANCH  25  28
ENDBRANCH  21  22
ENDBRANCH   5  21
TORSDOF 9
ENDMDL
MODEL 7
REMARK VINA RESULT:      -6.4      5.420      7.359
REMARK  Name = 
REMARK  11 active torsions:
REMARK  status: ('A' for Active; 'I' for Inactive)
REMARK    1  A    between atoms: C_1  and  C_2
REMARK    2  A    between atoms: C_2  and  N_3
REMARK    3  A    between atoms: N_3  and  C_4
REMARK    4  A    between atoms: N_3  and  C_6
REMARK    5  A    between atoms: C_4  and  C_5
REMARK    6  A    between atoms: C_6  and  N_8
REMARK    7  A    between atoms: N_8  and  N_9
REMARK    8  A    between atoms: N_13  and  C_14
REMARK    9  A    between atoms: C_14  and  N_15
REMARK   10  A    between atoms: N_18  and  C_19
REMARK   11  A    between atoms: C_22  and  N_23
REMARK                            x       y       z     vdW  Elec       q    Type
REMARK                         _______ _______ _______ _____ _____    ______ ____
ROOT
ATOM      1  N   UNL     1       0.565   8.184  17.802  0.00  0.00    +0.000 NA
ATOM      2  C   UNL     1       0.141   9.418  17.851  0.00  0.00    +0.000 C 
ATOM      3  C   UNL     1       0.953  10.597  18.374  0.00  0.00    +0.000 C 
ATOM      4  O   UNL     1       2.135  10.753  18.146  0.00  0.00    +0.000 OA
ATOM      5  N   UNL     1       0.049  11.412  19.022  0.00  0.00    +0.000 N 
ATOM      6  C   UNL     1      -1.241  11.129  18.475  0.00  0.00    +0.000 A 
ATOM      7  C   UNL     1      -2.397  11.892  18.500  0.00  0.00    +0.000 A 
ATOM      8  C   UNL     1      -3.439  11.550  17.613  0.00  0.00    +0.000 A 
ATOM      9  C   UNL     1      -3.329  10.454  16.737  0.00  0.00    +0.000 A 
ATOM     10  C   UNL     1      -2.199   9.621  16.781  0.00  0.00    +0.000 A 
ATOM     11  C   UNL     1      -1.197   9.971  17.674  0.00  0.00    +0.000 A 
ENDROOT
BRANCH   1  12
ATOM     12  N   UNL     1       1.925   8.100  17.989  0.00  0.00    +0.000 N 
ATOM     13  H   UNL     1       2.474   8.833  17.529  0.00  0.00    +0.000 HD
BRANCH  12  14
ATOM     14  C   UNL     1       2.738   7.181  18.579  0.00  0.00    +0.000 C 
ATOM     15  S   UNL     1       2.407   7.029  20.236  0.00  0.00    +0.000 S 
BRANCH  14  16
ATOM     16  N   UNL     1       3.670   6.425  17.876  0.00  0.00    +0.000 N 
BRANCH  16  18
ATOM     17  C   UNL     1       4.624   4.358  19.021  0.00  0.00    +0.000 C 
ATOM     18  C   UNL     1       3.657   4.943  17.990  0.00  0.00    +0.000 C 
ENDBRANCH  16  18
BRANCH  16  19
ATOM     19  C   UNL     1       4.570   7.045  16.887  0.00  0.00    +0.000 C 
ATOM     20  C   UNL     1       5.387   6.124  15.983  0.00  0.00    +0.000 C 
ENDBRANCH  16  19
ENDBRANCH  14  16
ENDBRANCH  12  14
ENDBRANCH   1  12
BRANCH   5  21
ATOM     21  C   UNL     1       0.512  12.627  19.662  0.00  0.00    +0.000 C 
BRANCH  21  22
ATOM     22  N   UNL     1       0.849  12.417  21.080  0.00  0.00    +0.000 NA
ATOM     23  C   UNL     1       0.521  13.506  22.026  0.00  0.00    +0.000 C 
ATOM     24  C   UNL     1      -0.960  13.707  22.490  0.00  0.00    +0.000 C 
ATOM     25  N   UNL     1      -1.696  12.449  22.822  0.00  0.00    +0.000 N 
ATOM     26  C   UNL     1      -1.271  11.261  22.050  0.00  0.00    +0.000 C 
ATOM     27  C   UNL     1       0.223  11.196  21.629  0.00  0.00    +0.000 C 
BRANCH  25  28
ATOM     28  C   UNL     1      -3.086  12.568  23.083  0.00  0.00    +0.000 A 
ATOM     29  C   UNL     1      -3.610  12.502  24.395  0.00  0.00    +0.000 A 
ATOM     30  C   UNL     1      -4.987  12.499  24.665  0.00  0.00    +0.000 A 
ATOM     31  C   UNL     1      -5.895  12.605  23.621  0.00  0.00    +0.000 A 
ATOM     32  C   UNL     1      -5.422  12.818  22.321  0.00  0.00    +0.000 A 
ATOM     33  C   UNL     1      -4.036  12.800  22.062  0.00  0.00    +0.000 A 
BRANCH  31  34
ATOM     34  N   UNL     1      -7.330  12.472  23.886  0.00  0.00    +0.000 N 
ATOM     35  O   UNL     1      -7.892  11.425  23.513  0.00  0.00    +0.000 OA
ATOM     36  O   UNL     1      -7.916  13.415  24.441  0.00  0.00    +0.000 OA
ENDBRANCH  31  34
ENDBRANCH  25  28
ENDBRANCH  21  22
ENDBRANCH   5  21
TORSDOF 9
ENDMDL
MODEL 8
REMARK VINA RESULT:      -6.4      3.447      9.382
REMARK  Name = 
REMARK  11 active torsions:
REMARK  status: ('A' for Active; 'I' for Inactive)
REMARK    1  A    between atoms: C_1  and  C_2
REMARK    2  A    between atoms: C_2  and  N_3
REMARK    3  A    between atoms: N_3  and  C_4
REMARK    4  A    between atoms: N_3  and  C_6
REMARK    5  A    between atoms: C_4  and  C_5
REMARK    6  A    between atoms: C_6  and  N_8
REMARK    7  A    between atoms: N_8  and  N_9
REMARK    8  A    between atoms: N_13  and  C_14
REMARK    9  A    between atoms: C_14  and  N_15
REMARK   10  A    between atoms: N_18  and  C_19
REMARK   11  A    between atoms: C_22  and  N_23
REMARK                            x       y       z     vdW  Elec       q    Type
REMARK                         _______ _______ _______ _____ _____    ______ ____
ROOT
ATOM      1  N   UNL     1       0.614  15.759  19.532  0.00  0.00    +0.000 NA
ATOM      2  C   UNL     1       0.607  14.801  20.419  0.00  0.00    +0.000 C 
ATOM      3  C   UNL     1       1.474  13.549  20.353  0.00  0.00    +0.000 C 
ATOM      4  O   UNL     1       2.638  13.554  20.006  0.00  0.00    +0.000 OA
ATOM      5  N   UNL     1       0.690  12.528  20.845  0.00  0.00    +0.000 N 
ATOM      6  C   UNL     1      -0.307  13.125  21.677  0.00  0.00    +0.000 A 
ATOM      7  C   UNL     1      -1.085  12.554  22.670  0.00  0.00    +0.000 A 
ATOM      8  C   UNL     1      -1.753  13.413  23.568  0.00  0.00    +0.000 A 
ATOM      9  C   UNL     1      -1.657  14.813  23.456  0.00  0.00    +0.000 A 
ATOM     10  C   UNL     1      -0.949  15.392  22.391  0.00  0.00    +0.000 A 
ATOM     11  C   UNL     1      -0.317  14.524  21.513  0.00  0.00    +0.000 A 
ENDROOT
BRANCH   1  12
ATOM     12  N   UNL     1       1.697  15.674  18.689  0.00  0.00    +0.000 N 
ATOM     13  H   UNL     1       1.876  14.741  18.305  0.00  0.00    +0.000 HD
BRANCH  12  14
ATOM     14  C   UNL     1       2.672  16.548  18.318  0.00  0.00    +0.000 C 
ATOM     15  S   UNL     1       2.246  17.396  16.911  0.00  0.00    +0.000 S 
BRANCH  14  16
ATOM     16  N   UNL     1       3.833  16.753  19.056  0.00  0.00    +0.000 N 
BRANCH  16  18
ATOM     17  C   UNL     1       4.069  16.201  21.533  0.00  0.00    +0.000 C 
ATOM     18  C   UNL     1       3.741  17.240  20.458  0.00  0.00    +0.000 C 
ENDBRANCH  16  18
BRANCH  16  19
ATOM     19  C   UNL     1       5.151  16.342  18.541  0.00  0.00    +0.000 C 
ATOM     20  C   UNL     1       5.308  14.913  18.026  0.00  0.00    +0.000 C 
ENDBRANCH  16  19
ENDBRANCH  14  16
ENDBRANCH  12  14
ENDBRANCH   1  12
BRANCH   5  21
ATOM     21  C   UNL     1       1.219  11.180  20.895  0.00  0.00    +0.000 C 
BRANCH  21  22
ATOM     22  N   UNL     1       0.296  10.195  20.307  0.00  0.00    +0.000 NA
ATOM     23  C   UNL     1       0.372   9.980  18.845  0.00  0.00    +0.000 C 
ATOM     24  C   UNL     1       1.538   9.124  18.249  0.00  0.00    +0.000 C 
ATOM     25  N   UNL     1       1.859   7.876  19.007  0.00  0.00    +0.000 N 
ATOM     26  C   UNL     1       1.608   7.953  20.463  0.00  0.00    +0.000 C 
ATOM     27  C   UNL     1       0.433   8.860  20.924  0.00  0.00    +0.000 C 
BRANCH  25  28
ATOM     28  C   UNL     1       3.016   7.158  18.604  0.00  0.00    +0.000 A 
ATOM     29  C   UNL     1       3.558   6.113  19.387  0.00  0.00    +0.000 A 
ATOM     30  C   UNL     1       4.764   5.471  19.067  0.00  0.00    +0.000 A 
ATOM     31  C   UNL     1       5.453   5.830  17.917  0.00  0.00    +0.000 A 
ATOM     32  C   UNL     1       4.882   6.755  17.037  0.00  0.00    +0.000 A 
ATOM     33  C   UNL     1       3.679   7.407  17.381  0.00  0.00    +0.000 A 
BRANCH  31  34
ATOM     34  N   UNL     1       6.775   5.254  17.650  0.00  0.00    +0.000 N 
ATOM     35  O   UNL     1       7.510   5.848  16.839  0.00  0.00    +0.000 OA
ATOM     36  O   UNL     1       7.081   4.194  18.219  0.00  0.00    +0.000 OA
ENDBRANCH  31  34
ENDBRANCH  25  28
ENDBRANCH  21  22
ENDBRANCH   5  21
TORSDOF 9
ENDMDL
MODEL 9
REMARK VINA RESULT:      -6.4      3.927      4.936
REMARK  Name = 
REMARK  11 active torsions:
REMARK  status: ('A' for Active; 'I' for Inactive)
REMARK    1  A    between atoms: C_1  and  C_2
REMARK    2  A    between atoms: C_2  and  N_3
REMARK    3  A    between atoms: N_3  and  C_4
REMARK    4  A    between atoms: N_3  and  C_6
REMARK    5  A    between atoms: C_4  and  C_5
REMARK    6  A    between atoms: C_6  and  N_8
REMARK    7  A    between atoms: N_8  and  N_9
REMARK    8  A    between atoms: N_13  and  C_14
REMARK    9  A    between atoms: C_14  and  N_15
REMARK   10  A    between atoms: N_18  and  C_19
REMARK   11  A    between atoms: C_22  and  N_23
REMARK                            x       y       z     vdW  Elec       q    Type
REMARK                         _______ _______ _______ _____ _____    ______ ____
ROOT
ATOM      1  N   UNL     1       5.507   5.233  19.252  0.00  0.00    +0.000 NA
ATOM      2  C   UNL     1       4.204   5.196  19.325  0.00  0.00    +0.000 C 
ATOM      3  C   UNL     1       3.278   6.345  18.944  0.00  0.00    +0.000 C 
ATOM      4  O   UNL     1       3.449   7.053  17.972  0.00  0.00    +0.000 OA
ATOM      5  N   UNL     1       2.240   6.301  19.850  0.00  0.00    +0.000 N 
ATOM      6  C   UNL     1       2.175   4.964  20.352  0.00  0.00    +0.000 A 
ATOM      7  C   UNL     1       1.129   4.307  20.979  0.00  0.00    +0.000 A 
ATOM      8  C   UNL     1       1.193   2.902  21.082  0.00  0.00    +0.000 A 
ATOM      9  C   UNL     1       2.293   2.177  20.585  0.00  0.00    +0.000 A 
ATOM     10  C   UNL     1       3.398   2.851  20.038  0.00  0.00    +0.000 A 
ATOM     11  C   UNL     1       3.315   4.233  19.965  0.00  0.00    +0.000 A 
ENDROOT
BRANCH   1  12
ATOM     12  N   UNL     1       5.951   6.305  18.513  0.00  0.00    +0.000 N 
ATOM     13  H   UNL     1       5.655   7.224  18.859  0.00  0.00    +0.000 HD
BRANCH  12  14
ATOM     14  C   UNL     1       6.629   6.422  17.338  0.00  0.00    +0.000 C 
ATOM     15  S   UNL     1       7.772   7.674  17.401  0.00  0.00    +0.000 S 
BRANCH  14  16
ATOM     16  N   UNL     1       6.437   5.565  16.260  0.00  0.00    +0.000 N 
BRANCH  16  18
ATOM     17  C   UNL     1       4.553   3.851  16.166  0.00  0.00    +0.000 C 
ATOM     18  C   UNL     1       5.057   5.249  15.803  0.00  0.00    +0.000 C 
ENDBRANCH  16  18
BRANCH  16  19
ATOM     19  C   UNL     1       7.570   5.089  15.448  0.00  0.00    +0.000 C 
ATOM     20  C   UNL     1       7.343   4.875  13.953  0.00  0.00    +0.000 C 
ENDBRANCH  16  19
ENDBRANCH  14  16
ENDBRANCH  12  14
ENDBRANCH   1  12
BRANCH   5  21
ATOM     21  C   UNL     1       1.184   7.290  19.777  0.00  0.00    +0.000 C 
BRANCH  21  22
ATOM     22  N   UNL     1       1.698   8.665  19.891  0.00  0.00    +0.000 NA
ATOM     23  C   UNL     1       1.604   9.529  18.694  0.00  0.00    +0.000 C 
ATOM     24  C   UNL     1       0.228  10.162  18.303  0.00  0.00    +0.000 C 
ATOM     25  N   UNL     1      -0.561  10.716  19.446  0.00  0.00    +0.000 N 
ATOM     26  C   UNL     1      -0.356  10.021  20.735  0.00  0.00    +0.000 C 
ATOM     27  C   UNL     1       1.052   9.415  20.988  0.00  0.00    +0.000 C 
BRANCH  25  28
ATOM     28  C   UNL     1      -1.886  11.145  19.164  0.00  0.00    +0.000 A 
ATOM     29  C   UNL     1      -2.510  12.176  19.902  0.00  0.00    +0.000 A 
ATOM     30  C   UNL     1      -3.855  12.535  19.720  0.00  0.00    +0.000 A 
ATOM     31  C   UNL     1      -4.614  11.894  18.752  0.00  0.00    +0.000 A 
ATOM     32  C   UNL     1      -3.999  10.969  17.900  0.00  0.00    +0.000 A 
ATOM     33  C   UNL     1      -2.653  10.605  18.108  0.00  0.00    +0.000 A 
BRANCH  31  34
ATOM     34  N   UNL     1      -6.049  12.174  18.647  0.00  0.00    +0.000 N 
ATOM     35  O   UNL     1      -6.628  11.841  17.596  0.00  0.00    +0.000 OA
ATOM     36  O   UNL     1      -6.606  12.752  19.594  0.00  0.00    +0.000 OA
ENDBRANCH  31  34
ENDBRANCH  25  28
ENDBRANCH  21  22
ENDBRANCH   5  21
TORSDOF 9
ENDMDL
