MODEL 1
REMARK VINA RESULT:      -7.0      0.000      0.000
REMARK  Name = 
REMARK  11 active torsions:
REMARK  status: ('A' for Active; 'I' for Inactive)
REMARK    1  A    between atoms: C_1  and  N_2
REMARK    2  A    between atoms: N_2  and  C_3
REMARK    3  A    between atoms: N_2  and  C_4
REMARK    4  A    between atoms: C_4  and  C_5
REMARK    5  A    between atoms: C_5  and  N_6
REMARK    6  A    between atoms: N_6  and  C_7
REMARK    7  A    between atoms: N_15  and  C1*_16
REMARK    8  A    between atoms: C4*_18  and  C5*_19
REMARK    9  A    between atoms: C5*_19  and  O5*_20
REMARK   10  A    between atoms: C3*_21  and  O3*_22
REMARK   11  A    between atoms: C2*_23  and  O2*_24
REMARK                            x       y       z     vdW  Elec       q    Type
REMARK                         _______ _______ _______ _____ _____    ______ ____
ROOT
ATOM      1  C   UNL     1       6.790   6.746  17.088  0.00  0.00    +0.000 A 
ATOM      2  N   UNL     1       7.571   5.664  16.813  0.00  0.00    +0.000 NA
ATOM      3  C   UNL     1       7.044   4.429  16.913  0.00  0.00    +0.000 A 
ATOM      4  N   UNL     1       5.790   4.086  17.252  0.00  0.00    +0.000 NA
ATOM      5  C   UNL     1       5.051   5.175  17.521  0.00  0.00    +0.000 A 
ATOM      6  C   UNL     1       5.453   6.499  17.466  0.00  0.00    +0.000 A 
ATOM      7  N   UNL     1       4.406   7.338  17.794  0.00  0.00    +0.000 NA
ATOM      8  C   UNL     1       3.392   6.533  18.041  0.00  0.00    +0.000 A 
ATOM      9  N   UNL     1       3.735   5.215  17.889  0.00  0.00    +0.000 N 
ENDROOT
BRANCH   9  10
ATOM     10  C1* UNL     1       2.836   4.091  18.045  0.00  0.00    +0.000 C 
ATOM     11  O4* UNL     1       1.662   4.508  18.775  0.00  0.00    +0.000 OA
ATOM     12  C4* UNL     1       1.317   3.471  19.728  0.00  0.00    +0.000 C 
ATOM     13  C3* UNL     1       2.203   2.268  19.411  0.00  0.00    +0.000 C 
ATOM     14  C2* UNL     1       3.436   2.890  18.775  0.00  0.00    +0.000 C 
BRANCH  13  15
ATOM     15  O3* UNL     1       1.602   1.402  18.431  0.00  0.00    +0.000 OA
ATOM     16  H3* UNL     1       0.720   1.746  18.195  0.00  0.00    +0.000 HD
ENDBRANCH  13  15
BRANCH  14  17
ATOM     17  O2* UNL     1       4.079   1.979  17.882  0.00  0.00    +0.000 OA
ATOM     18  H2* UNL     1       4.752   2.503  17.397  0.00  0.00    +0.000 HD
ENDBRANCH  14  17
BRANCH  12  19
ATOM     19  C5* UNL     1       1.506   4.004  21.151  0.00  0.00    +0.000 C 
BRANCH  19  20
ATOM     20  O5* UNL     1       1.917   2.944  22.011  0.00  0.00    +0.000 OA
ATOM     21  H5* UNL     1       1.326   2.982  22.789  0.00  0.00    +0.000 HD
ENDBRANCH  19  20
ENDBRANCH  12  19
ENDBRANCH   9  10
BRANCH   1  22
ATOM     22  N   UNL     1       7.320   8.035  17.011  0.00  0.00    +0.000 N 
ATOM     23  H   UNL     1       7.666   8.222  16.069  0.00  0.00    +0.000 HD
BRANCH  22  24
ATOM     24  C   UNL     1       8.273   8.399  18.056  0.00  0.00    +0.000 C 
BRANCH  24  25
ATOM     25  C   UNL     1       8.398   9.933  18.191  0.00  0.00    +0.000 C 
BRANCH  25  27
ATOM     26  C   UNL     1      10.296  11.463  18.100  0.00  0.00    +0.000 C 
ATOM     27  N   UNL     1       9.637  10.399  18.860  0.00  0.00    +0.000 NA
ATOM     28  C   UNL     1       9.317  10.887  20.205  0.00  0.00    +0.000 C 
ENDBRANCH  25  27
ENDBRANCH  24  25
ENDBRANCH  22  24
ENDBRANCH   1  22
TORSDOF 9
ENDMDL
MODEL 2
REMARK VINA RESULT:      -7.0      1.200      1.525
REMARK  Name = 
REMARK  11 active torsions:
REMARK  status: ('A' for Active; 'I' for Inactive)
REMARK    1  A    between atoms: C_1  and  N_2
REMARK    2  A    between atoms: N_2  and  C_3
REMARK    3  A    between atoms: N_2  and  C_4
REMARK    4  A    between atoms: C_4  and  C_5
REMARK    5  A    between atoms: C_5  and  N_6
REMARK    6  A    between atoms: N_6  and  C_7
REMARK    7  A    between atoms: N_15  and  C1*_16
REMARK    8  A    between atoms: C4*_18  and  C5*_19
REMARK    9  A    between atoms: C5*_19  and  O5*_20
REMARK   10  A    between atoms: C3*_21  and  O3*_22
REMARK   11  A    between atoms: C2*_23  and  O2*_24
REMARK                            x       y       z     vdW  Elec       q    Type
REMARK                         _______ _______ _______ _____ _____    ______ ____
ROOT
ATOM      1  C   UNL     1       6.907   6.925  17.610  0.00  0.00    +0.000 A 
ATOM      2  N   UNL     1       6.373   7.309  16.417  0.00  0.00    +0.000 NA
ATOM      3  C   UNL     1       5.242   6.720  15.982  0.00  0.00    +0.000 A 
ATOM      4  N   UNL     1       4.518   5.764  16.588  0.00  0.00    +0.000 NA
ATOM      5  C   UNL     1       5.076   5.407  17.755  0.00  0.00    +0.000 A 
ATOM      6  C   UNL     1       6.230   5.915  18.327  0.00  0.00    +0.000 A 
ATOM      7  N   UNL     1       6.477   5.309  19.544  0.00  0.00    +0.000 NA
ATOM      8  C   UNL     1       5.488   4.452  19.701  0.00  0.00    +0.000 A 
ATOM      9  N   UNL     1       4.617   4.475  18.644  0.00  0.00    +0.000 N 
ENDROOT
BRANCH   9  10
ATOM     10  C1* UNL     1       3.408   3.685  18.535  0.00  0.00    +0.000 C 
ATOM     11  O4* UNL     1       2.322   4.371  19.197  0.00  0.00    +0.000 OA
ATOM     12  C4* UNL     1       1.547   3.398  19.942  0.00  0.00    +0.000 C 
ATOM     13  C3* UNL     1       2.064   2.019  19.540  0.00  0.00    +0.000 C 
ATOM     14  C2* UNL     1       3.506   2.282  19.134  0.00  0.00    +0.000 C 
BRANCH  13  15
ATOM     15  O3* UNL     1       1.377   1.505  18.385  0.00  0.00    +0.000 OA
ATOM     16  H3* UNL     1       0.730   2.165  18.073  0.00  0.00    +0.000 HD
ENDBRANCH  13  15
BRANCH  14  17
ATOM     17  O2* UNL     1       3.965   1.319  18.183  0.00  0.00    +0.000 OA
ATOM     18  H2* UNL     1       4.912   1.522  18.028  0.00  0.00    +0.000 HD
ENDBRANCH  14  17
BRANCH  12  19
ATOM     19  C5* UNL     1       1.681   3.681  21.441  0.00  0.00    +0.000 C 
BRANCH  19  20
ATOM     20  O5* UNL     1       1.627   2.457  22.169  0.00  0.00    +0.000 OA
ATOM     21  H5* UNL     1       0.764   2.452  22.627  0.00  0.00    +0.000 HD
ENDBRANCH  19  20
ENDBRANCH  12  19
ENDBRANCH   9  10
BRANCH   1  22
ATOM     22  N   UNL     1       8.089   7.505  18.072  0.00  0.00    +0.000 N 
ATOM     23  H   UNL     1       8.279   7.211  19.032  0.00  0.00    +0.000 HD
BRANCH  22  24
ATOM     24  C   UNL     1       8.214   8.948  17.878  0.00  0.00    +0.000 C 
BRANCH  24  25
ATOM     25  C   UNL     1       8.978   9.607  19.048  0.00  0.00    +0.000 C 
BRANCH  25  27
ATOM     26  C   UNL     1       8.893  11.773  17.929  0.00  0.00    +0.000 C 
ATOM     27  N   UNL     1       9.725  10.837  18.687  0.00  0.00    +0.000 NA
ATOM     28  C   UNL     1      10.213  11.492  19.905  0.00  0.00    +0.000 C 
ENDBRANCH  25  27
ENDBRANCH  24  25
ENDBRANCH  22  24
ENDBRANCH   1  22
TORSDOF 9
ENDMDL
MODEL 3
REMARK VINA RESULT:      -6.9      1.543      1.912
REMARK  Name = 
REMARK  11 active torsions:
REMARK  status: ('A' for Active; 'I' for Inactive)
REMARK    1  A    between atoms: C_1  and  N_2
REMARK    2  A    between atoms: N_2  and  C_3
REMARK    3  A    between atoms: N_2  and  C_4
REMARK    4  A    between atoms: C_4  and  C_5
REMARK    5  A    between atoms: C_5  and  N_6
REMARK    6  A    between atoms: N_6  and  C_7
REMARK    7  A    between atoms: N_15  and  C1*_16
REMARK    8  A    between atoms: C4*_18  and  C5*_19
REMARK    9  A    between atoms: C5*_19  and  O5*_20
REMARK   10  A    between atoms: C3*_21  and  O3*_22
REMARK   11  A    between atoms: C2*_23  and  O2*_24
REMARK                            x       y       z     vdW  Elec       q    Type
REMARK                         _______ _______ _______ _____ _____    ______ ____
ROOT
ATOM      1  C   UNL     1       7.423   7.267  17.941  0.00  0.00    +0.000 A 
ATOM      2  N   UNL     1       8.257   6.658  18.830  0.00  0.00    +0.000 NA
ATOM      3  C   UNL     1       7.975   5.410  19.249  0.00  0.00    +0.000 A 
ATOM      4  N   UNL     1       6.941   4.628  18.893  0.00  0.00    +0.000 NA
ATOM      5  C   UNL     1       6.139   5.261  18.022  0.00  0.00    +0.000 A 
ATOM      6  C   UNL     1       6.296   6.537  17.507  0.00  0.00    +0.000 A 
ATOM      7  N   UNL     1       5.275   6.833  16.624  0.00  0.00    +0.000 NA
ATOM      8  C   UNL     1       4.519   5.754  16.607  0.00  0.00    +0.000 A 
ATOM      9  N   UNL     1       5.001   4.777  17.438  0.00  0.00    +0.000 N 
ENDROOT
BRANCH   9  10
ATOM     10  C1* UNL     1       4.424   3.461  17.609  0.00  0.00    +0.000 C 
ATOM     11  O4* UNL     1       3.153   3.398  16.924  0.00  0.00    +0.000 OA
ATOM     12  C4* UNL     1       2.209   2.688  17.766  0.00  0.00    +0.000 C 
ATOM     13  C3* UNL     1       3.007   2.103  18.929  0.00  0.00    +0.000 C 
ATOM     14  C2* UNL     1       4.191   3.049  19.063  0.00  0.00    +0.000 C 
BRANCH  13  15
ATOM     15  O3* UNL     1       3.531   0.799  18.619  0.00  0.00    +0.000 OA
ATOM     16  H3* UNL     1       4.505   0.820  18.679  0.00  0.00    +0.000 HD
ENDBRANCH  13  15
BRANCH  14  17
ATOM     17  O2* UNL     1       5.326   2.391  19.627  0.00  0.00    +0.000 OA
ATOM     18  H2* UNL     1       4.971   1.647  20.159  0.00  0.00    +0.000 HD
ENDBRANCH  14  17
BRANCH  12  19
ATOM     19  C5* UNL     1       1.103   3.648  18.213  0.00  0.00    +0.000 C 
BRANCH  19  20
ATOM     20  O5* UNL     1       0.702   3.333  19.544  0.00  0.00    +0.000 OA
ATOM     21  H5* UNL     1       1.089   4.025  20.115  0.00  0.00    +0.000 HD
ENDBRANCH  19  20
ENDBRANCH  12  19
ENDBRANCH   9  10
BRANCH   1  22
ATOM     22  N   UNL     1       7.684   8.568  17.508  0.00  0.00    +0.000 N 
ATOM     23  H   UNL     1       7.932   8.571  16.518  0.00  0.00    +0.000 HD
BRANCH  22  24
ATOM     24  C   UNL     1       8.605   9.346  18.334  0.00  0.00    +0.000 C 
BRANCH  24  25
ATOM     25  C   UNL     1       8.632  10.828  17.898  0.00  0.00    +0.000 C 
BRANCH  25  27
ATOM     26  C   UNL     1       9.605  11.171  20.109  0.00  0.00    +0.000 C 
ATOM     27  N   UNL     1       9.458  11.713  18.756  0.00  0.00    +0.000 NA
ATOM     28  C   UNL     1      10.783  11.888  18.153  0.00  0.00    +0.000 C 
ENDBRANCH  25  27
ENDBRANCH  24  25
ENDBRANCH  22  24
ENDBRANCH   1  22
TORSDOF 9
ENDMDL
MODEL 4
REMARK VINA RESULT:      -6.8      2.995      4.952
REMARK  Name = 
REMARK  11 active torsions:
REMARK  status: ('A' for Active; 'I' for Inactive)
REMARK    1  A    between atoms: C_1  and  N_2
REMARK    2  A    between atoms: N_2  and  C_3
REMARK    3  A    between atoms: N_2  and  C_4
REMARK    4  A    between atoms: C_4  and  C_5
REMARK    5  A    between atoms: C_5  and  N_6
REMARK    6  A    between atoms: N_6  and  C_7
REMARK    7  A    between atoms: N_15  and  C1*_16
REMARK    8  A    between atoms: C4*_18  and  C5*_19
REMARK    9  A    between atoms: C5*_19  and  O5*_20
REMARK   10  A    between atoms: C3*_21  and  O3*_22
REMARK   11  A    between atoms: C2*_23  and  O2*_24
REMARK                            x       y       z     vdW  Elec       q    Type
REMARK                         _______ _______ _______ _____ _____    ______ ____
ROOT
ATOM      1  C   UNL     1       6.685   5.388  16.431  0.00  0.00    +0.000 A 
ATOM      2  N   UNL     1       7.764   5.265  17.253  0.00  0.00    +0.000 NA
ATOM      3  C   UNL     1       7.583   4.840  18.518  0.00  0.00    +0.000 A 
ATOM      4  N   UNL     1       6.433   4.490  19.120  0.00  0.00    +0.000 NA
ATOM      5  C   UNL     1       5.393   4.629  18.283  0.00  0.00    +0.000 A 
ATOM      6  C   UNL     1       5.422   5.056  16.966  0.00  0.00    +0.000 A 
ATOM      7  N   UNL     1       4.151   5.051  16.425  0.00  0.00    +0.000 NA
ATOM      8  C   UNL     1       3.371   4.627  17.399  0.00  0.00    +0.000 A 
ATOM      9  N   UNL     1       4.077   4.360  18.543  0.00  0.00    +0.000 N 
ENDROOT
BRANCH   9  10
ATOM     10  C1* UNL     1       3.518   3.839  19.772  0.00  0.00    +0.000 C 
ATOM     11  O4* UNL     1       3.174   2.447  19.594  0.00  0.00    +0.000 OA
ATOM     12  C4* UNL     1       1.893   2.203  20.229  0.00  0.00    +0.000 C 
ATOM     13  C3* UNL     1       1.543   3.463  21.017  0.00  0.00    +0.000 C 
ATOM     14  C2* UNL     1       2.268   4.568  20.265  0.00  0.00    +0.000 C 
BRANCH  13  15
ATOM     15  O3* UNL     1       2.078   3.427  22.353  0.00  0.00    +0.000 OA
ATOM     16  H3* UNL     1       1.934   4.292  22.781  0.00  0.00    +0.000 HD
ENDBRANCH  13  15
BRANCH  14  17
ATOM     17  O2* UNL     1       2.585   5.665  21.124  0.00  0.00    +0.000 OA
ATOM     18  H2* UNL     1       2.840   5.270  21.985  0.00  0.00    +0.000 HD
ENDBRANCH  14  17
BRANCH  12  19
ATOM     19  C5* UNL     1       0.855   1.849  19.161  0.00  0.00    +0.000 C 
BRANCH  19  20
ATOM     20  O5* UNL     1       1.492   1.730  17.892  0.00  0.00    +0.000 OA
ATOM     21  H5* UNL     1       1.282   0.833  17.566  0.00  0.00    +0.000 HD
ENDBRANCH  19  20
ENDBRANCH  12  19
ENDBRANCH   9  10
BRANCH   1  22
ATOM     22  N   UNL     1       6.845   5.847  15.122  0.00  0.00    +0.000 N 
ATOM     23  H   UNL     1       6.038   6.405  14.839  0.00  0.00    +0.000 HD
BRANCH  22  24
ATOM     24  C   UNL     1       7.225   4.841  14.132  0.00  0.00    +0.000 C 
BRANCH  24  25
ATOM     25  C   UNL     1       6.046   3.892  13.818  0.00  0.00    +0.000 C 
BRANCH  25  27
ATOM     26  C   UNL     1       4.783   3.319  11.811  0.00  0.00    +0.000 C 
ATOM     27  N   UNL     1       6.090   3.273  12.471  0.00  0.00    +0.000 NA
ATOM     28  C   UNL     1       7.081   3.966  11.641  0.00  0.00    +0.000 C 
ENDBRANCH  25  27
ENDBRANCH  24  25
ENDBRANCH  22  24
ENDBRANCH   1  22
TORSDOF 9
ENDMDL
MODEL 5
REMARK VINA RESULT:      -6.6      2.860      5.521
REMARK  Name = 
REMARK  11 active torsions:
REMARK  status: ('A' for Active; 'I' for Inactive)
REMARK    1  A    between atoms: C_1  and  N_2
REMARK    2  A    between atoms: N_2  and  C_3
REMARK    3  A    between atoms: N_2  and  C_4
REMARK    4  A    between atoms: C_4  and  C_5
REMARK    5  A    between atoms: C_5  and  N_6
REMARK    6  A    between atoms: N_6  and  C_7
REMARK    7  A    between atoms: N_15  and  C1*_16
REMARK    8  A    between atoms: C4*_18  and  C5*_19
REMARK    9  A    between atoms: C5*_19  and  O5*_20
REMARK   10  A    between atoms: C3*_21  and  O3*_22
REMARK   11  A    between atoms: C2*_23  and  O2*_24
REMARK                            x       y       z     vdW  Elec       q    Type
REMARK                         _______ _______ _______ _____ _____    ______ ____
ROOT
ATOM      1  C   UNL     1       6.758   5.464  15.514  0.00  0.00    +0.000 A 
ATOM      2  N   UNL     1       7.566   6.309  16.213  0.00  0.00    +0.000 NA
ATOM      3  C   UNL     1       7.296   6.556  17.510  0.00  0.00    +0.000 A 
ATOM      4  N   UNL     1       6.299   6.058  18.260  0.00  0.00    +0.000 NA
ATOM      5  C   UNL     1       5.521   5.235  17.539  0.00  0.00    +0.000 A 
ATOM      6  C   UNL     1       5.669   4.890  16.206  0.00  0.00    +0.000 A 
ATOM      7  N   UNL     1       4.682   4.004  15.821  0.00  0.00    +0.000 NA
ATOM      8  C   UNL     1       3.954   3.818  16.904  0.00  0.00    +0.000 A 
ATOM      9  N   UNL     1       4.423   4.543  17.968  0.00  0.00    +0.000 N 
ENDROOT
BRANCH   9  10
ATOM     10  C1* UNL     1       3.871   4.522  19.306  0.00  0.00    +0.000 C 
ATOM     11  O4* UNL     1       3.620   3.156  19.704  0.00  0.00    +0.000 OA
ATOM     12  C4* UNL     1       2.344   3.102  20.390  0.00  0.00    +0.000 C 
ATOM     13  C3* UNL     1       1.897   4.546  20.607  0.00  0.00    +0.000 C 
ATOM     14  C2* UNL     1       2.567   5.303  19.471  0.00  0.00    +0.000 C 
BRANCH  13  15
ATOM     15  O3* UNL     1       2.404   5.084  21.842  0.00  0.00    +0.000 OA
ATOM     16  H3* UNL     1       3.234   5.566  21.667  0.00  0.00    +0.000 HD
ENDBRANCH  13  15
BRANCH  14  17
ATOM     17  O2* UNL     1       2.795   6.670  19.816  0.00  0.00    +0.000 OA
ATOM     18  H2* UNL     1       2.789   6.707  20.797  0.00  0.00    +0.000 HD
ENDBRANCH  14  17
BRANCH  12  19
ATOM     19  C5* UNL     1       1.354   2.281  19.559  0.00  0.00    +0.000 C 
BRANCH  19  20
ATOM     20  O5* UNL     1       2.062   1.496  18.604  0.00  0.00    +0.000 OA
ATOM     21  H5* UNL     1       1.748   0.577  18.722  0.00  0.00    +0.000 HD
ENDBRANCH  19  20
ENDBRANCH  12  19
ENDBRANCH   9  10
BRANCH   1  22
ATOM     22  N   UNL     1       7.005   5.208  14.165  0.00  0.00    +0.000 N 
ATOM     23  H   UNL     1       6.473   5.852  13.577  0.00  0.00    +0.000 HD
BRANCH  22  24
ATOM     24  C   UNL     1       6.886   3.814  13.744  0.00  0.00    +0.000 C 
BRANCH  24  25
ATOM     25  C   UNL     1       6.409   3.711  12.277  0.00  0.00    +0.000 C 
BRANCH  25  27
ATOM     26  C   UNL     1       4.250   3.162  11.285  0.00  0.00    +0.000 C 
ATOM     27  N   UNL     1       5.405   2.649  12.024  0.00  0.00    +0.000 NA
ATOM     28  C   UNL     1       6.023   1.556  11.268  0.00  0.00    +0.000 C 
ENDBRANCH  25  27
ENDBRANCH  24  25
ENDBRANCH  22  24
ENDBRANCH   1  22
TORSDOF 9
ENDMDL
MODEL 6
REMARK VINA RESULT:      -6.6      1.429      1.514
REMARK  Name = 
REMARK  11 active torsions:
REMARK  status: ('A' for Active; 'I' for Inactive)
REMARK    1  A    between atoms: C_1  and  N_2
REMARK    2  A    between atoms: N_2  and  C_3
REMARK    3  A    between atoms: N_2  and  C_4
REMARK    4  A    between atoms: C_4  and  C_5
REMARK    5  A    between atoms: C_5  and  N_6
REMARK    6  A    between atoms: N_6  and  C_7
REMARK    7  A    between atoms: N_15  and  C1*_16
REMARK    8  A    between atoms: C4*_18  and  C5*_19
REMARK    9  A    between atoms: C5*_19  and  O5*_20
REMARK   10  A    between atoms: C3*_21  and  O3*_22
REMARK   11  A    between atoms: C2*_23  and  O2*_24
REMARK                            x       y       z     vdW  Elec       q    Type
REMARK                         _______ _______ _______ _____ _____    ______ ____
ROOT
ATOM      1  C   UNL     1       7.465   6.961  17.906  0.00  0.00    +0.000 A 
ATOM      2  N   UNL     1       7.873   6.362  19.059  0.00  0.00    +0.000 NA
ATOM      3  C   UNL     1       7.105   5.403  19.611  0.00  0.00    +0.000 A 
ATOM      4  N   UNL     1       5.936   4.915  19.162  0.00  0.00    +0.000 NA
ATOM      5  C   UNL     1       5.562   5.531  18.030  0.00  0.00    +0.000 A 
ATOM      6  C   UNL     1       6.240   6.530  17.352  0.00  0.00    +0.000 A 
ATOM      7  N   UNL     1       5.548   6.901  16.214  0.00  0.00    +0.000 NA
ATOM      8  C   UNL     1       4.475   6.137  16.208  0.00  0.00    +0.000 A 
ATOM      9  N   UNL     1       4.439   5.293  17.287  0.00  0.00    +0.000 N 
ENDROOT
BRANCH   9  10
ATOM     10  C1* UNL     1       3.416   4.302  17.544  0.00  0.00    +0.000 C 
ATOM     11  O4* UNL     1       2.309   4.919  18.238  0.00  0.00    +0.000 OA
ATOM     12  C4* UNL     1       1.857   4.017  19.280  0.00  0.00    +0.000 C 
ATOM     13  C3* UNL     1       2.590   2.694  19.069  0.00  0.00    +0.000 C 
ATOM     14  C2* UNL     1       3.879   3.106  18.376  0.00  0.00    +0.000 C 
BRANCH  13  15
ATOM     15  O3* UNL     1       1.877   1.824  18.171  0.00  0.00    +0.000 OA
ATOM     16  H3* UNL     1       0.989   2.192  18.001  0.00  0.00    +0.000 HD
ENDBRANCH  13  15
BRANCH  14  17
ATOM     17  O2* UNL     1       4.398   2.051  17.565  0.00  0.00    +0.000 OA
ATOM     18  H2* UNL     1       5.073   1.595  18.111  0.00  0.00    +0.000 HD
ENDBRANCH  14  17
BRANCH  12  19
ATOM     19  C5* UNL     1       2.127   4.646  20.650  0.00  0.00    +0.000 C 
BRANCH  19  20
ATOM     20  O5* UNL     1       3.071   5.705  20.515  0.00  0.00    +0.000 OA
ATOM     21  H5* UNL     1       3.954   5.286  20.545  0.00  0.00    +0.000 HD
ENDBRANCH  19  20
ENDBRANCH  12  19
ENDBRANCH   9  10
BRANCH   1  22
ATOM     22  N   UNL     1       8.233   7.972  17.326  0.00  0.00    +0.000 N 
ATOM     23  H   UNL     1       9.225   7.732  17.366  0.00  0.00    +0.000 HD
BRANCH  22  24
ATOM     24  C   UNL     1       7.951   9.331  17.780  0.00  0.00    +0.000 C 
BRANCH  24  25
ATOM     25  C   UNL     1       9.041   9.834  18.754  0.00  0.00    +0.000 C 
BRANCH  25  27
ATOM     26  C   UNL     1       8.939  12.110  17.881  0.00  0.00    +0.000 C 
ATOM     27  N   UNL     1       9.816  11.003  18.269  0.00  0.00    +0.000 NA
ATOM     28  C   UNL     1      10.737  11.452  19.317  0.00  0.00    +0.000 C 
ENDBRANCH  25  27
ENDBRANCH  24  25
ENDBRANCH  22  24
ENDBRANCH   1  22
TORSDOF 9
ENDMDL
MODEL 7
REMARK VINA RESULT:      -6.5      5.269      8.133
REMARK  Name = 
REMARK  11 active torsions:
REMARK  status: ('A' for Active; 'I' for Inactive)
REMARK    1  A    between atoms: C_1  and  N_2
REMARK    2  A    between atoms: N_2  and  C_3
REMARK    3  A    between atoms: N_2  and  C_4
REMARK    4  A    between atoms: C_4  and  C_5
REMARK    5  A    between atoms: C_5  and  N_6
REMARK    6  A    between atoms: N_6  and  C_7
REMARK    7  A    between atoms: N_15  and  C1*_16
REMARK    8  A    between atoms: C4*_18  and  C5*_19
REMARK    9  A    between atoms: C5*_19  and  O5*_20
REMARK   10  A    between atoms: C3*_21  and  O3*_22
REMARK   11  A    between atoms: C2*_23  and  O2*_24
REMARK                            x       y       z     vdW  Elec       q    Type
REMARK                         _______ _______ _______ _____ _____    ______ ____
ROOT
ATOM      1  C   UNL     1       2.903   6.533  19.421  0.00  0.00    +0.000 A 
ATOM      2  N   UNL     1       3.464   6.575  18.181  0.00  0.00    +0.000 NA
ATOM      3  C   UNL     1       3.178   7.606  17.363  0.00  0.00    +0.000 A 
ATOM      4  N   UNL     1       2.385   8.663  17.606  0.00  0.00    +0.000 NA
ATOM      5  C   UNL     1       1.845   8.585  18.833  0.00  0.00    +0.000 A 
ATOM      6  C   UNL     1       2.041   7.592  19.778  0.00  0.00    +0.000 A 
ATOM      7  N   UNL     1       1.329   7.869  20.929  0.00  0.00    +0.000 NA
ATOM      8  C   UNL     1       0.718   9.010  20.681  0.00  0.00    +0.000 A 
ATOM      9  N   UNL     1       0.998   9.481  19.426  0.00  0.00    +0.000 N 
ENDROOT
BRANCH   9  10
ATOM     10  C1* UNL     1       0.517  10.728  18.870  0.00  0.00    +0.000 C 
ATOM     11  O4* UNL     1       0.748  11.798  19.813  0.00  0.00    +0.000 OA
ATOM     12  C4* UNL     1      -0.420  12.657  19.831  0.00  0.00    +0.000 C 
ATOM     13  C3* UNL     1      -1.319  12.206  18.683  0.00  0.00    +0.000 C 
ATOM     14  C2* UNL     1      -0.968  10.736  18.511  0.00  0.00    +0.000 C 
BRANCH  13  15
ATOM     15  O3* UNL     1      -0.992  12.874  17.451  0.00  0.00    +0.000 OA
ATOM     16  H3* UNL     1      -0.885  12.211  16.743  0.00  0.00    +0.000 HD
ENDBRANCH  13  15
BRANCH  14  17
ATOM     17  O2* UNL     1      -1.203  10.296  17.172  0.00  0.00    +0.000 OA
ATOM     18  H2* UNL     1      -2.126  10.552  16.960  0.00  0.00    +0.000 HD
ENDBRANCH  14  17
BRANCH  12  19
ATOM     19  C5* UNL     1      -1.097  12.567  21.202  0.00  0.00    +0.000 C 
BRANCH  19  20
ATOM     20  O5* UNL     1      -0.109  12.424  22.218  0.00  0.00    +0.000 OA
ATOM     21  H5* UNL     1      -0.409  11.689  22.787  0.00  0.00    +0.000 HD
ENDBRANCH  19  20
ENDBRANCH  12  19
ENDBRANCH   9  10
BRANCH   1  22
ATOM     22  N   UNL     1       3.168   5.464  20.279  0.00  0.00    +0.000 N 
ATOM     23  H   UNL     1       4.069   5.040  20.051  0.00  0.00    +0.000 HD
BRANCH  22  24
ATOM     24  C   UNL     1       2.095   4.485  20.434  0.00  0.00    +0.000 C 
BRANCH  24  25
ATOM     25  C   UNL     1       2.654   3.045  20.491  0.00  0.00    +0.000 C 
BRANCH  25  27
ATOM     26  C   UNL     1       0.945   2.544  18.823  0.00  0.00    +0.000 C 
ATOM     27  N   UNL     1       2.262   2.181  19.350  0.00  0.00    +0.000 NA
ATOM     28  C   UNL     1       3.262   2.290  18.283  0.00  0.00    +0.000 C 
ENDBRANCH  25  27
ENDBRANCH  24  25
ENDBRANCH  22  24
ENDBRANCH   1  22
TORSDOF 9
ENDMDL
MODEL 8
REMARK VINA RESULT:      -6.4      1.130      1.444
REMARK  Name = 
REMARK  11 active torsions:
REMARK  status: ('A' for Active; 'I' for Inactive)
REMARK    1  A    between atoms: C_1  and  N_2
REMARK    2  A    between atoms: N_2  and  C_3
REMARK    3  A    between atoms: N_2  and  C_4
REMARK    4  A    between atoms: C_4  and  C_5
REMARK    5  A    between atoms: C_5  and  N_6
REMARK    6  A    between atoms: N_6  and  C_7
REMARK    7  A    between atoms: N_15  and  C1*_16
REMARK    8  A    between atoms: C4*_18  and  C5*_19
REMARK    9  A    between atoms: C5*_19  and  O5*_20
REMARK   10  A    between atoms: C3*_21  and  O3*_22
REMARK   11  A    between atoms: C2*_23  and  O2*_24
REMARK                            x       y       z     vdW  Elec       q    Type
REMARK                         _______ _______ _______ _____ _____    ______ ____
ROOT
ATOM      1  C   UNL     1       6.722   6.844  17.609  0.00  0.00    +0.000 A 
ATOM      2  N   UNL     1       7.575   5.815  17.874  0.00  0.00    +0.000 NA
ATOM      3  C   UNL     1       7.074   4.636  18.289  0.00  0.00    +0.000 A 
ATOM      4  N   UNL     1       5.787   4.301  18.481  0.00  0.00    +0.000 NA
ATOM      5  C   UNL     1       4.977   5.339  18.216  0.00  0.00    +0.000 A 
ATOM      6  C   UNL     1       5.343   6.604  17.789  0.00  0.00    +0.000 A 
ATOM      7  N   UNL     1       4.226   7.396  17.605  0.00  0.00    +0.000 NA
ATOM      8  C   UNL     1       3.207   6.621  17.916  0.00  0.00    +0.000 A 
ATOM      9  N   UNL     1       3.612   5.367  18.293  0.00  0.00    +0.000 N 
ENDROOT
BRANCH   9  10
ATOM     10  C1* UNL     1       2.734   4.273  18.650  0.00  0.00    +0.000 C 
ATOM     11  O4* UNL     1       2.877   3.979  20.058  0.00  0.00    +0.000 OA
ATOM     12  C4* UNL     1       2.892   2.539  20.230  0.00  0.00    +0.000 C 
ATOM     13  C3* UNL     1       2.525   1.929  18.879  0.00  0.00    +0.000 C 
ATOM     14  C2* UNL     1       2.981   2.978  17.877  0.00  0.00    +0.000 C 
BRANCH  13  15
ATOM     15  O3* UNL     1       1.101   1.777  18.728  0.00  0.00    +0.000 OA
ATOM     16  H3* UNL     1       0.920   1.153  18.000  0.00  0.00    +0.000 HD
ENDBRANCH  13  15
BRANCH  14  17
ATOM     17  O2* UNL     1       2.218   2.914  16.670  0.00  0.00    +0.000 OA
ATOM     18  H2* UNL     1       2.010   1.966  16.530  0.00  0.00    +0.000 HD
ENDBRANCH  14  17
BRANCH  12  19
ATOM     19  C5* UNL     1       4.268   2.102  20.738  0.00  0.00    +0.000 C 
BRANCH  19  20
ATOM     20  O5* UNL     1       5.025   1.551  19.663  0.00  0.00    +0.000 OA
ATOM     21  H5* UNL     1       5.960   1.759  19.856  0.00  0.00    +0.000 HD
ENDBRANCH  19  20
ENDBRANCH  12  19
ENDBRANCH   9  10
BRANCH   1  22
ATOM     22  N   UNL     1       7.218   8.082  17.197  0.00  0.00    +0.000 N 
ATOM     23  H   UNL     1       7.268   8.125  16.178  0.00  0.00    +0.000 HD
BRANCH  22  24
ATOM     24  C   UNL     1       8.445   8.530  17.852  0.00  0.00    +0.000 C 
BRANCH  24  25
ATOM     25  C   UNL     1       8.365  10.027  18.227  0.00  0.00    +0.000 C 
BRANCH  25  27
ATOM     26  C   UNL     1      10.168  11.636  17.894  0.00  0.00    +0.000 C 
ATOM     27  N   UNL     1       9.621  10.599  18.771  0.00  0.00    +0.000 NA
ATOM     28  C   UNL     1       9.370  11.166  20.100  0.00  0.00    +0.000 C 
ENDBRANCH  25  27
ENDBRANCH  24  25
ENDBRANCH  22  24
ENDBRANCH   1  22
TORSDOF 9
ENDMDL
MODEL 9
REMARK VINA RESULT:      -6.4      5.254      8.135
REMARK  Name = 
REMARK  11 active torsions:
REMARK  status: ('A' for Active; 'I' for Inactive)
REMARK    1  A    between atoms: C_1  and  N_2
REMARK    2  A    between atoms: N_2  and  C_3
REMARK    3  A    between atoms: N_2  and  C_4
REMARK    4  A    between atoms: C_4  and  C_5
REMARK    5  A    between atoms: C_5  and  N_6
REMARK    6  A    between atoms: N_6  and  C_7
REMARK    7  A    between atoms: N_15  and  C1*_16
REMARK    8  A    between atoms: C4*_18  and  C5*_19
REMARK    9  A    between atoms: C5*_19  and  O5*_20
REMARK   10  A    between atoms: C3*_21  and  O3*_22
REMARK   11  A    between atoms: C2*_23  and  O2*_24
REMARK                            x       y       z     vdW  Elec       q    Type
REMARK                         _______ _______ _______ _____ _____    ______ ____
ROOT
ATOM      1  C   UNL     1       2.909   6.576  19.396  0.00  0.00    +0.000 A 
ATOM      2  N   UNL     1       3.445   6.624  18.144  0.00  0.00    +0.000 NA
ATOM      3  C   UNL     1       3.127   7.650  17.331  0.00  0.00    +0.000 A 
ATOM      4  N   UNL     1       2.324   8.696  17.589  0.00  0.00    +0.000 NA
ATOM      5  C   UNL     1       1.810   8.613  18.826  0.00  0.00    +0.000 A 
ATOM      6  C   UNL     1       2.039   7.623  19.768  0.00  0.00    +0.000 A 
ATOM      7  N   UNL     1       1.346   7.892  20.933  0.00  0.00    +0.000 NA
ATOM      8  C   UNL     1       0.714   9.024  20.696  0.00  0.00    +0.000 A 
ATOM      9  N   UNL     1       0.963   9.497  19.434  0.00  0.00    +0.000 N 
ENDROOT
BRANCH   9  10
ATOM     10  C1* UNL     1       0.454  10.737  18.887  0.00  0.00    +0.000 C 
ATOM     11  O4* UNL     1       0.597  11.791  19.864  0.00  0.00    +0.000 OA
ATOM     12  C4* UNL     1      -0.607  12.600  19.850  0.00  0.00    +0.000 C 
ATOM     13  C3* UNL     1      -1.435  12.140  18.652  0.00  0.00    +0.000 C 
ATOM     14  C2* UNL     1      -1.014  10.691  18.461  0.00  0.00    +0.000 C 
BRANCH  13  15
ATOM     15  O3* UNL     1      -1.084  12.853  17.452  0.00  0.00    +0.000 OA
ATOM     16  H3* UNL     1      -0.614  13.674  17.690  0.00  0.00    +0.000 HD
ENDBRANCH  13  15
BRANCH  14  17
ATOM     17  O2* UNL     1      -1.171  10.275  17.104  0.00  0.00    +0.000 OA
ATOM     18  H2* UNL     1      -1.478  11.066  16.611  0.00  0.00    +0.000 HD
ENDBRANCH  14  17
BRANCH  12  19
ATOM     19  C5* UNL     1      -1.339  12.447  21.186  0.00  0.00    +0.000 C 
BRANCH  19  20
ATOM     20  O5* UNL     1      -2.745  12.558  20.980  0.00  0.00    +0.000 OA
ATOM     21  H5* UNL     1      -3.148  12.582  21.870  0.00  0.00    +0.000 HD
ENDBRANCH  19  20
ENDBRANCH  12  19
ENDBRANCH   9  10
BRANCH   1  22
ATOM     22  N   UNL     1       3.206   5.512  20.249  0.00  0.00    +0.000 N 
ATOM     23  H   UNL     1       3.619   5.856  21.117  0.00  0.00    +0.000 HD
BRANCH  22  24
ATOM     24  C   UNL     1       3.953   4.405  19.657  0.00  0.00    +0.000 C 
BRANCH  24  25
ATOM     25  C   UNL     1       3.147   3.088  19.719  0.00  0.00    +0.000 C 
BRANCH  25  27
ATOM     26  C   UNL     1       0.828   2.621  19.125  0.00  0.00    +0.000 C 
ATOM     27  N   UNL     1       1.722   3.250  20.099  0.00  0.00    +0.000 NA
ATOM     28  C   UNL     1       1.495   2.661  21.423  0.00  0.00    +0.000 C 
ENDBRANCH  25  27
ENDBRANCH  24  25
ENDBRANCH  22  24
ENDBRANCH   1  22
TORSDOF 9
ENDMDL
