MODEL 1
REMARK VINA RESULT:      -7.7      0.000      0.000
REMARK  Name = 
REMARK  10 active torsions:
REMARK  status: ('A' for Active; 'I' for Inactive)
REMARK    1  A    between atoms: C_1  and  C_2
REMARK    2  A    between atoms: C_2  and  C_3
REMARK    3  A    between atoms: C_3  and  C_4
REMARK    4  A    between atoms: C_4  and  C_5
REMARK    5  A    between atoms: C_4  and  C_25
REMARK    6  A    between atoms: N_7  and  C_8
REMARK    7  A    between atoms: N_7  and  C_9
REMARK    8  A    between atoms: C_9  and  C_10
REMARK    9  A    between atoms: N_12  and  C_13
REMARK   10  A    between atoms: C_16  and  N_17
REMARK                            x       y       z     vdW  Elec       q    Type
REMARK                         _______ _______ _______ _____ _____    ______ ____
ROOT
ATOM      1  C   UNL     1       0.773   9.366  20.396  0.00  0.00    +0.000 C 
ATOM      2  O   UNL     1       1.396   8.991  21.390  0.00  0.00    +0.000 OA
ATOM      3  N   UNL     1       1.066   8.958  19.100  0.00  0.00    +0.000 N 
ATOM      4  H   UNL     1       0.911   9.643  18.370  0.00  0.00    +0.000 HD
ENDROOT
BRANCH   3   5
ATOM      5  C   UNL     1       2.052   7.984  18.866  0.00  0.00    +0.000 A 
ATOM      6  C   UNL     1       2.190   6.887  19.719  0.00  0.00    +0.000 A 
ATOM      7  C   UNL     1       3.205   5.952  19.490  0.00  0.00    +0.000 A 
ATOM      8  C   UNL     1       4.114   6.101  18.437  0.00  0.00    +0.000 A 
ATOM      9  C   UNL     1       3.943   7.210  17.591  0.00  0.00    +0.000 A 
ATOM     10  C   UNL     1       2.902   8.126  17.775  0.00  0.00    +0.000 A 
BRANCH   8  11
ATOM     11  N   UNL     1       5.125   5.189  18.210  0.00  0.00    +0.000 N 
ATOM     12  C   UNL     1       6.315   5.094  19.070  0.00  0.00    +0.000 C 
ATOM     13  C   UNL     1       7.584   5.424  18.274  0.00  0.00    +0.000 C 
ATOM     14  O   UNL     1       7.693   4.602  17.100  0.00  0.00    +0.000 OA
ATOM     15  C   UNL     1       6.562   4.821  16.239  0.00  0.00    +0.000 C 
ATOM     16  C   UNL     1       5.233   4.470  16.932  0.00  0.00    +0.000 C 
ENDBRANCH   8  11
ENDBRANCH   3   5
BRANCH   1  17
ATOM     17  C   UNL     1      -0.431  10.314  20.465  0.00  0.00    +0.000 C 
BRANCH  17  20
ATOM     18  C   UNL     1      -1.231  11.688  18.478  0.00  0.00    +0.000 C 
ATOM     19  O   UNL     1      -1.117  12.702  17.775  0.00  0.00    +0.000 OA
ATOM     20  N   UNL     1      -0.387  11.472  19.562  0.00  0.00    +0.000 N 
ATOM     21  C   UNL     1       0.626  12.486  19.859  0.00  0.00    +0.000 C 
BRANCH  18  22
ATOM     22  C   UNL     1      -2.363  10.692  18.133  0.00  0.00    +0.000 C 
BRANCH  22  23
ATOM     23  C   UNL     1      -3.772  11.211  18.468  0.00  0.00    +0.000 A 
ATOM     24  C   UNL     1      -4.924  10.618  17.916  0.00  0.00    +0.000 A 
ATOM     25  C   UNL     1      -6.199  11.114  18.192  0.00  0.00    +0.000 A 
ATOM     26  C   UNL     1      -6.356  12.202  19.039  0.00  0.00    +0.000 A 
ATOM     27  C   UNL     1      -5.238  12.773  19.638  0.00  0.00    +0.000 A 
ATOM     28  C   UNL     1      -3.961  12.271  19.372  0.00  0.00    +0.000 A 
ENDBRANCH  22  23
BRANCH  22  29
ATOM     29  C   UNL     1      -2.216  10.130  16.692  0.00  0.00    +0.000 C 
BRANCH  29  31
ATOM     30  C   UNL     1      -3.262  10.095  14.373  0.00  0.00    +0.000 C 
ATOM     31  C   UNL     1      -2.836  10.946  15.556  0.00  0.00    +0.000 C 
ENDBRANCH  29  31
ENDBRANCH  22  29
ENDBRANCH  18  22
ENDBRANCH  17  20
ENDBRANCH   1  17
TORSDOF 8
ENDMDL
MODEL 2
REMARK VINA RESULT:      -7.7      0.730      1.139
REMARK  Name = 
REMARK  10 active torsions:
REMARK  status: ('A' for Active; 'I' for Inactive)
REMARK    1  A    between atoms: C_1  and  C_2
REMARK    2  A    between atoms: C_2  and  C_3
REMARK    3  A    between atoms: C_3  and  C_4
REMARK    4  A    between atoms: C_4  and  C_5
REMARK    5  A    between atoms: C_4  and  C_25
REMARK    6  A    between atoms: N_7  and  C_8
REMARK    7  A    between atoms: N_7  and  C_9
REMARK    8  A    between atoms: C_9  and  C_10
REMARK    9  A    between atoms: N_12  and  C_13
REMARK   10  A    between atoms: C_16  and  N_17
REMARK                            x       y       z     vdW  Elec       q    Type
REMARK                         _______ _______ _______ _____ _____    ______ ____
ROOT
ATOM      1  C   UNL     1       1.038   8.993  19.920  0.00  0.00    +0.000 C 
ATOM      2  O   UNL     1       1.718   8.516  20.829  0.00  0.00    +0.000 OA
ATOM      3  N   UNL     1       1.236   8.706  18.574  0.00  0.00    +0.000 N 
ATOM      4  H   UNL     1       1.047   9.458  17.923  0.00  0.00    +0.000 HD
ENDROOT
BRANCH   3   5
ATOM      5  C   UNL     1       2.183   7.743  18.183  0.00  0.00    +0.000 A 
ATOM      6  C   UNL     1       1.939   6.381  18.371  0.00  0.00    +0.000 A 
ATOM      7  C   UNL     1       2.914   5.444  18.012  0.00  0.00    +0.000 A 
ATOM      8  C   UNL     1       4.151   5.838  17.492  0.00  0.00    +0.000 A 
ATOM      9  C   UNL     1       4.363   7.215  17.306  0.00  0.00    +0.000 A 
ATOM     10  C   UNL     1       3.379   8.161  17.611  0.00  0.00    +0.000 A 
BRANCH   8  11
ATOM     11  N   UNL     1       5.123   4.921  17.146  0.00  0.00    +0.000 N 
ATOM     12  C   UNL     1       6.118   4.418  18.107  0.00  0.00    +0.000 C 
ATOM     13  C   UNL     1       7.535   4.815  17.674  0.00  0.00    +0.000 C 
ATOM     14  O   UNL     1       7.810   4.388  16.330  0.00  0.00    +0.000 OA
ATOM     15  C   UNL     1       6.883   5.000  15.418  0.00  0.00    +0.000 C 
ATOM     16  C   UNL     1       5.426   4.622  15.738  0.00  0.00    +0.000 C 
ENDBRANCH   8  11
ENDBRANCH   3   5
BRANCH   1  17
ATOM     17  C   UNL     1      -0.138   9.947  20.159  0.00  0.00    +0.000 C 
BRANCH  17  20
ATOM     18  C   UNL     1      -1.114  11.512  18.406  0.00  0.00    +0.000 C 
ATOM     19  O   UNL     1      -1.036  12.572  17.769  0.00  0.00    +0.000 OA
ATOM     20  N   UNL     1      -0.147  11.170  19.345  0.00  0.00    +0.000 N 
ATOM     21  C   UNL     1       0.955  12.106  19.572  0.00  0.00    +0.000 C 
BRANCH  18  22
ATOM     22  C   UNL     1      -2.339  10.603  18.149  0.00  0.00    +0.000 C 
BRANCH  22  23
ATOM     23  C   UNL     1      -3.683  11.248  18.529  0.00  0.00    +0.000 A 
ATOM     24  C   UNL     1      -3.759  12.288  19.475  0.00  0.00    +0.000 A 
ATOM     25  C   UNL     1      -4.982  12.845  19.847  0.00  0.00    +0.000 A 
ATOM     26  C   UNL     1      -6.160  12.390  19.269  0.00  0.00    +0.000 A 
ATOM     27  C   UNL     1      -6.109  11.399  18.294  0.00  0.00    +0.000 A 
ATOM     28  C   UNL     1      -4.882  10.847  17.913  0.00  0.00    +0.000 A 
ENDBRANCH  22  23
BRANCH  22  29
ATOM     29  C   UNL     1      -2.309   9.985  16.724  0.00  0.00    +0.000 C 
BRANCH  29  31
ATOM     30  C   UNL     1      -2.969  10.082  14.269  0.00  0.00    +0.000 C 
ATOM     31  C   UNL     1      -2.853  10.841  15.579  0.00  0.00    +0.000 C 
ENDBRANCH  29  31
ENDBRANCH  22  29
ENDBRANCH  18  22
ENDBRANCH  17  20
ENDBRANCH   1  17
TORSDOF 8
ENDMDL
MODEL 3
REMARK VINA RESULT:      -7.6      2.098      9.795
REMARK  Name = 
REMARK  10 active torsions:
REMARK  status: ('A' for Active; 'I' for Inactive)
REMARK    1  A    between atoms: C_1  and  C_2
REMARK    2  A    between atoms: C_2  and  C_3
REMARK    3  A    between atoms: C_3  and  C_4
REMARK    4  A    between atoms: C_4  and  C_5
REMARK    5  A    between atoms: C_4  and  C_25
REMARK    6  A    between atoms: N_7  and  C_8
REMARK    7  A    between atoms: N_7  and  C_9
REMARK    8  A    between atoms: C_9  and  C_10
REMARK    9  A    between atoms: N_12  and  C_13
REMARK   10  A    between atoms: C_16  and  N_17
REMARK                            x       y       z     vdW  Elec       q    Type
REMARK                         _______ _______ _______ _____ _____    ______ ____
ROOT
ATOM      1  C   UNL     1       2.710   5.762  19.192  0.00  0.00    +0.000 C 
ATOM      2  O   UNL     1       1.800   5.467  18.417  0.00  0.00    +0.000 OA
ATOM      3  N   UNL     1       2.901   7.037  19.711  0.00  0.00    +0.000 N 
ATOM      4  H   UNL     1       3.862   7.316  19.869  0.00  0.00    +0.000 HD
ENDROOT
BRANCH   3   5
ATOM      5  C   UNL     1       1.972   8.059  19.450  0.00  0.00    +0.000 A 
ATOM      6  C   UNL     1       1.868   8.625  18.177  0.00  0.00    +0.000 A 
ATOM      7  C   UNL     1       0.965   9.668  17.952  0.00  0.00    +0.000 A 
ATOM      8  C   UNL     1       0.175  10.188  18.982  0.00  0.00    +0.000 A 
ATOM      9  C   UNL     1       0.295   9.592  20.249  0.00  0.00    +0.000 A 
ATOM     10  C   UNL     1       1.155   8.514  20.480  0.00  0.00    +0.000 A 
BRANCH   8  11
ATOM     11  N   UNL     1      -0.711  11.225  18.771  0.00  0.00    +0.000 N 
ATOM     12  C   UNL     1      -0.887  12.326  19.731  0.00  0.00    +0.000 C 
ATOM     13  C   UNL     1      -2.317  12.338  20.283  0.00  0.00    +0.000 C 
ATOM     14  O   UNL     1      -3.287  12.379  19.224  0.00  0.00    +0.000 OA
ATOM     15  C   UNL     1      -3.148  11.221  18.383  0.00  0.00    +0.000 C 
ATOM     16  C   UNL     1      -1.753  11.142  17.736  0.00  0.00    +0.000 C 
ENDBRANCH   8  11
ENDBRANCH   3   5
BRANCH   1  17
ATOM     17  C   UNL     1       3.736   4.747  19.710  0.00  0.00    +0.000 C 
BRANCH  17  20
ATOM     18  C   UNL     1       4.627   3.836  17.508  0.00  0.00    +0.000 C 
ATOM     19  O   UNL     1       4.901   2.858  16.798  0.00  0.00    +0.000 OA
ATOM     20  N   UNL     1       4.095   3.667  18.781  0.00  0.00    +0.000 N 
ATOM     21  C   UNL     1       3.887   2.302  19.266  0.00  0.00    +0.000 C 
BRANCH  18  22
ATOM     22  C   UNL     1       4.929   5.245  16.945  0.00  0.00    +0.000 C 
BRANCH  22  23
ATOM     23  C   UNL     1       6.159   5.918  17.579  0.00  0.00    +0.000 A 
ATOM     24  C   UNL     1       6.962   5.245  18.520  0.00  0.00    +0.000 A 
ATOM     25  C   UNL     1       8.055   5.870  19.121  0.00  0.00    +0.000 A 
ATOM     26  C   UNL     1       8.384   7.176  18.784  0.00  0.00    +0.000 A 
ATOM     27  C   UNL     1       7.638   7.845  17.819  0.00  0.00    +0.000 A 
ATOM     28  C   UNL     1       6.549   7.217  17.208  0.00  0.00    +0.000 A 
ENDBRANCH  22  23
BRANCH  22  29
ATOM     29  C   UNL     1       4.924   5.260  15.392  0.00  0.00    +0.000 C 
BRANCH  29  31
ATOM     30  C   UNL     1       6.194   3.842  13.705  0.00  0.00    +0.000 C 
ATOM     31  C   UNL     1       6.256   4.999  14.686  0.00  0.00    +0.000 C 
ENDBRANCH  29  31
ENDBRANCH  22  29
ENDBRANCH  18  22
ENDBRANCH  17  20
ENDBRANCH   1  17
TORSDOF 8
ENDMDL
MODEL 4
REMARK VINA RESULT:      -7.5      0.784      1.340
REMARK  Name = 
REMARK  10 active torsions:
REMARK  status: ('A' for Active; 'I' for Inactive)
REMARK    1  A    between atoms: C_1  and  C_2
REMARK    2  A    between atoms: C_2  and  C_3
REMARK    3  A    between atoms: C_3  and  C_4
REMARK    4  A    between atoms: C_4  and  C_5
REMARK    5  A    between atoms: C_4  and  C_25
REMARK    6  A    between atoms: N_7  and  C_8
REMARK    7  A    between atoms: N_7  and  C_9
REMARK    8  A    between atoms: C_9  and  C_10
REMARK    9  A    between atoms: N_12  and  C_13
REMARK   10  A    between atoms: C_16  and  N_17
REMARK                            x       y       z     vdW  Elec       q    Type
REMARK                         _______ _______ _______ _____ _____    ______ ____
ROOT
ATOM      1  C   UNL     1       0.977   9.262  20.183  0.00  0.00    +0.000 C 
ATOM      2  O   UNL     1       1.538   8.825  21.188  0.00  0.00    +0.000 OA
ATOM      3  N   UNL     1       1.313   8.892  18.885  0.00  0.00    +0.000 N 
ATOM      4  H   UNL     1       1.219   9.609  18.177  0.00  0.00    +0.000 HD
ENDROOT
BRANCH   3   5
ATOM      5  C   UNL     1       2.269   7.887  18.657  0.00  0.00    +0.000 A 
ATOM      6  C   UNL     1       2.374   6.790  19.516  0.00  0.00    +0.000 A 
ATOM      7  C   UNL     1       3.360   5.825  19.293  0.00  0.00    +0.000 A 
ATOM      8  C   UNL     1       4.274   5.941  18.240  0.00  0.00    +0.000 A 
ATOM      9  C   UNL     1       4.138   7.051  17.389  0.00  0.00    +0.000 A 
ATOM     10  C   UNL     1       3.125   7.999  17.567  0.00  0.00    +0.000 A 
BRANCH   8  11
ATOM     11  N   UNL     1       5.258   4.999  18.019  0.00  0.00    +0.000 N 
ATOM     12  C   UNL     1       6.418   4.839  18.910  0.00  0.00    +0.000 C 
ATOM     13  C   UNL     1       7.721   5.141  18.159  0.00  0.00    +0.000 C 
ATOM     14  O   UNL     1       7.835   4.345  16.968  0.00  0.00    +0.000 OA
ATOM     15  C   UNL     1       6.738   4.627  16.081  0.00  0.00    +0.000 C 
ATOM     16  C   UNL     1       5.378   4.308  16.726  0.00  0.00    +0.000 C 
ENDBRANCH   8  11
ENDBRANCH   3   5
BRANCH   1  17
ATOM     17  C   UNL     1      -0.191  10.255  20.235  0.00  0.00    +0.000 C 
BRANCH  17  20
ATOM     18  C   UNL     1      -1.015  12.046  18.626  0.00  0.00    +0.000 C 
ATOM     19  O   UNL     1      -0.787  13.079  17.982  0.00  0.00    +0.000 OA
ATOM     20  N   UNL     1      -0.034  11.472  19.427  0.00  0.00    +0.000 N 
ATOM     21  C   UNL     1       1.269  12.136  19.502  0.00  0.00    +0.000 C 
BRANCH  18  22
ATOM     22  C   UNL     1      -2.435  11.438  18.537  0.00  0.00    +0.000 C 
BRANCH  22  23
ATOM     23  C   UNL     1      -3.457  12.103  19.475  0.00  0.00    +0.000 A 
ATOM     24  C   UNL     1      -3.057  12.736  20.668  0.00  0.00    +0.000 A 
ATOM     25  C   UNL     1      -3.989  13.306  21.536  0.00  0.00    +0.000 A 
ATOM     26  C   UNL     1      -5.342  13.274  21.225  0.00  0.00    +0.000 A 
ATOM     27  C   UNL     1      -5.758  12.701  20.028  0.00  0.00    +0.000 A 
ATOM     28  C   UNL     1      -4.825  12.139  19.152  0.00  0.00    +0.000 A 
ENDBRANCH  22  23
BRANCH  22  29
ATOM     29  C   UNL     1      -2.914  11.303  17.066  0.00  0.00    +0.000 C 
BRANCH  29  31
ATOM     30  C   UNL     1      -2.916  10.066  14.843  0.00  0.00    +0.000 C 
ATOM     31  C   UNL     1      -2.405  10.098  16.272  0.00  0.00    +0.000 C 
ENDBRANCH  29  31
ENDBRANCH  22  29
ENDBRANCH  18  22
ENDBRANCH  17  20
ENDBRANCH   1  17
TORSDOF 8
ENDMDL
MODEL 5
REMARK VINA RESULT:      -7.4      5.560      9.422
REMARK  Name = 
REMARK  10 active torsions:
REMARK  status: ('A' for Active; 'I' for Inactive)
REMARK    1  A    between atoms: C_1  and  C_2
REMARK    2  A    between atoms: C_2  and  C_3
REMARK    3  A    between atoms: C_3  and  C_4
REMARK    4  A    between atoms: C_4  and  C_5
REMARK    5  A    between atoms: C_4  and  C_25
REMARK    6  A    between atoms: N_7  and  C_8
REMARK    7  A    between atoms: N_7  and  C_9
REMARK    8  A    between atoms: C_9  and  C_10
REMARK    9  A    between atoms: N_12  and  C_13
REMARK   10  A    between atoms: C_16  and  N_17
REMARK                            x       y       z     vdW  Elec       q    Type
REMARK                         _______ _______ _______ _____ _____    ______ ____
ROOT
ATOM      1  C   UNL     1       7.621   7.379  17.877  0.00  0.00    +0.000 C 
ATOM      2  O   UNL     1       6.970   8.051  17.076  0.00  0.00    +0.000 OA
ATOM      3  N   UNL     1       8.583   7.909  18.729  0.00  0.00    +0.000 N 
ATOM      4  H   UNL     1       9.377   7.314  18.931  0.00  0.00    +0.000 HD
ENDROOT
BRANCH   3   5
ATOM      5  C   UNL     1       8.790   9.298  18.792  0.00  0.00    +0.000 A 
ATOM      6  C   UNL     1       8.467  10.120  17.710  0.00  0.00    +0.000 A 
ATOM      7  C   UNL     1       8.720  11.494  17.781  0.00  0.00    +0.000 A 
ATOM      8  C   UNL     1       9.322  12.071  18.904  0.00  0.00    +0.000 A 
ATOM      9  C   UNL     1       9.627  11.219  19.979  0.00  0.00    +0.000 A 
ATOM     10  C   UNL     1       9.334   9.852  19.946  0.00  0.00    +0.000 A 
BRANCH   8  11
ATOM     11  N   UNL     1       9.585  13.423  18.978  0.00  0.00    +0.000 N 
ATOM     12  C   UNL     1       8.522  14.434  19.088  0.00  0.00    +0.000 C 
ATOM     13  C   UNL     1       8.528  15.359  17.865  0.00  0.00    +0.000 C 
ATOM     14  O   UNL     1       9.823  15.950  17.662  0.00  0.00    +0.000 OA
ATOM     15  C   UNL     1      10.805  14.923  17.444  0.00  0.00    +0.000 C 
ATOM     16  C   UNL     1      10.912  13.963  18.643  0.00  0.00    +0.000 C 
ENDBRANCH   8  11
ENDBRANCH   3   5
BRANCH   1  17
ATOM     17  C   UNL     1       7.431   5.868  18.059  0.00  0.00    +0.000 C 
BRANCH  17  20
ATOM     18  C   UNL     1       5.496   4.556  17.055  0.00  0.00    +0.000 C 
ATOM     19  O   UNL     1       4.991   3.996  16.072  0.00  0.00    +0.000 OA
ATOM     20  N   UNL     1       6.739   5.173  16.966  0.00  0.00    +0.000 N 
ATOM     21  C   UNL     1       7.424   5.158  15.672  0.00  0.00    +0.000 C 
BRANCH  18  22
ATOM     22  C   UNL     1       4.683   4.577  18.371  0.00  0.00    +0.000 C 
BRANCH  22  23
ATOM     23  C   UNL     1       3.792   5.821  18.533  0.00  0.00    +0.000 A 
ATOM     24  C   UNL     1       3.739   6.821  17.543  0.00  0.00    +0.000 A 
ATOM     25  C   UNL     1       2.960   7.966  17.709  0.00  0.00    +0.000 A 
ATOM     26  C   UNL     1       2.199   8.133  18.858  0.00  0.00    +0.000 A 
ATOM     27  C   UNL     1       2.193   7.135  19.828  0.00  0.00    +0.000 A 
ATOM     28  C   UNL     1       2.965   5.982  19.659  0.00  0.00    +0.000 A 
ENDBRANCH  22  23
BRANCH  22  29
ATOM     29  C   UNL     1       3.948   3.231  18.617  0.00  0.00    +0.000 C 
BRANCH  29  31
ATOM     30  C   UNL     1       3.013   2.515  20.871  0.00  0.00    +0.000 C 
ATOM     31  C   UNL     1       4.216   2.520  19.945  0.00  0.00    +0.000 C 
ENDBRANCH  29  31
ENDBRANCH  22  29
ENDBRANCH  18  22
ENDBRANCH  17  20
ENDBRANCH   1  17
TORSDOF 8
ENDMDL
MODEL 6
REMARK VINA RESULT:      -7.4      2.235      3.813
REMARK  Name = 
REMARK  10 active torsions:
REMARK  status: ('A' for Active; 'I' for Inactive)
REMARK    1  A    between atoms: C_1  and  C_2
REMARK    2  A    between atoms: C_2  and  C_3
REMARK    3  A    between atoms: C_3  and  C_4
REMARK    4  A    between atoms: C_4  and  C_5
REMARK    5  A    between atoms: C_4  and  C_25
REMARK    6  A    between atoms: N_7  and  C_8
REMARK    7  A    between atoms: N_7  and  C_9
REMARK    8  A    between atoms: C_9  and  C_10
REMARK    9  A    between atoms: N_12  and  C_13
REMARK   10  A    between atoms: C_16  and  N_17
REMARK                            x       y       z     vdW  Elec       q    Type
REMARK                         _______ _______ _______ _____ _____    ______ ____
ROOT
ATOM      1  C   UNL     1      -0.790  10.860  19.994  0.00  0.00    +0.000 C 
ATOM      2  O   UNL     1      -1.480  10.116  19.297  0.00  0.00    +0.000 OA
ATOM      3  N   UNL     1       0.545  10.618  20.299  0.00  0.00    +0.000 N 
ATOM      4  H   UNL     1       0.857  10.922  21.213  0.00  0.00    +0.000 HD
ENDROOT
BRANCH   3   5
ATOM      5  C   UNL     1       1.221   9.530  19.720  0.00  0.00    +0.000 A 
ATOM      6  C   UNL     1       1.608   9.559  18.378  0.00  0.00    +0.000 A 
ATOM      7  C   UNL     1       2.243   8.449  17.813  0.00  0.00    +0.000 A 
ATOM      8  C   UNL     1       2.477   7.285  18.552  0.00  0.00    +0.000 A 
ATOM      9  C   UNL     1       2.083   7.289  19.901  0.00  0.00    +0.000 A 
ATOM     10  C   UNL     1       1.495   8.409  20.496  0.00  0.00    +0.000 A 
BRANCH   8  11
ATOM     11  N   UNL     1       3.092   6.180  18.000  0.00  0.00    +0.000 N 
ATOM     12  C   UNL     1       2.416   4.879  17.866  0.00  0.00    +0.000 C 
ATOM     13  C   UNL     1       3.135   3.810  18.699  0.00  0.00    +0.000 C 
ATOM     14  O   UNL     1       4.530   3.736  18.364  0.00  0.00    +0.000 OA
ATOM     15  C   UNL     1       5.167   4.999  18.624  0.00  0.00    +0.000 C 
ATOM     16  C   UNL     1       4.548   6.138  17.794  0.00  0.00    +0.000 C 
ENDBRANCH   8  11
ENDBRANCH   3   5
BRANCH   1  17
ATOM     17  C   UNL     1      -1.309  12.173  20.593  0.00  0.00    +0.000 C 
BRANCH  17  20
ATOM     18  C   UNL     1      -3.360  12.547  22.052  0.00  0.00    +0.000 C 
ATOM     19  O   UNL     1      -3.932  12.388  23.139  0.00  0.00    +0.000 OA
ATOM     20  N   UNL     1      -2.080  12.048  21.838  0.00  0.00    +0.000 N 
ATOM     21  C   UNL     1      -1.436  11.313  22.927  0.00  0.00    +0.000 C 
BRANCH  18  22
ATOM     22  C   UNL     1      -4.130  13.286  20.932  0.00  0.00    +0.000 C 
BRANCH  22  23
ATOM     23  C   UNL     1      -5.052  12.374  20.104  0.00  0.00    +0.000 A 
ATOM     24  C   UNL     1      -6.313  11.972  20.584  0.00  0.00    +0.000 A 
ATOM     25  C   UNL     1      -7.131  11.115  19.848  0.00  0.00    +0.000 A 
ATOM     26  C   UNL     1      -6.719  10.652  18.606  0.00  0.00    +0.000 A 
ATOM     27  C   UNL     1      -5.499  11.075  18.086  0.00  0.00    +0.000 A 
ATOM     28  C   UNL     1      -4.683  11.943  18.817  0.00  0.00    +0.000 A 
ENDBRANCH  22  23
BRANCH  22  29
ATOM     29  C   UNL     1      -4.816  14.576  21.459  0.00  0.00    +0.000 C 
BRANCH  29  31
ATOM     30  C   UNL     1      -6.139  15.778  19.648  0.00  0.00    +0.000 C 
ATOM     31  C   UNL     1      -4.886  15.771  20.505  0.00  0.00    +0.000 C 
ENDBRANCH  29  31
ENDBRANCH  22  29
ENDBRANCH  18  22
ENDBRANCH  17  20
ENDBRANCH   1  17
TORSDOF 8
ENDMDL
MODEL 7
REMARK VINA RESULT:      -7.4      2.010      9.886
REMARK  Name = 
REMARK  10 active torsions:
REMARK  status: ('A' for Active; 'I' for Inactive)
REMARK    1  A    between atoms: C_1  and  C_2
REMARK    2  A    between atoms: C_2  and  C_3
REMARK    3  A    between atoms: C_3  and  C_4
REMARK    4  A    between atoms: C_4  and  C_5
REMARK    5  A    between atoms: C_4  and  C_25
REMARK    6  A    between atoms: N_7  and  C_8
REMARK    7  A    between atoms: N_7  and  C_9
REMARK    8  A    between atoms: C_9  and  C_10
REMARK    9  A    between atoms: N_12  and  C_13
REMARK   10  A    between atoms: C_16  and  N_17
REMARK                            x       y       z     vdW  Elec       q    Type
REMARK                         _______ _______ _______ _____ _____    ______ ____
ROOT
ATOM      1  C   UNL     1       2.582   6.855  19.130  0.00  0.00    +0.000 C 
ATOM      2  O   UNL     1       2.103   6.827  17.996  0.00  0.00    +0.000 OA
ATOM      3  N   UNL     1       2.280   7.830  20.074  0.00  0.00    +0.000 N 
ATOM      4  H   UNL     1       3.029   8.092  20.702  0.00  0.00    +0.000 HD
ENDROOT
BRANCH   3   5
ATOM      5  C   UNL     1       1.299   8.801  19.805  0.00  0.00    +0.000 A 
ATOM      6  C   UNL     1       0.387   9.189  20.789  0.00  0.00    +0.000 A 
ATOM      7  C   UNL     1      -0.605  10.127  20.487  0.00  0.00    +0.000 A 
ATOM      8  C   UNL     1      -0.732  10.670  19.204  0.00  0.00    +0.000 A 
ATOM      9  C   UNL     1       0.206  10.267  18.238  0.00  0.00    +0.000 A 
ATOM     10  C   UNL     1       1.236   9.370  18.538  0.00  0.00    +0.000 A 
BRANCH   8  11
ATOM     11  N   UNL     1      -1.715  11.588  18.893  0.00  0.00    +0.000 N 
ATOM     12  C   UNL     1      -2.163  12.622  19.840  0.00  0.00    +0.000 C 
ATOM     13  C   UNL     1      -3.642  12.424  20.194  0.00  0.00    +0.000 C 
ATOM     14  O   UNL     1      -4.461  12.373  19.015  0.00  0.00    +0.000 OA
ATOM     15  C   UNL     1      -4.057  11.274  18.181  0.00  0.00    +0.000 C 
ATOM     16  C   UNL     1      -2.592  11.403  17.727  0.00  0.00    +0.000 C 
ENDBRANCH   8  11
ENDBRANCH   3   5
BRANCH   1  17
ATOM     17  C   UNL     1       3.557   5.796  19.659  0.00  0.00    +0.000 C 
BRANCH  17  20
ATOM     18  C   UNL     1       3.850   4.064  17.817  0.00  0.00    +0.000 C 
ATOM     19  O   UNL     1       3.690   2.902  17.419  0.00  0.00    +0.000 OA
ATOM     20  N   UNL     1       3.418   4.452  19.081  0.00  0.00    +0.000 N 
ATOM     21  C   UNL     1       2.788   3.443  19.934  0.00  0.00    +0.000 C 
BRANCH  18  22
ATOM     22  C   UNL     1       4.575   5.057  16.878  0.00  0.00    +0.000 C 
BRANCH  22  23
ATOM     23  C   UNL     1       5.833   5.692  17.496  0.00  0.00    +0.000 A 
ATOM     24  C   UNL     1       6.236   7.000  17.164  0.00  0.00    +0.000 A 
ATOM     25  C   UNL     1       7.397   7.559  17.696  0.00  0.00    +0.000 A 
ATOM     26  C   UNL     1       8.177   6.834  18.587  0.00  0.00    +0.000 A 
ATOM     27  C   UNL     1       7.774   5.559  18.971  0.00  0.00    +0.000 A 
ATOM     28  C   UNL     1       6.605   5.001  18.447  0.00  0.00    +0.000 A 
ENDBRANCH  22  23
BRANCH  22  29
ATOM     29  C   UNL     1       4.793   4.457  15.462  0.00  0.00    +0.000 C 
BRANCH  29  31
ATOM     30  C   UNL     1       6.598   4.145  13.697  0.00  0.00    +0.000 C 
ATOM     31  C   UNL     1       6.187   3.913  15.140  0.00  0.00    +0.000 C 
ENDBRANCH  29  31
ENDBRANCH  22  29
ENDBRANCH  18  22
ENDBRANCH  17  20
ENDBRANCH   1  17
TORSDOF 8
ENDMDL
MODEL 8
REMARK VINA RESULT:      -7.3      3.233      9.374
REMARK  Name = 
REMARK  10 active torsions:
REMARK  status: ('A' for Active; 'I' for Inactive)
REMARK    1  A    between atoms: C_1  and  C_2
REMARK    2  A    between atoms: C_2  and  C_3
REMARK    3  A    between atoms: C_3  and  C_4
REMARK    4  A    between atoms: C_4  and  C_5
REMARK    5  A    between atoms: C_4  and  C_25
REMARK    6  A    between atoms: N_7  and  C_8
REMARK    7  A    between atoms: N_7  and  C_9
REMARK    8  A    between atoms: C_9  and  C_10
REMARK    9  A    between atoms: N_12  and  C_13
REMARK   10  A    between atoms: C_16  and  N_17
REMARK                            x       y       z     vdW  Elec       q    Type
REMARK                         _______ _______ _______ _____ _____    ______ ____
ROOT
ATOM      1  C   UNL     1       4.146   7.046  17.525  0.00  0.00    +0.000 C 
ATOM      2  O   UNL     1       4.103   6.422  18.586  0.00  0.00    +0.000 OA
ATOM      3  N   UNL     1       3.250   8.052  17.182  0.00  0.00    +0.000 N 
ATOM      4  H   UNL     1       3.016   8.127  16.200  0.00  0.00    +0.000 HD
ENDROOT
BRANCH   3   5
ATOM      5  C   UNL     1       2.286   8.492  18.106  0.00  0.00    +0.000 A 
ATOM      6  C   UNL     1       1.425   9.547  17.794  0.00  0.00    +0.000 A 
ATOM      7  C   UNL     1       0.501   9.994  18.745  0.00  0.00    +0.000 A 
ATOM      8  C   UNL     1       0.434   9.429  20.022  0.00  0.00    +0.000 A 
ATOM      9  C   UNL     1       1.307   8.364  20.302  0.00  0.00    +0.000 A 
ATOM     10  C   UNL     1       2.200   7.870  19.346  0.00  0.00    +0.000 A 
BRANCH   8  11
ATOM     11  N   UNL     1      -0.467   9.871  20.970  0.00  0.00    +0.000 N 
ATOM     12  C   UNL     1      -1.003  11.242  20.976  0.00  0.00    +0.000 C 
ATOM     13  C   UNL     1      -0.587  11.978  22.255  0.00  0.00    +0.000 C 
ATOM     14  O   UNL     1      -0.962  11.240  23.430  0.00  0.00    +0.000 OA
ATOM     15  C   UNL     1      -0.319   9.955  23.432  0.00  0.00    +0.000 C 
ATOM     16  C   UNL     1      -0.712   9.112  22.205  0.00  0.00    +0.000 C 
ENDBRANCH   8  11
ENDBRANCH   3   5
BRANCH   1  17
ATOM     17  C   UNL     1       5.218   6.812  16.454  0.00  0.00    +0.000 C 
BRANCH  17  20
ATOM     18  C   UNL     1       6.735   4.818  16.900  0.00  0.00    +0.000 C 
ATOM     19  O   UNL     1       7.819   4.382  17.312  0.00  0.00    +0.000 OA
ATOM     20  N   UNL     1       6.461   6.182  16.918  0.00  0.00    +0.000 N 
ATOM     21  C   UNL     1       7.497   7.086  17.419  0.00  0.00    +0.000 C 
BRANCH  18  22
ATOM     22  C   UNL     1       5.715   3.803  16.334  0.00  0.00    +0.000 C 
BRANCH  22  23
ATOM     23  C   UNL     1       4.540   3.507  17.282  0.00  0.00    +0.000 A 
ATOM     24  C   UNL     1       3.206   3.535  16.831  0.00  0.00    +0.000 A 
ATOM     25  C   UNL     1       2.140   3.303  17.701  0.00  0.00    +0.000 A 
ATOM     26  C   UNL     1       2.380   3.019  19.039  0.00  0.00    +0.000 A 
ATOM     27  C   UNL     1       3.691   2.934  19.498  0.00  0.00    +0.000 A 
ATOM     28  C   UNL     1       4.760   3.156  18.626  0.00  0.00    +0.000 A 
ENDBRANCH  22  23
BRANCH  22  29
ATOM     29  C   UNL     1       5.289   4.161  14.884  0.00  0.00    +0.000 C 
BRANCH  29  31
ATOM     30  C   UNL     1       7.193   4.904  13.369  0.00  0.00    +0.000 C 
ATOM     31  C   UNL     1       6.251   3.778  13.758  0.00  0.00    +0.000 C 
ENDBRANCH  29  31
ENDBRANCH  22  29
ENDBRANCH  18  22
ENDBRANCH  17  20
ENDBRANCH   1  17
TORSDOF 8
ENDMDL
MODEL 9
REMARK VINA RESULT:      -7.3      5.474      9.200
REMARK  Name = 
REMARK  10 active torsions:
REMARK  status: ('A' for Active; 'I' for Inactive)
REMARK    1  A    between atoms: C_1  and  C_2
REMARK    2  A    between atoms: C_2  and  C_3
REMARK    3  A    between atoms: C_3  and  C_4
REMARK    4  A    between atoms: C_4  and  C_5
REMARK    5  A    between atoms: C_4  and  C_25
REMARK    6  A    between atoms: N_7  and  C_8
REMARK    7  A    between atoms: N_7  and  C_9
REMARK    8  A    between atoms: C_9  and  C_10
REMARK    9  A    between atoms: N_12  and  C_13
REMARK   10  A    between atoms: C_16  and  N_17
REMARK                            x       y       z     vdW  Elec       q    Type
REMARK                         _______ _______ _______ _____ _____    ______ ____
ROOT
ATOM      1  C   UNL     1       7.605   7.551  17.922  0.00  0.00    +0.000 C 
ATOM      2  O   UNL     1       6.982   8.260  17.131  0.00  0.00    +0.000 OA
ATOM      3  N   UNL     1       8.594   8.027  18.775  0.00  0.00    +0.000 N 
ATOM      4  H   UNL     1       9.361   7.395  18.968  0.00  0.00    +0.000 HD
ENDROOT
BRANCH   3   5
ATOM      5  C   UNL     1       8.865   9.405  18.852  0.00  0.00    +0.000 A 
ATOM      6  C   UNL     1       9.234   9.996  20.062  0.00  0.00    +0.000 A 
ATOM      7  C   UNL     1       9.457  11.375  20.123  0.00  0.00    +0.000 A 
ATOM      8  C   UNL     1       9.292  12.193  19.001  0.00  0.00    +0.000 A 
ATOM      9  C   UNL     1       8.929  11.568  17.796  0.00  0.00    +0.000 A 
ATOM     10  C   UNL     1       8.752  10.184  17.706  0.00  0.00    +0.000 A 
BRANCH   8  11
ATOM     11  N   UNL     1       9.500  13.557  19.055  0.00  0.00    +0.000 N 
ATOM     12  C   UNL     1       8.404  14.519  19.255  0.00  0.00    +0.000 C 
ATOM     13  C   UNL     1       8.267  15.441  18.037  0.00  0.00    +0.000 C 
ATOM     14  O   UNL     1       9.512  16.088  17.727  0.00  0.00    +0.000 OA
ATOM     15  C   UNL     1      10.518  15.106  17.426  0.00  0.00    +0.000 C 
ATOM     16  C   UNL     1      10.768  14.155  18.610  0.00  0.00    +0.000 C 
ENDBRANCH   8  11
ENDBRANCH   3   5
BRANCH   1  17
ATOM     17  C   UNL     1       7.347   6.049  18.090  0.00  0.00    +0.000 C 
BRANCH  17  20
ATOM     18  C   UNL     1       5.468   4.739  16.980  0.00  0.00    +0.000 C 
ATOM     19  O   UNL     1       5.005   4.204  15.964  0.00  0.00    +0.000 OA
ATOM     20  N   UNL     1       6.703   5.378  16.952  0.00  0.00    +0.000 N 
ATOM     21  C   UNL     1       7.430   5.416  15.682  0.00  0.00    +0.000 C 
BRANCH  18  22
ATOM     22  C   UNL     1       4.612   4.705  18.268  0.00  0.00    +0.000 C 
BRANCH  22  23
ATOM     23  C   UNL     1       3.738   5.955  18.469  0.00  0.00    +0.000 A 
ATOM     24  C   UNL     1       2.989   6.148  19.645  0.00  0.00    +0.000 A 
ATOM     25  C   UNL     1       2.168   7.264  19.809  0.00  0.00    +0.000 A 
ATOM     26  C   UNL     1       2.088   8.225  18.810  0.00  0.00    +0.000 A 
ATOM     27  C   UNL     1       2.858   8.084  17.659  0.00  0.00    +0.000 A 
ATOM     28  C   UNL     1       3.690   6.972  17.498  0.00  0.00    +0.000 A 
ENDBRANCH  22  23
BRANCH  22  29
ATOM     29  C   UNL     1       3.846   3.362  18.417  0.00  0.00    +0.000 C 
BRANCH  29  31
ATOM     30  C   UNL     1       1.398   2.785  18.798  0.00  0.00    +0.000 C 
ATOM     31  C   UNL     1       2.441   3.288  17.816  0.00  0.00    +0.000 C 
ENDBRANCH  29  31
ENDBRANCH  22  29
ENDBRANCH  18  22
ENDBRANCH  17  20
ENDBRANCH   1  17
TORSDOF 8
ENDMDL
