MODEL 1
REMARK VINA RESULT:      -6.1      0.000      0.000
REMARK  Name = 
REMARK  3 active torsions:
REMARK  status: ('A' for Active; 'I' for Inactive)
REMARK    1  A    between atoms: C_1  and  N_2
REMARK    2  A    between atoms: C_7  and  O_8
REMARK    3  A    between atoms: C_9  and  O_10
REMARK                            x       y       z     vdW  Elec       q    Type
REMARK                         _______ _______ _______ _____ _____    ______ ____
ROOT
ATOM      1  C   UNL     1       7.275   5.521  18.737  0.00  0.00    +0.000 C 
ATOM      2  N   UNL     1       6.167   4.602  18.491  0.00  0.00    +0.000 NA
ATOM      3  C   UNL     1       5.668   4.736  17.117  0.00  0.00    +0.000 C 
ATOM      4  C   UNL     1       4.677   3.606  16.807  0.00  0.00    +0.000 C 
ATOM      5  C   UNL     1       3.611   3.474  17.867  0.00  0.00    +0.000 A 
ATOM      6  C   UNL     1       2.442   2.742  17.603  0.00  0.00    +0.000 A 
ATOM      7  C   UNL     1       1.474   2.613  18.592  0.00  0.00    +0.000 A 
ATOM      8  C   UNL     1       1.664   3.201  19.840  0.00  0.00    +0.000 A 
ATOM      9  C   UNL     1       2.822   3.913  20.122  0.00  0.00    +0.000 A 
ATOM     10  C   UNL     1       3.818   4.042  19.142  0.00  0.00    +0.000 A 
ATOM     11  C   UNL     1       5.066   4.850  19.442  0.00  0.00    +0.000 C 
ENDROOT
BRANCH   7  12
ATOM     12  O   UNL     1       0.315   1.918  18.374  0.00  0.00    +0.000 OA
ATOM     13  H   UNL     1       0.351   1.554  17.470  0.00  0.00    +0.000 HD
ENDBRANCH   7  12
BRANCH   8  14
ATOM     14  O   UNL     1       0.712   3.089  20.814  0.00  0.00    +0.000 OA
ATOM     15  H   UNL     1       1.056   3.612  21.563  0.00  0.00    +0.000 HD
ENDBRANCH   8  14
TORSDOF 2
ENDMDL
MODEL 2
REMARK VINA RESULT:      -6.0      1.595      2.481
REMARK  Name = 
REMARK  3 active torsions:
REMARK  status: ('A' for Active; 'I' for Inactive)
REMARK    1  A    between atoms: C_1  and  N_2
REMARK    2  A    between atoms: C_7  and  O_8
REMARK    3  A    between atoms: C_9  and  O_10
REMARK                            x       y       z     vdW  Elec       q    Type
REMARK                         _______ _______ _______ _____ _____    ______ ____
ROOT
ATOM      1  C   UNL     1       6.432   5.208  15.133  0.00  0.00    +0.000 C 
ATOM      2  N   UNL     1       5.190   5.225  15.901  0.00  0.00    +0.000 NA
ATOM      3  C   UNL     1       5.269   6.189  17.006  0.00  0.00    +0.000 C 
ATOM      4  C   UNL     1       3.885   6.366  17.644  0.00  0.00    +0.000 C 
ATOM      5  C   UNL     1       3.240   5.045  17.988  0.00  0.00    +0.000 A 
ATOM      6  C   UNL     1       2.148   5.003  18.870  0.00  0.00    +0.000 A 
ATOM      7  C   UNL     1       1.552   3.782  19.168  0.00  0.00    +0.000 A 
ATOM      8  C   UNL     1       2.030   2.609  18.590  0.00  0.00    +0.000 A 
ATOM      9  C   UNL     1       3.099   2.637  17.703  0.00  0.00    +0.000 A 
ATOM     10  C   UNL     1       3.705   3.861  17.379  0.00  0.00    +0.000 A 
ATOM     11  C   UNL     1       4.893   3.883  16.437  0.00  0.00    +0.000 C 
ENDROOT
BRANCH   7  12
ATOM     12  O   UNL     1       0.493   3.694  20.029  0.00  0.00    +0.000 OA
ATOM     13  H   UNL     1       0.285   4.594  20.340  0.00  0.00    +0.000 HD
ENDBRANCH   7  12
BRANCH   8  14
ATOM     14  O   UNL     1       1.458   1.405  18.886  0.00  0.00    +0.000 OA
ATOM     15  H   UNL     1       0.556   1.456  18.514  0.00  0.00    +0.000 HD
ENDBRANCH   8  14
TORSDOF 2
ENDMDL
MODEL 3
REMARK VINA RESULT:      -6.0      0.750      2.304
REMARK  Name = 
REMARK  3 active torsions:
REMARK  status: ('A' for Active; 'I' for Inactive)
REMARK    1  A    between atoms: C_1  and  N_2
REMARK    2  A    between atoms: C_7  and  O_8
REMARK    3  A    between atoms: C_9  and  O_10
REMARK                            x       y       z     vdW  Elec       q    Type
REMARK                         _______ _______ _______ _____ _____    ______ ____
ROOT
ATOM      1  C   UNL     1       6.626   4.857  15.999  0.00  0.00    +0.000 C 
ATOM      2  N   UNL     1       5.519   4.906  16.950  0.00  0.00    +0.000 NA
ATOM      3  C   UNL     1       6.014   4.925  18.332  0.00  0.00    +0.000 C 
ATOM      4  C   UNL     1       4.858   5.218  19.297  0.00  0.00    +0.000 C 
ATOM      5  C   UNL     1       3.668   4.322  19.054  0.00  0.00    +0.000 A 
ATOM      6  C   UNL     1       2.664   4.204  20.028  0.00  0.00    +0.000 A 
ATOM      7  C   UNL     1       1.564   3.388  19.786  0.00  0.00    +0.000 A 
ATOM      8  C   UNL     1       1.455   2.697  18.582  0.00  0.00    +0.000 A 
ATOM      9  C   UNL     1       2.432   2.818  17.602  0.00  0.00    +0.000 A 
ATOM     10  C   UNL     1       3.542   3.647  17.821  0.00  0.00    +0.000 A 
ATOM     11  C   UNL     1       4.623   3.748  16.763  0.00  0.00    +0.000 C 
ENDROOT
BRANCH   7  12
ATOM     12  O   UNL     1       0.568   3.235  20.712  0.00  0.00    +0.000 OA
ATOM     13  H   UNL     1      -0.281   3.205  20.235  0.00  0.00    +0.000 HD
ENDBRANCH   7  12
BRANCH   8  14
ATOM     14  O   UNL     1       0.384   1.885  18.341  0.00  0.00    +0.000 OA
ATOM     15  H   UNL     1       0.605   1.040  18.778  0.00  0.00    +0.000 HD
ENDBRANCH   8  14
TORSDOF 2
ENDMDL
MODEL 4
REMARK VINA RESULT:      -5.9      3.907      5.256
REMARK  Name = 
REMARK  3 active torsions:
REMARK  status: ('A' for Active; 'I' for Inactive)
REMARK    1  A    between atoms: C_1  and  N_2
REMARK    2  A    between atoms: C_7  and  O_8
REMARK    3  A    between atoms: C_9  and  O_10
REMARK                            x       y       z     vdW  Elec       q    Type
REMARK                         _______ _______ _______ _____ _____    ______ ____
ROOT
ATOM      1  C   UNL     1       1.584   4.950  20.574  0.00  0.00    +0.000 C 
ATOM      2  N   UNL     1       2.674   5.548  19.807  0.00  0.00    +0.000 NA
ATOM      3  C   UNL     1       2.179   6.119  18.548  0.00  0.00    +0.000 C 
ATOM      4  C   UNL     1       3.285   6.947  17.879  0.00  0.00    +0.000 C 
ATOM      5  C   UNL     1       4.584   6.185  17.772  0.00  0.00    +0.000 A 
ATOM      6  C   UNL     1       5.593   6.633  16.905  0.00  0.00    +0.000 A 
ATOM      7  C   UNL     1       6.791   5.932  16.826  0.00  0.00    +0.000 A 
ATOM      8  C   UNL     1       6.993   4.797  17.607  0.00  0.00    +0.000 A 
ATOM      9  C   UNL     1       6.010   4.352  18.482  0.00  0.00    +0.000 A 
ATOM     10  C   UNL     1       4.799   5.053  18.587  0.00  0.00    +0.000 A 
ATOM     11  C   UNL     1       3.715   4.544  19.517  0.00  0.00    +0.000 C 
ENDROOT
BRANCH   7  12
ATOM     12  O   UNL     1       7.798   6.327  15.987  0.00  0.00    +0.000 OA
ATOM     13  H   UNL     1       8.470   6.787  16.523  0.00  0.00    +0.000 HD
ENDBRANCH   7  12
BRANCH   8  14
ATOM     14  O   UNL     1       8.163   4.096  17.527  0.00  0.00    +0.000 OA
ATOM     15  H   UNL     1       8.090   3.578  16.703  0.00  0.00    +0.000 HD
ENDBRANCH   8  14
TORSDOF 2
ENDMDL
MODEL 5
REMARK VINA RESULT:      -5.9      3.426      4.804
REMARK  Name = 
REMARK  3 active torsions:
REMARK  status: ('A' for Active; 'I' for Inactive)
REMARK    1  A    between atoms: C_1  and  N_2
REMARK    2  A    between atoms: C_7  and  O_8
REMARK    3  A    between atoms: C_9  and  O_10
REMARK                            x       y       z     vdW  Elec       q    Type
REMARK                         _______ _______ _______ _____ _____    ______ ____
ROOT
ATOM      1  C   UNL     1       0.956   3.962  20.347  0.00  0.00    +0.000 C 
ATOM      2  N   UNL     1       1.947   4.180  19.297  0.00  0.00    +0.000 NA
ATOM      3  C   UNL     1       2.033   3.016  18.406  0.00  0.00    +0.000 C 
ATOM      4  C   UNL     1       2.893   3.357  17.182  0.00  0.00    +0.000 C 
ATOM      5  C   UNL     1       4.218   3.970  17.567  0.00  0.00    +0.000 A 
ATOM      6  C   UNL     1       5.262   4.035  16.631  0.00  0.00    +0.000 A 
ATOM      7  C   UNL     1       6.473   4.616  16.992  0.00  0.00    +0.000 A 
ATOM      8  C   UNL     1       6.647   5.137  18.271  0.00  0.00    +0.000 A 
ATOM      9  C   UNL     1       5.618   5.095  19.202  0.00  0.00    +0.000 A 
ATOM     10  C   UNL     1       4.384   4.525  18.853  0.00  0.00    +0.000 A 
ATOM     11  C   UNL     1       3.274   4.450  19.884  0.00  0.00    +0.000 C 
ENDROOT
BRANCH   7  12
ATOM     12  O   UNL     1       7.521   4.692  16.114  0.00  0.00    +0.000 OA
ATOM     13  H   UNL     1       7.155   4.849  15.224  0.00  0.00    +0.000 HD
ENDBRANCH   7  12
BRANCH   8  14
ATOM     14  O   UNL     1       7.837   5.699  18.637  0.00  0.00    +0.000 OA
ATOM     15  H   UNL     1       7.618   6.620  18.878  0.00  0.00    +0.000 HD
ENDBRANCH   8  14
TORSDOF 2
ENDMDL
MODEL 6
REMARK VINA RESULT:      -5.9      3.816      5.146
REMARK  Name = 
REMARK  3 active torsions:
REMARK  status: ('A' for Active; 'I' for Inactive)
REMARK    1  A    between atoms: C_1  and  N_2
REMARK    2  A    between atoms: C_7  and  O_8
REMARK    3  A    between atoms: C_9  and  O_10
REMARK                            x       y       z     vdW  Elec       q    Type
REMARK                         _______ _______ _______ _____ _____    ______ ____
ROOT
ATOM      1  C   UNL     1       1.827   4.772  20.237  0.00  0.00    +0.000 C 
ATOM      2  N   UNL     1       2.595   4.794  18.995  0.00  0.00    +0.000 NA
ATOM      3  C   UNL     1       2.855   3.432  18.514  0.00  0.00    +0.000 C 
ATOM      4  C   UNL     1       3.446   3.481  17.098  0.00  0.00    +0.000 C 
ATOM      5  C   UNL     1       4.616   4.431  17.000  0.00  0.00    +0.000 A 
ATOM      6  C   UNL     1       5.487   4.363  15.901  0.00  0.00    +0.000 A 
ATOM      7  C   UNL     1       6.552   5.253  15.813  0.00  0.00    +0.000 A 
ATOM      8  C   UNL     1       6.749   6.211  16.805  0.00  0.00    +0.000 A 
ATOM      9  C   UNL     1       5.885   6.301  17.889  0.00  0.00    +0.000 A 
ATOM     10  C   UNL     1       4.797   5.421  17.988  0.00  0.00    +0.000 A 
ATOM     11  C   UNL     1       3.877   5.500  19.191  0.00  0.00    +0.000 C 
ENDROOT
BRANCH   7  12
ATOM     12  O   UNL     1       7.432   5.216  14.765  0.00  0.00    +0.000 OA
ATOM     13  H   UNL     1       6.969   4.827  14.000  0.00  0.00    +0.000 HD
ENDBRANCH   7  12
BRANCH   8  14
ATOM     14  O   UNL     1       7.799   7.081  16.731  0.00  0.00    +0.000 OA
ATOM     15  H   UNL     1       8.594   6.528  16.860  0.00  0.00    +0.000 HD
ENDBRANCH   8  14
TORSDOF 2
ENDMDL
MODEL 7
REMARK VINA RESULT:      -5.9      3.772      5.350
REMARK  Name = 
REMARK  3 active torsions:
REMARK  status: ('A' for Active; 'I' for Inactive)
REMARK    1  A    between atoms: C_1  and  N_2
REMARK    2  A    between atoms: C_7  and  O_8
REMARK    3  A    between atoms: C_9  and  O_10
REMARK                            x       y       z     vdW  Elec       q    Type
REMARK                         _______ _______ _______ _____ _____    ______ ____
ROOT
ATOM      1  C   UNL     1       1.394   2.194  18.594  0.00  0.00    +0.000 C 
ATOM      2  N   UNL     1       2.338   3.305  18.525  0.00  0.00    +0.000 NA
ATOM      3  C   UNL     1       1.685   4.520  18.021  0.00  0.00    +0.000 C 
ATOM      4  C   UNL     1       2.622   5.724  18.184  0.00  0.00    +0.000 C 
ATOM      5  C   UNL     1       3.999   5.456  17.626  0.00  0.00    +0.000 A 
ATOM      6  C   UNL     1       4.877   6.523  17.376  0.00  0.00    +0.000 A 
ATOM      7  C   UNL     1       6.148   6.264  16.877  0.00  0.00    +0.000 A 
ATOM      8  C   UNL     1       6.552   4.954  16.632  0.00  0.00    +0.000 A 
ATOM      9  C   UNL     1       5.701   3.888  16.889  0.00  0.00    +0.000 A 
ATOM     10  C   UNL     1       4.419   4.127  17.407  0.00  0.00    +0.000 A 
ATOM     11  C   UNL     1       3.480   2.963  17.655  0.00  0.00    +0.000 C 
ENDROOT
BRANCH   7  12
ATOM     12  O   UNL     1       7.032   7.274  16.609  0.00  0.00    +0.000 OA
ATOM     13  H   UNL     1       6.563   7.952  16.089  0.00  0.00    +0.000 HD
ENDBRANCH   7  12
BRANCH   8  14
ATOM     14  O   UNL     1       7.795   4.692  16.130  0.00  0.00    +0.000 OA
ATOM     15  H   UNL     1       8.281   4.273  16.866  0.00  0.00    +0.000 HD
ENDBRANCH   8  14
TORSDOF 2
ENDMDL
MODEL 8
REMARK VINA RESULT:      -5.9      3.784      5.569
REMARK  Name = 
REMARK  3 active torsions:
REMARK  status: ('A' for Active; 'I' for Inactive)
REMARK    1  A    between atoms: C_1  and  N_2
REMARK    2  A    between atoms: C_7  and  O_8
REMARK    3  A    between atoms: C_9  and  O_10
REMARK                            x       y       z     vdW  Elec       q    Type
REMARK                         _______ _______ _______ _____ _____    ______ ____
ROOT
ATOM      1  C   UNL     1       2.076   2.220  18.695  0.00  0.00    +0.000 C 
ATOM      2  N   UNL     1       3.225   3.121  18.668  0.00  0.00    +0.000 NA
ATOM      3  C   UNL     1       2.857   4.456  19.154  0.00  0.00    +0.000 C 
ATOM      4  C   UNL     1       4.118   5.309  19.344  0.00  0.00    +0.000 C 
ATOM      5  C   UNL     1       5.010   5.292  18.126  0.00  0.00    +0.000 A 
ATOM      6  C   UNL     1       6.017   6.259  17.977  0.00  0.00    +0.000 A 
ATOM      7  C   UNL     1       6.843   6.224  16.859  0.00  0.00    +0.000 A 
ATOM      8  C   UNL     1       6.677   5.232  15.895  0.00  0.00    +0.000 A 
ATOM      9  C   UNL     1       5.695   4.260  16.038  0.00  0.00    +0.000 A 
ATOM     10  C   UNL     1       4.861   4.269  17.166  0.00  0.00    +0.000 A 
ATOM     11  C   UNL     1       3.769   3.226  17.300  0.00  0.00    +0.000 C 
ENDROOT
BRANCH   7  12
ATOM     12  O   UNL     1       7.830   7.152  16.668  0.00  0.00    +0.000 OA
ATOM     13  H   UNL     1       8.483   6.772  16.051  0.00  0.00    +0.000 HD
ENDBRANCH   7  12
BRANCH   8  14
ATOM     14  O   UNL     1       7.476   5.198  14.788  0.00  0.00    +0.000 OA
ATOM     15  H   UNL     1       7.464   4.265  14.498  0.00  0.00    +0.000 HD
ENDBRANCH   8  14
TORSDOF 2
ENDMDL
MODEL 9
REMARK VINA RESULT:      -5.8      1.142      1.142
REMARK  Name = 
REMARK  3 active torsions:
REMARK  status: ('A' for Active; 'I' for Inactive)
REMARK    1  A    between atoms: C_1  and  N_2
REMARK    2  A    between atoms: C_7  and  O_8
REMARK    3  A    between atoms: C_9  and  O_10
REMARK                            x       y       z     vdW  Elec       q    Type
REMARK                         _______ _______ _______ _____ _____    ______ ____
ROOT
ATOM      1  C   UNL     1       6.487   6.886  17.443  0.00  0.00    +0.000 C 
ATOM      2  N   UNL     1       5.622   5.714  17.550  0.00  0.00    +0.000 NA
ATOM      3  C   UNL     1       5.214   5.240  16.221  0.00  0.00    +0.000 C 
ATOM      4  C   UNL     1       4.513   3.880  16.345  0.00  0.00    +0.000 C 
ATOM      5  C   UNL     1       3.421   3.892  17.386  0.00  0.00    +0.000 A 
ATOM      6  C   UNL     1       2.459   2.870  17.408  0.00  0.00    +0.000 A 
ATOM      7  C   UNL     1       1.466   2.883  18.382  0.00  0.00    +0.000 A 
ATOM      8  C   UNL     1       1.430   3.898  19.334  0.00  0.00    +0.000 A 
ATOM      9  C   UNL     1       2.385   4.907  19.334  0.00  0.00    +0.000 A 
ATOM     10  C   UNL     1       3.403   4.904  18.369  0.00  0.00    +0.000 A 
ATOM     11  C   UNL     1       4.424   6.026  18.352  0.00  0.00    +0.000 C 
ENDROOT
BRANCH   7  12
ATOM     12  O   UNL     1       0.502   1.912  18.435  0.00  0.00    +0.000 OA
ATOM     13  H   UNL     1      -0.164   2.188  19.092  0.00  0.00    +0.000 HD
ENDBRANCH   7  12
BRANCH   8  14
ATOM     14  O   UNL     1       0.451   3.925  20.287  0.00  0.00    +0.000 OA
ATOM     15  H   UNL     1      -0.144   3.185  20.057  0.00  0.00    +0.000 HD
ENDBRANCH   8  14
TORSDOF 2
ENDMDL
