MODEL 1
REMARK VINA RESULT:      -5.9      0.000      0.000
REMARK  Name = 
REMARK  3 active torsions:
REMARK  status: ('A' for Active; 'I' for Inactive)
REMARK    1  A    between atoms: C_2  and  O_3
REMARK    2  A    between atoms: C_2  and  C_9
REMARK    3  A    between atoms: O_3  and  C_4
REMARK                            x       y       z     vdW  Elec       q    Type
REMARK                         _______ _______ _______ _____ _____    ______ ____
ROOT
ATOM      1  O   UNL     1       5.516   5.332  19.826  0.00  0.00    +0.000 OA
ATOM      2  C   UNL     1       4.977   4.715  18.924  0.00  0.00    +0.000 C 
ENDROOT
BRANCH   2   3
ATOM      3  C   UNL     1       5.506   4.597  17.540  0.00  0.00    +0.000 A 
ATOM      4  C   UNL     1       6.890   4.674  17.333  0.00  0.00    +0.000 A 
ATOM      5  C   UNL     1       7.408   4.652  16.032  0.00  0.00    +0.000 A 
ATOM      6  C   UNL     1       6.544   4.560  14.941  0.00  0.00    +0.000 A 
ATOM      7 CL   UNL     1       7.177   4.551  13.343  0.00  0.00    +0.000 Cl
ATOM      8  C   UNL     1       5.167   4.490  15.135  0.00  0.00    +0.000 A 
ATOM      9  C   UNL     1       4.648   4.506  16.429  0.00  0.00    +0.000 A 
ENDBRANCH   2   3
BRANCH   2  10
ATOM     10  O   UNL     1       3.763   4.122  18.979  0.00  0.00    +0.000 OA
BRANCH  10  11
ATOM     11  C   UNL     1       3.715   2.792  19.537  0.00  0.00    +0.000 C 
ATOM     12  C   UNL     1       3.044   2.821  20.918  0.00  0.00    +0.000 C 
ATOM     13  S   UNL     1       1.266   3.125  20.668  0.00  0.00    +0.000 S 
ATOM     14  S   UNL     1       1.153   2.418  18.746  0.00  0.00    +0.000 S 
ATOM     15  C   UNL     1       2.892   1.904  18.602  0.00  0.00    +0.000 C 
ENDBRANCH  10  11
ENDBRANCH   2  10
TORSDOF 3
ENDMDL
MODEL 2
REMARK VINA RESULT:      -5.8      0.875      1.619
REMARK  Name = 
REMARK  3 active torsions:
REMARK  status: ('A' for Active; 'I' for Inactive)
REMARK    1  A    between atoms: C_2  and  O_3
REMARK    2  A    between atoms: C_2  and  C_9
REMARK    3  A    between atoms: O_3  and  C_4
REMARK                            x       y       z     vdW  Elec       q    Type
REMARK                         _______ _______ _______ _____ _____    ______ ____
ROOT
ATOM      1  O   UNL     1       6.219   4.989  19.731  0.00  0.00    +0.000 OA
ATOM      2  C   UNL     1       5.430   4.767  18.830  0.00  0.00    +0.000 C 
ENDROOT
BRANCH   2   3
ATOM      3  C   UNL     1       5.781   4.716  17.386  0.00  0.00    +0.000 A 
ATOM      4  C   UNL     1       4.782   4.399  16.456  0.00  0.00    +0.000 A 
ATOM      5  C   UNL     1       5.104   4.261  15.100  0.00  0.00    +0.000 A 
ATOM      6  C   UNL     1       6.421   4.433  14.677  0.00  0.00    +0.000 A 
ATOM      7 CL   UNL     1       6.821   4.245  13.016  0.00  0.00    +0.000 Cl
ATOM      8  C   UNL     1       7.423   4.741  15.594  0.00  0.00    +0.000 A 
ATOM      9  C   UNL     1       7.105   4.885  16.944  0.00  0.00    +0.000 A 
ENDBRANCH   2   3
BRANCH   2  10
ATOM     10  O   UNL     1       4.091   4.633  18.959  0.00  0.00    +0.000 OA
BRANCH  10  11
ATOM     11  C   UNL     1       3.621   3.814  20.051  0.00  0.00    +0.000 C 
ATOM     12  C   UNL     1       2.095   3.920  20.174  0.00  0.00    +0.000 C 
ATOM     13  S   UNL     1       1.359   3.026  18.768  0.00  0.00    +0.000 S 
ATOM     14  S   UNL     1       2.944   1.779  18.399  0.00  0.00    +0.000 S 
ATOM     15  C   UNL     1       3.998   2.359  19.763  0.00  0.00    +0.000 C 
ENDBRANCH  10  11
ENDBRANCH   2  10
TORSDOF 3
ENDMDL
MODEL 3
REMARK VINA RESULT:      -5.8      2.320      2.871
REMARK  Name = 
REMARK  3 active torsions:
REMARK  status: ('A' for Active; 'I' for Inactive)
REMARK    1  A    between atoms: C_2  and  O_3
REMARK    2  A    between atoms: C_2  and  C_9
REMARK    3  A    between atoms: O_3  and  C_4
REMARK                            x       y       z     vdW  Elec       q    Type
REMARK                         _______ _______ _______ _____ _____    ______ ____
ROOT
ATOM      1  O   UNL     1       4.205   2.818  17.382  0.00  0.00    +0.000 OA
ATOM      2  C   UNL     1       4.408   3.712  18.185  0.00  0.00    +0.000 C 
ENDROOT
BRANCH   2   3
ATOM      3  C   UNL     1       5.346   4.846  17.975  0.00  0.00    +0.000 A 
ATOM      4  C   UNL     1       6.495   4.934  18.773  0.00  0.00    +0.000 A 
ATOM      5  C   UNL     1       7.349   6.037  18.655  0.00  0.00    +0.000 A 
ATOM      6  C   UNL     1       7.053   7.051  17.745  0.00  0.00    +0.000 A 
ATOM      7 CL   UNL     1       8.092   8.414  17.611  0.00  0.00    +0.000 Cl
ATOM      8  C   UNL     1       5.911   6.977  16.951  0.00  0.00    +0.000 A 
ATOM      9  C   UNL     1       5.061   5.878  17.062  0.00  0.00    +0.000 A 
ENDBRANCH   2   3
BRANCH   2  10
ATOM     10  O   UNL     1       3.911   3.783  19.440  0.00  0.00    +0.000 OA
BRANCH  10  11
ATOM     11  C   UNL     1       2.772   4.647  19.640  0.00  0.00    +0.000 C 
ATOM     12  C   UNL     1       1.640   4.263  18.676  0.00  0.00    +0.000 C 
ATOM     13  S   UNL     1       0.940   2.679  19.242  0.00  0.00    +0.000 S 
ATOM     14  S   UNL     1       1.512   2.832  21.205  0.00  0.00    +0.000 S 
ATOM     15  C   UNL     1       2.280   4.476  21.079  0.00  0.00    +0.000 C 
ENDBRANCH  10  11
ENDBRANCH   2  10
TORSDOF 3
ENDMDL
MODEL 4
REMARK VINA RESULT:      -5.8      1.079      1.448
REMARK  Name = 
REMARK  3 active torsions:
REMARK  status: ('A' for Active; 'I' for Inactive)
REMARK    1  A    between atoms: C_2  and  O_3
REMARK    2  A    between atoms: C_2  and  C_9
REMARK    3  A    between atoms: O_3  and  C_4
REMARK                            x       y       z     vdW  Elec       q    Type
REMARK                         _______ _______ _______ _____ _____    ______ ____
ROOT
ATOM      1  O   UNL     1       6.221   5.123  19.686  0.00  0.00    +0.000 OA
ATOM      2  C   UNL     1       5.624   4.463  18.854  0.00  0.00    +0.000 C 
ENDROOT
BRANCH   2   3
ATOM      3  C   UNL     1       5.968   4.405  17.408  0.00  0.00    +0.000 A 
ATOM      4  C   UNL     1       7.188   4.944  16.979  0.00  0.00    +0.000 A 
ATOM      5  C   UNL     1       7.498   4.980  15.614  0.00  0.00    +0.000 A 
ATOM      6  C   UNL     1       6.588   4.484  14.681  0.00  0.00    +0.000 A 
ATOM      7 CL   UNL     1       6.960   4.544  13.004  0.00  0.00    +0.000 Cl
ATOM      8  C   UNL     1       5.370   3.952  15.096  0.00  0.00    +0.000 A 
ATOM      9  C   UNL     1       5.060   3.910  16.455  0.00  0.00    +0.000 A 
ENDBRANCH   2   3
BRANCH   2  10
ATOM     10  O   UNL     1       4.491   3.755  19.061  0.00  0.00    +0.000 OA
BRANCH  10  11
ATOM     11  C   UNL     1       3.456   4.397  19.836  0.00  0.00    +0.000 C 
ATOM     12  C   UNL     1       2.585   5.278  18.930  0.00  0.00    +0.000 C 
ATOM     13  S   UNL     1       1.569   4.179  17.893  0.00  0.00    +0.000 S 
ATOM     14  S   UNL     1       1.609   2.547  19.135  0.00  0.00    +0.000 S 
ATOM     15  C   UNL     1       2.581   3.313  20.468  0.00  0.00    +0.000 C 
ENDBRANCH  10  11
ENDBRANCH   2  10
TORSDOF 3
ENDMDL
MODEL 5
REMARK VINA RESULT:      -5.7      2.384      3.107
REMARK  Name = 
REMARK  3 active torsions:
REMARK  status: ('A' for Active; 'I' for Inactive)
REMARK    1  A    between atoms: C_2  and  O_3
REMARK    2  A    between atoms: C_2  and  C_9
REMARK    3  A    between atoms: O_3  and  C_4
REMARK                            x       y       z     vdW  Elec       q    Type
REMARK                         _______ _______ _______ _____ _____    ______ ____
ROOT
ATOM      1  O   UNL     1       4.369   2.959  17.148  0.00  0.00    +0.000 OA
ATOM      2  C   UNL     1       4.471   3.778  18.044  0.00  0.00    +0.000 C 
ENDROOT
BRANCH   2   3
ATOM      3  C   UNL     1       5.368   4.964  18.014  0.00  0.00    +0.000 A 
ATOM      4  C   UNL     1       5.064   6.022  17.147  0.00  0.00    +0.000 A 
ATOM      5  C   UNL     1       5.938   7.111  17.037  0.00  0.00    +0.000 A 
ATOM      6  C   UNL     1       7.113   7.139  17.786  0.00  0.00    +0.000 A 
ATOM      7 CL   UNL     1       8.195   8.467  17.639  0.00  0.00    +0.000 Cl
ATOM      8  C   UNL     1       7.427   6.089  18.647  0.00  0.00    +0.000 A 
ATOM      9  C   UNL     1       6.557   5.006  18.763  0.00  0.00    +0.000 A 
ENDBRANCH   2   3
BRANCH   2  10
ATOM     10  O   UNL     1       3.881   3.707  19.259  0.00  0.00    +0.000 OA
BRANCH  10  11
ATOM     11  C   UNL     1       2.758   4.584  19.488  0.00  0.00    +0.000 C 
ATOM     12  C   UNL     1       1.579   4.181  18.591  0.00  0.00    +0.000 C 
ATOM     13  S   UNL     1       0.899   2.618  19.235  0.00  0.00    +0.000 S 
ATOM     14  S   UNL     1       1.565   2.823  21.163  0.00  0.00    +0.000 S 
ATOM     15  C   UNL     1       2.335   4.457  20.953  0.00  0.00    +0.000 C 
ENDBRANCH  10  11
ENDBRANCH   2  10
TORSDOF 3
ENDMDL
MODEL 6
REMARK VINA RESULT:      -5.7      1.850      2.386
REMARK  Name = 
REMARK  3 active torsions:
REMARK  status: ('A' for Active; 'I' for Inactive)
REMARK    1  A    between atoms: C_2  and  O_3
REMARK    2  A    between atoms: C_2  and  C_9
REMARK    3  A    between atoms: O_3  and  C_4
REMARK                            x       y       z     vdW  Elec       q    Type
REMARK                         _______ _______ _______ _____ _____    ______ ____
ROOT
ATOM      1  O   UNL     1       2.508   7.133  18.580  0.00  0.00    +0.000 OA
ATOM      2  C   UNL     1       3.190   6.124  18.588  0.00  0.00    +0.000 C 
ENDROOT
BRANCH   2   3
ATOM      3  C   UNL     1       4.096   5.701  17.487  0.00  0.00    +0.000 A 
ATOM      4  C   UNL     1       4.617   6.675  16.625  0.00  0.00    +0.000 A 
ATOM      5  C   UNL     1       5.402   6.295  15.530  0.00  0.00    +0.000 A 
ATOM      6  C   UNL     1       5.660   4.946  15.294  0.00  0.00    +0.000 A 
ATOM      7 CL   UNL     1       6.609   4.476  13.939  0.00  0.00    +0.000 Cl
ATOM      8  C   UNL     1       5.142   3.969  16.141  0.00  0.00    +0.000 A 
ATOM      9  C   UNL     1       4.364   4.344  17.236  0.00  0.00    +0.000 A 
ENDBRANCH   2   3
BRANCH   2  10
ATOM     10  O   UNL     1       3.174   5.159  19.535  0.00  0.00    +0.000 OA
BRANCH  10  11
ATOM     11  C   UNL     1       1.885   4.803  20.078  0.00  0.00    +0.000 C 
ATOM     12  C   UNL     1       1.171   3.815  19.146  0.00  0.00    +0.000 C 
ATOM     13  S   UNL     1       2.024   2.211  19.277  0.00  0.00    +0.000 S 
ATOM     14  S   UNL     1       2.829   2.500  21.141  0.00  0.00    +0.000 S 
ATOM     15  C   UNL     1       2.100   4.139  21.440  0.00  0.00    +0.000 C 
ENDBRANCH  10  11
ENDBRANCH   2  10
TORSDOF 3
ENDMDL
MODEL 7
REMARK VINA RESULT:      -5.6      4.337      5.197
REMARK  Name = 
REMARK  3 active torsions:
REMARK  status: ('A' for Active; 'I' for Inactive)
REMARK    1  A    between atoms: C_2  and  O_3
REMARK    2  A    between atoms: C_2  and  C_9
REMARK    3  A    between atoms: O_3  and  C_4
REMARK                            x       y       z     vdW  Elec       q    Type
REMARK                         _______ _______ _______ _____ _____    ______ ____
ROOT
ATOM      1  O   UNL     1       4.186   5.812  17.217  0.00  0.00    +0.000 OA
ATOM      2  C   UNL     1       3.552   5.873  18.255  0.00  0.00    +0.000 C 
ENDROOT
BRANCH   2   3
ATOM      3  C   UNL     1       2.695   7.018  18.663  0.00  0.00    +0.000 A 
ATOM      4  C   UNL     1       2.467   8.054  17.747  0.00  0.00    +0.000 A 
ATOM      5  C   UNL     1       1.735   9.184  18.134  0.00  0.00    +0.000 A 
ATOM      6  C   UNL     1       1.241   9.280  19.434  0.00  0.00    +0.000 A 
ATOM      7 CL   UNL     1       0.358  10.675  19.915  0.00  0.00    +0.000 Cl
ATOM      8  C   UNL     1       1.468   8.260  20.354  0.00  0.00    +0.000 A 
ATOM      9  C   UNL     1       2.191   7.130  19.971  0.00  0.00    +0.000 A 
ENDBRANCH   2   3
BRANCH   2  10
ATOM     10  O   UNL     1       3.590   4.975  19.265  0.00  0.00    +0.000 OA
BRANCH  10  11
ATOM     11  C   UNL     1       3.416   3.587  18.909  0.00  0.00    +0.000 C 
ATOM     12  C   UNL     1       3.746   2.687  20.108  0.00  0.00    +0.000 C 
ATOM     13  S   UNL     1       2.406   2.871  21.328  0.00  0.00    +0.000 S 
ATOM     14  S   UNL     1       0.950   3.481  20.020  0.00  0.00    +0.000 S 
ATOM     15  C   UNL     1       1.955   3.369  18.509  0.00  0.00    +0.000 C 
ENDBRANCH  10  11
ENDBRANCH   2  10
TORSDOF 3
ENDMDL
MODEL 8
REMARK VINA RESULT:      -5.6      4.168      5.752
REMARK  Name = 
REMARK  3 active torsions:
REMARK  status: ('A' for Active; 'I' for Inactive)
REMARK    1  A    between atoms: C_2  and  O_3
REMARK    2  A    between atoms: C_2  and  C_9
REMARK    3  A    between atoms: O_3  and  C_4
REMARK                            x       y       z     vdW  Elec       q    Type
REMARK                         _______ _______ _______ _____ _____    ______ ____
ROOT
ATOM      1  O   UNL     1       3.117   7.887  17.249  0.00  0.00    +0.000 OA
ATOM      2  C   UNL     1       3.590   6.917  17.813  0.00  0.00    +0.000 C 
ENDROOT
BRANCH   2   3
ATOM      3  C   UNL     1       2.803   5.901  18.561  0.00  0.00    +0.000 A 
ATOM      4  C   UNL     1       2.679   6.027  19.951  0.00  0.00    +0.000 A 
ATOM      5  C   UNL     1       2.017   5.038  20.689  0.00  0.00    +0.000 A 
ATOM      6  C   UNL     1       1.486   3.924  20.040  0.00  0.00    +0.000 A 
ATOM      7 CL   UNL     1       0.688   2.701  20.947  0.00  0.00    +0.000 Cl
ATOM      8  C   UNL     1       1.609   3.786  18.659  0.00  0.00    +0.000 A 
ATOM      9  C   UNL     1       2.263   4.771  17.921  0.00  0.00    +0.000 A 
ENDBRANCH   2   3
BRANCH   2  10
ATOM     10  O   UNL     1       4.906   6.641  17.956  0.00  0.00    +0.000 OA
BRANCH  10  11
ATOM     11  C   UNL     1       5.739   6.823  16.791  0.00  0.00    +0.000 C 
ATOM     12  C   UNL     1       7.206   6.538  17.139  0.00  0.00    +0.000 C 
ATOM     13  S   UNL     1       7.383   4.741  17.379  0.00  0.00    +0.000 S 
ATOM     14  S   UNL     1       5.771   4.171  16.247  0.00  0.00    +0.000 S 
ATOM     15  C   UNL     1       5.283   5.839  15.711  0.00  0.00    +0.000 C 
ENDBRANCH  10  11
ENDBRANCH   2  10
TORSDOF 3
ENDMDL
MODEL 9
REMARK VINA RESULT:      -5.6      2.695      3.413
REMARK  Name = 
REMARK  3 active torsions:
REMARK  status: ('A' for Active; 'I' for Inactive)
REMARK    1  A    between atoms: C_2  and  O_3
REMARK    2  A    between atoms: C_2  and  C_9
REMARK    3  A    between atoms: O_3  and  C_4
REMARK                            x       y       z     vdW  Elec       q    Type
REMARK                         _______ _______ _______ _____ _____    ______ ____
ROOT
ATOM      1  O   UNL     1       5.533   3.419  15.747  0.00  0.00    +0.000 OA
ATOM      2  C   UNL     1       5.318   3.995  16.799  0.00  0.00    +0.000 C 
ENDROOT
BRANCH   2   3
ATOM      3  C   UNL     1       6.108   5.144  17.315  0.00  0.00    +0.000 A 
ATOM      4  C   UNL     1       5.919   6.409  16.742  0.00  0.00    +0.000 A 
ATOM      5  C   UNL     1       6.710   7.490  17.150  0.00  0.00    +0.000 A 
ATOM      6  C   UNL     1       7.691   7.305  18.124  0.00  0.00    +0.000 A 
ATOM      7 CL   UNL     1       8.675   8.627  18.614  0.00  0.00    +0.000 Cl
ATOM      8  C   UNL     1       7.891   6.051  18.696  0.00  0.00    +0.000 A 
ATOM      9  C   UNL     1       7.101   4.973  18.296  0.00  0.00    +0.000 A 
ENDBRANCH   2   3
BRANCH   2  10
ATOM     10  O   UNL     1       4.407   3.637  17.731  0.00  0.00    +0.000 OA
BRANCH  10  11
ATOM     11  C   UNL     1       3.026   3.611  17.315  0.00  0.00    +0.000 C 
ATOM     12  C   UNL     1       2.352   2.317  17.793  0.00  0.00    +0.000 C 
ATOM     13  S   UNL     1       2.137   2.435  19.597  0.00  0.00    +0.000 S 
ATOM     14  S   UNL     1       2.152   4.481  19.724  0.00  0.00    +0.000 S 
ATOM     15  C   UNL     1       2.308   4.807  17.942  0.00  0.00    +0.000 C 
ENDBRANCH  10  11
ENDBRANCH   2  10
TORSDOF 3
ENDMDL
