MODEL 1
REMARK VINA RESULT:      -8.1      0.000      0.000
REMARK  Name = 
REMARK  11 active torsions:
REMARK  status: ('A' for Active; 'I' for Inactive)
REMARK    1  A    between atoms: C_1  and  N_2
REMARK    2  A    between atoms: N_2  and  C_3
REMARK    3  A    between atoms: C_3  and  C_4
REMARK    4  A    between atoms: C_4  and  O_5
REMARK    5  A    between atoms: O_5  and  C_6
REMARK    6  A    between atoms: C_14  and  C_15
REMARK    7  A    between atoms: C_19  and  C_20
REMARK    8  A    between atoms: C_23  and  O_24
REMARK    9  A    between atoms: O_24  and  C_25
REMARK   10  A    between atoms: C_26  and  C_27
REMARK   11  A    between atoms: C_27  and  O_28
REMARK                            x       y       z     vdW  Elec       q    Type
REMARK                         _______ _______ _______ _____ _____    ______ ____
ROOT
ATOM      1  C   UNL     1       2.599   5.264  20.466  0.00  0.00    +0.000 A 
ATOM      2  N   UNL     1       3.374   5.062  19.398  0.00  0.00    +0.000 NA
ATOM      3  C   UNL     1       3.432   6.023  18.467  0.00  0.00    +0.000 A 
ATOM      4  N   UNL     1       4.220   5.792  17.334  0.00  0.00    +0.000 N 
ATOM      5  C   UNL     1       5.155   6.872  16.918  0.00  0.00    +0.000 C 
ATOM      6  C   UNL     1       5.369   6.728  15.407  0.00  0.00    +0.000 C 
ATOM      7  O   UNL     1       6.047   5.493  15.135  0.00  0.00    +0.000 OA
ATOM      8  C   UNL     1       5.265   4.380  15.603  0.00  0.00    +0.000 C 
ATOM      9  C   UNL     1       4.901   4.468  17.116  0.00  0.00    +0.000 C 
ATOM     10  C   UNL     1       4.096   3.216  17.453  0.00  0.00    +0.000 C 
ATOM     11  C   UNL     1       2.661   7.190  18.623  0.00  0.00    +0.000 A 
ATOM     12  C   UNL     1       2.497   8.226  17.679  0.00  0.00    +0.000 A 
ATOM     13  C   UNL     1       1.821   9.380  18.004  0.00  0.00    +0.000 A 
ATOM     14  C   UNL     1       1.201   9.437  19.232  0.00  0.00    +0.000 A 
ATOM     15  N   UNL     1       1.267   8.411  20.119  0.00  0.00    +0.000 NA
ATOM     16  C   UNL     1       1.963   7.318  19.827  0.00  0.00    +0.000 A 
ATOM     17  N   UNL     1       1.910   6.361  20.733  0.00  0.00    +0.000 NA
ENDROOT
BRANCH  14  18
ATOM     18  C   UNL     1       0.340  10.557  19.623  0.00  0.00    +0.000 A 
ATOM     19  C   UNL     1       0.739  11.510  20.567  0.00  0.00    +0.000 A 
ATOM     20  C   UNL     1      -0.074  12.592  20.877  0.00  0.00    +0.000 A 
ATOM     21  C   UNL     1      -1.333  12.740  20.283  0.00  0.00    +0.000 A 
ATOM     22  C   UNL     1      -1.759  11.811  19.322  0.00  0.00    +0.000 A 
ATOM     23  C   UNL     1      -0.917  10.728  19.015  0.00  0.00    +0.000 A 
BRANCH  21  24
ATOM     24  O   UNL     1      -2.172  13.783  20.582  0.00  0.00    +0.000 OA
ATOM     25  C   UNL     1      -2.781  13.706  21.875  0.00  0.00    +0.000 C 
ENDBRANCH  21  24
BRANCH  22  26
ATOM     26  C   UNL     1      -3.096  11.861  18.635  0.00  0.00    +0.000 C 
BRANCH  26  27
ATOM     27  O   UNL     1      -2.938  11.877  17.219  0.00  0.00    +0.000 OA
ATOM     28  H   UNL     1      -3.129  10.976  16.911  0.00  0.00    +0.000 HD
ENDBRANCH  26  27
ENDBRANCH  22  26
ENDBRANCH  14  18
BRANCH   1  29
ATOM     29  O   UNL     1       2.419   4.248  21.377  0.00  0.00    +0.000 OA
BRANCH  29  30
ATOM     30  C   UNL     1       1.376   3.348  21.007  0.00  0.00    +0.000 C 
BRANCH  30  31
ATOM     31  C   UNL     1       2.029   2.045  20.549  0.00  0.00    +0.000 C 
BRANCH  31  33
ATOM     32  C   UNL     1       0.628   2.642  18.694  0.00  0.00    +0.000 C 
ATOM     33  N   UNL     1       1.590   1.674  19.201  0.00  0.00    +0.000 NA
ATOM     34  H   UNL     1       2.397   1.640  18.577  0.00  0.00    +0.000 HD
ENDBRANCH  31  33
ENDBRANCH  30  31
ENDBRANCH  29  30
ENDBRANCH   1  29
TORSDOF 8
ENDMDL
MODEL 2
REMARK VINA RESULT:      -8.0      0.960      1.650
REMARK  Name = 
REMARK  11 active torsions:
REMARK  status: ('A' for Active; 'I' for Inactive)
REMARK    1  A    between atoms: C_1  and  N_2
REMARK    2  A    between atoms: N_2  and  C_3
REMARK    3  A    between atoms: C_3  and  C_4
REMARK    4  A    between atoms: C_4  and  O_5
REMARK    5  A    between atoms: O_5  and  C_6
REMARK    6  A    between atoms: C_14  and  C_15
REMARK    7  A    between atoms: C_19  and  C_20
REMARK    8  A    between atoms: C_23  and  O_24
REMARK    9  A    between atoms: O_24  and  C_25
REMARK   10  A    between atoms: C_26  and  C_27
REMARK   11  A    between atoms: C_27  and  O_28
REMARK                            x       y       z     vdW  Elec       q    Type
REMARK                         _______ _______ _______ _____ _____    ______ ____
ROOT
ATOM      1  C   UNL     1       2.586   5.200  20.508  0.00  0.00    +0.000 A 
ATOM      2  N   UNL     1       3.367   5.018  19.441  0.00  0.00    +0.000 NA
ATOM      3  C   UNL     1       3.406   5.983  18.513  0.00  0.00    +0.000 A 
ATOM      4  N   UNL     1       4.200   5.772  17.380  0.00  0.00    +0.000 N 
ATOM      5  C   UNL     1       5.113   6.873  16.969  0.00  0.00    +0.000 C 
ATOM      6  C   UNL     1       5.331   6.738  15.457  0.00  0.00    +0.000 C 
ATOM      7  O   UNL     1       6.036   5.519  15.183  0.00  0.00    +0.000 OA
ATOM      8  C   UNL     1       5.277   4.388  15.646  0.00  0.00    +0.000 C 
ATOM      9  C   UNL     1       4.909   4.464  17.159  0.00  0.00    +0.000 C 
ATOM     10  C   UNL     1       4.131   3.194  17.491  0.00  0.00    +0.000 C 
ATOM     11  C   UNL     1       2.610   7.133  18.671  0.00  0.00    +0.000 A 
ATOM     12  C   UNL     1       2.425   8.168  17.730  0.00  0.00    +0.000 A 
ATOM     13  C   UNL     1       1.724   9.307  18.058  0.00  0.00    +0.000 A 
ATOM     14  C   UNL     1       1.101   9.346  19.284  0.00  0.00    +0.000 A 
ATOM     15  N   UNL     1       1.188   8.320  20.168  0.00  0.00    +0.000 NA
ATOM     16  C   UNL     1       1.907   7.243  19.874  0.00  0.00    +0.000 A 
ATOM     17  N   UNL     1       1.874   6.282  20.777  0.00  0.00    +0.000 NA
ENDROOT
BRANCH  14  18
ATOM     18  C   UNL     1       0.216  10.447  19.677  0.00  0.00    +0.000 A 
ATOM     19  C   UNL     1      -0.325  11.339  18.744  0.00  0.00    +0.000 A 
ATOM     20  C   UNL     1      -1.204  12.338  19.139  0.00  0.00    +0.000 A 
ATOM     21  C   UNL     1      -1.544  12.508  20.486  0.00  0.00    +0.000 A 
ATOM     22  C   UNL     1      -1.032  11.623  21.447  0.00  0.00    +0.000 A 
ATOM     23  C   UNL     1      -0.151  10.612  21.026  0.00  0.00    +0.000 A 
BRANCH  21  24
ATOM     24  O   UNL     1      -2.391  13.497  20.914  0.00  0.00    +0.000 OA
ATOM     25  C   UNL     1      -3.766  13.296  20.571  0.00  0.00    +0.000 C 
ENDBRANCH  21  24
BRANCH  22  26
ATOM     26  C   UNL     1      -1.314  11.722  22.920  0.00  0.00    +0.000 C 
BRANCH  26  27
ATOM     27  O   UNL     1      -0.978  13.016  23.414  0.00  0.00    +0.000 OA
ATOM     28  H   UNL     1      -0.024  13.001  23.596  0.00  0.00    +0.000 HD
ENDBRANCH  26  27
ENDBRANCH  22  26
ENDBRANCH  14  18
BRANCH   1  29
ATOM     29  O   UNL     1       2.427   4.178  21.416  0.00  0.00    +0.000 OA
BRANCH  29  30
ATOM     30  C   UNL     1       1.346   3.308  21.089  0.00  0.00    +0.000 C 
BRANCH  30  31
ATOM     31  C   UNL     1       1.946   2.000  20.572  0.00  0.00    +0.000 C 
BRANCH  31  33
ATOM     32  C   UNL     1       0.583   2.635  18.701  0.00  0.00    +0.000 C 
ATOM     33  N   UNL     1       1.730   1.848  19.130  0.00  0.00    +0.000 NA
ATOM     34  H   UNL     1       2.561   2.158  18.627  0.00  0.00    +0.000 HD
ENDBRANCH  31  33
ENDBRANCH  30  31
ENDBRANCH  29  30
ENDBRANCH   1  29
TORSDOF 8
ENDMDL
MODEL 3
REMARK VINA RESULT:      -7.9      0.933      1.785
REMARK  Name = 
REMARK  11 active torsions:
REMARK  status: ('A' for Active; 'I' for Inactive)
REMARK    1  A    between atoms: C_1  and  N_2
REMARK    2  A    between atoms: N_2  and  C_3
REMARK    3  A    between atoms: C_3  and  C_4
REMARK    4  A    between atoms: C_4  and  O_5
REMARK    5  A    between atoms: O_5  and  C_6
REMARK    6  A    between atoms: C_14  and  C_15
REMARK    7  A    between atoms: C_19  and  C_20
REMARK    8  A    between atoms: C_23  and  O_24
REMARK    9  A    between atoms: O_24  and  C_25
REMARK   10  A    between atoms: C_26  and  C_27
REMARK   11  A    between atoms: C_27  and  O_28
REMARK                            x       y       z     vdW  Elec       q    Type
REMARK                         _______ _______ _______ _____ _____    ______ ____
ROOT
ATOM      1  C   UNL     1       2.553   5.487  20.591  0.00  0.00    +0.000 A 
ATOM      2  N   UNL     1       3.330   5.221  19.539  0.00  0.00    +0.000 NA
ATOM      3  C   UNL     1       3.370   6.114  18.541  0.00  0.00    +0.000 A 
ATOM      4  N   UNL     1       4.159   5.815  17.424  0.00  0.00    +0.000 N 
ATOM      5  C   UNL     1       5.076   6.878  16.930  0.00  0.00    +0.000 C 
ATOM      6  C   UNL     1       5.289   6.630  15.432  0.00  0.00    +0.000 C 
ATOM      7  O   UNL     1       5.986   5.389  15.247  0.00  0.00    +0.000 OA
ATOM      8  C   UNL     1       5.224   4.300  15.795  0.00  0.00    +0.000 C 
ATOM      9  C   UNL     1       4.861   4.491  17.299  0.00  0.00    +0.000 C 
ATOM     10  C   UNL     1       4.078   3.253  17.728  0.00  0.00    +0.000 C 
ATOM     11  C   UNL     1       2.580   7.277  18.615  0.00  0.00    +0.000 A 
ATOM     12  C   UNL     1       2.397   8.240  17.600  0.00  0.00    +0.000 A 
ATOM     13  C   UNL     1       1.704   9.403  17.844  0.00  0.00    +0.000 A 
ATOM     14  C   UNL     1       1.085   9.537  19.066  0.00  0.00    +0.000 A 
ATOM     15  N   UNL     1       1.170   8.580  20.024  0.00  0.00    +0.000 NA
ATOM     16  C   UNL     1       1.883   7.480  19.809  0.00  0.00    +0.000 A 
ATOM     17  N   UNL     1       1.847   6.589  20.781  0.00  0.00    +0.000 NA
ENDROOT
BRANCH  14  18
ATOM     18  C   UNL     1       0.207  10.669  19.378  0.00  0.00    +0.000 A 
ATOM     19  C   UNL     1      -1.083  10.782  18.846  0.00  0.00    +0.000 A 
ATOM     20  C   UNL     1      -1.912  11.836  19.203  0.00  0.00    +0.000 A 
ATOM     21  C   UNL     1      -1.470  12.838  20.076  0.00  0.00    +0.000 A 
ATOM     22  C   UNL     1      -0.188  12.748  20.640  0.00  0.00    +0.000 A 
ATOM     23  C   UNL     1       0.633  11.668  20.273  0.00  0.00    +0.000 A 
BRANCH  21  24
ATOM     24  O   UNL     1      -2.253  13.905  20.432  0.00  0.00    +0.000 OA
ATOM     25  C   UNL     1      -3.526  13.552  20.985  0.00  0.00    +0.000 C 
ENDBRANCH  21  24
BRANCH  22  26
ATOM     26  C   UNL     1       0.397  13.774  21.571  0.00  0.00    +0.000 C 
BRANCH  26  27
ATOM     27  O   UNL     1       1.820  13.696  21.580  0.00  0.00    +0.000 OA
ATOM     28  H   UNL     1       2.100  13.895  22.488  0.00  0.00    +0.000 HD
ENDBRANCH  26  27
ENDBRANCH  22  26
ENDBRANCH  14  18
BRANCH   1  29
ATOM     29  O   UNL     1       2.392   4.536  21.574  0.00  0.00    +0.000 OA
BRANCH  29  30
ATOM     30  C   UNL     1       2.566   3.205  21.092  0.00  0.00    +0.000 C 
BRANCH  30  31
ATOM     31  C   UNL     1       1.214   2.498  21.187  0.00  0.00    +0.000 C 
BRANCH  31  33
ATOM     32  C   UNL     1       0.925   2.512  18.805  0.00  0.00    +0.000 C 
ATOM     33  N   UNL     1       0.332   2.883  20.082  0.00  0.00    +0.000 NA
ATOM     34  H   UNL     1      -0.569   2.416  20.186  0.00  0.00    +0.000 HD
ENDBRANCH  31  33
ENDBRANCH  30  31
ENDBRANCH  29  30
ENDBRANCH   1  29
TORSDOF 8
ENDMDL
MODEL 4
REMARK VINA RESULT:      -7.9      1.673      4.212
REMARK  Name = 
REMARK  11 active torsions:
REMARK  status: ('A' for Active; 'I' for Inactive)
REMARK    1  A    between atoms: C_1  and  N_2
REMARK    2  A    between atoms: N_2  and  C_3
REMARK    3  A    between atoms: C_3  and  C_4
REMARK    4  A    between atoms: C_4  and  O_5
REMARK    5  A    between atoms: O_5  and  C_6
REMARK    6  A    between atoms: C_14  and  C_15
REMARK    7  A    between atoms: C_19  and  C_20
REMARK    8  A    between atoms: C_23  and  O_24
REMARK    9  A    between atoms: O_24  and  C_25
REMARK   10  A    between atoms: C_26  and  C_27
REMARK   11  A    between atoms: C_27  and  O_28
REMARK                            x       y       z     vdW  Elec       q    Type
REMARK                         _______ _______ _______ _____ _____    ______ ____
ROOT
ATOM      1  C   UNL     1       3.693   6.899  17.535  0.00  0.00    +0.000 A 
ATOM      2  N   UNL     1       3.583   5.744  18.196  0.00  0.00    +0.000 NA
ATOM      3  C   UNL     1       2.814   5.713  19.291  0.00  0.00    +0.000 A 
ATOM      4  N   UNL     1       2.730   4.509  19.999  0.00  0.00    +0.000 N 
ATOM      5  C   UNL     1       1.372   4.033  20.382  0.00  0.00    +0.000 C 
ATOM      6  C   UNL     1       1.533   3.172  21.640  0.00  0.00    +0.000 C 
ATOM      7  O   UNL     1       2.288   1.994  21.320  0.00  0.00    +0.000 OA
ATOM      8  C   UNL     1       3.592   2.354  20.832  0.00  0.00    +0.000 C 
ATOM      9  C   UNL     1       3.554   3.314  19.605  0.00  0.00    +0.000 C 
ATOM     10  C   UNL     1       5.002   3.580  19.203  0.00  0.00    +0.000 C 
ATOM     11  C   UNL     1       2.174   6.889  19.727  0.00  0.00    +0.000 A 
ATOM     12  C   UNL     1       1.451   7.063  20.926  0.00  0.00    +0.000 A 
ATOM     13  C   UNL     1       0.760   8.227  21.174  0.00  0.00    +0.000 A 
ATOM     14  C   UNL     1       0.903   9.262  20.278  0.00  0.00    +0.000 A 
ATOM     15  N   UNL     1       1.671   9.148  19.165  0.00  0.00    +0.000 NA
ATOM     16  C   UNL     1       2.297   8.007  18.897  0.00  0.00    +0.000 A 
ATOM     17  N   UNL     1       3.063   8.026  17.824  0.00  0.00    +0.000 NA
ENDROOT
BRANCH  14  18
ATOM     18  C   UNL     1       0.327  10.588  20.517  0.00  0.00    +0.000 A 
ATOM     19  C   UNL     1      -0.112  10.995  21.782  0.00  0.00    +0.000 A 
ATOM     20  C   UNL     1      -0.603  12.277  21.989  0.00  0.00    +0.000 A 
ATOM     21  C   UNL     1      -0.709  13.187  20.931  0.00  0.00    +0.000 A 
ATOM     22  C   UNL     1      -0.265  12.818  19.652  0.00  0.00    +0.000 A 
ATOM     23  C   UNL     1       0.237  11.519  19.465  0.00  0.00    +0.000 A 
BRANCH  21  24
ATOM     24  O   UNL     1      -1.210  14.453  21.095  0.00  0.00    +0.000 OA
ATOM     25  C   UNL     1      -2.609  14.507  21.394  0.00  0.00    +0.000 C 
ENDBRANCH  21  24
BRANCH  22  26
ATOM     26  C   UNL     1      -0.350  13.706  18.442  0.00  0.00    +0.000 C 
BRANCH  26  27
ATOM     27  O   UNL     1      -1.027  13.045  17.376  0.00  0.00    +0.000 OA
ATOM     28  H   UNL     1      -0.395  12.409  17.002  0.00  0.00    +0.000 HD
ENDBRANCH  26  27
ENDBRANCH  22  26
ENDBRANCH  14  18
BRANCH   1  29
ATOM     29  O   UNL     1       4.573   6.998  16.481  0.00  0.00    +0.000 OA
BRANCH  29  30
ATOM     30  C   UNL     1       5.143   5.743  16.115  0.00  0.00    +0.000 C 
BRANCH  30  31
ATOM     31  C   UNL     1       6.644   5.818  16.392  0.00  0.00    +0.000 C 
BRANCH  31  33
ATOM     32  C   UNL     1       6.685   4.425  14.438  0.00  0.00    +0.000 C 
ATOM     33  N   UNL     1       7.424   5.405  15.221  0.00  0.00    +0.000 NA
ATOM     34  H   UNL     1       7.626   6.220  14.642  0.00  0.00    +0.000 HD
ENDBRANCH  31  33
ENDBRANCH  30  31
ENDBRANCH  29  30
ENDBRANCH   1  29
TORSDOF 8
ENDMDL
MODEL 5
REMARK VINA RESULT:      -7.8      1.004      1.024
REMARK  Name = 
REMARK  11 active torsions:
REMARK  status: ('A' for Active; 'I' for Inactive)
REMARK    1  A    between atoms: C_1  and  N_2
REMARK    2  A    between atoms: N_2  and  C_3
REMARK    3  A    between atoms: C_3  and  C_4
REMARK    4  A    between atoms: C_4  and  O_5
REMARK    5  A    between atoms: O_5  and  C_6
REMARK    6  A    between atoms: C_14  and  C_15
REMARK    7  A    between atoms: C_19  and  C_20
REMARK    8  A    between atoms: C_23  and  O_24
REMARK    9  A    between atoms: O_24  and  C_25
REMARK   10  A    between atoms: C_26  and  C_27
REMARK   11  A    between atoms: C_27  and  O_28
REMARK                            x       y       z     vdW  Elec       q    Type
REMARK                         _______ _______ _______ _____ _____    ______ ____
ROOT
ATOM      1  C   UNL     1       3.284   4.619  20.122  0.00  0.00    +0.000 A 
ATOM      2  N   UNL     1       3.968   4.568  18.976  0.00  0.00    +0.000 NA
ATOM      3  C   UNL     1       3.871   5.606  18.135  0.00  0.00    +0.000 A 
ATOM      4  N   UNL     1       4.563   5.532  16.920  0.00  0.00    +0.000 N 
ATOM      5  C   UNL     1       5.378   6.712  16.524  0.00  0.00    +0.000 C 
ATOM      6  C   UNL     1       5.458   6.713  14.993  0.00  0.00    +0.000 C 
ATOM      7  O   UNL     1       6.191   5.561  14.552  0.00  0.00    +0.000 OA
ATOM      8  C   UNL     1       5.536   4.356  14.983  0.00  0.00    +0.000 C 
ATOM      9  C   UNL     1       5.311   4.288  16.524  0.00  0.00    +0.000 C 
ATOM     10  C   UNL     1       4.630   2.954  16.816  0.00  0.00    +0.000 C 
ATOM     11  C   UNL     1       3.039   6.693  18.462  0.00  0.00    +0.000 A 
ATOM     12  C   UNL     1       2.715   7.788  17.634  0.00  0.00    +0.000 A 
ATOM     13  C   UNL     1       1.995   8.855  18.121  0.00  0.00    +0.000 A 
ATOM     14  C   UNL     1       1.490   8.760  19.398  0.00  0.00    +0.000 A 
ATOM     15  N   UNL     1       1.711   7.672  20.179  0.00  0.00    +0.000 NA
ATOM     16  C   UNL     1       2.450   6.665  19.729  0.00  0.00    +0.000 A 
ATOM     17  N   UNL     1       2.549   5.634  20.546  0.00  0.00    +0.000 NA
ENDROOT
BRANCH  14  18
ATOM     18  C   UNL     1       0.594   9.774  19.963  0.00  0.00    +0.000 A 
ATOM     19  C   UNL     1       0.632  10.133  21.315  0.00  0.00    +0.000 A 
ATOM     20  C   UNL     1      -0.190  11.136  21.811  0.00  0.00    +0.000 A 
ATOM     21  C   UNL     1      -1.108  11.790  20.981  0.00  0.00    +0.000 A 
ATOM     22  C   UNL     1      -1.163  11.466  19.617  0.00  0.00    +0.000 A 
ATOM     23  C   UNL     1      -0.315  10.455  19.133  0.00  0.00    +0.000 A 
BRANCH  21  24
ATOM     24  O   UNL     1      -1.951  12.769  21.441  0.00  0.00    +0.000 OA
ATOM     25  C   UNL     1      -1.797  13.086  22.828  0.00  0.00    +0.000 C 
ENDBRANCH  21  24
BRANCH  22  26
ATOM     26  C   UNL     1      -2.121  12.090  18.639  0.00  0.00    +0.000 C 
BRANCH  26  27
ATOM     27  O   UNL     1      -1.433  12.546  17.478  0.00  0.00    +0.000 OA
ATOM     28  H   UNL     1      -1.017  13.390  17.719  0.00  0.00    +0.000 HD
ENDBRANCH  26  27
ENDBRANCH  22  26
ENDBRANCH  14  18
BRANCH   1  29
ATOM     29  O   UNL     1       3.262   3.520  20.949  0.00  0.00    +0.000 OA
BRANCH  29  30
ATOM     30  C   UNL     1       2.103   3.472  21.778  0.00  0.00    +0.000 C 
BRANCH  30  31
ATOM     31  C   UNL     1       1.127   2.477  21.151  0.00  0.00    +0.000 C 
BRANCH  31  33
ATOM     32  C   UNL     1       0.823   2.357  18.773  0.00  0.00    +0.000 C 
ATOM     33  N   UNL     1       0.445   3.059  19.991  0.00  0.00    +0.000 NA
ATOM     34  H   UNL     1      -0.565   2.993  20.121  0.00  0.00    +0.000 HD
ENDBRANCH  31  33
ENDBRANCH  30  31
ENDBRANCH  29  30
ENDBRANCH   1  29
TORSDOF 8
ENDMDL
MODEL 6
REMARK VINA RESULT:      -7.7      1.504      2.002
REMARK  Name = 
REMARK  11 active torsions:
REMARK  status: ('A' for Active; 'I' for Inactive)
REMARK    1  A    between atoms: C_1  and  N_2
REMARK    2  A    between atoms: N_2  and  C_3
REMARK    3  A    between atoms: C_3  and  C_4
REMARK    4  A    between atoms: C_4  and  O_5
REMARK    5  A    between atoms: O_5  and  C_6
REMARK    6  A    between atoms: C_14  and  C_15
REMARK    7  A    between atoms: C_19  and  C_20
REMARK    8  A    between atoms: C_23  and  O_24
REMARK    9  A    between atoms: O_24  and  C_25
REMARK   10  A    between atoms: C_26  and  C_27
REMARK   11  A    between atoms: C_27  and  O_28
REMARK                            x       y       z     vdW  Elec       q    Type
REMARK                         _______ _______ _______ _____ _____    ______ ____
ROOT
ATOM      1  C   UNL     1       3.295   4.641  20.114  0.00  0.00    +0.000 A 
ATOM      2  N   UNL     1       3.990   4.555  18.977  0.00  0.00    +0.000 NA
ATOM      3  C   UNL     1       3.909   5.571  18.108  0.00  0.00    +0.000 A 
ATOM      4  N   UNL     1       4.612   5.460  16.903  0.00  0.00    +0.000 N 
ATOM      5  C   UNL     1       5.440   6.624  16.485  0.00  0.00    +0.000 C 
ATOM      6  C   UNL     1       5.535   6.584  14.955  0.00  0.00    +0.000 C 
ATOM      7  O   UNL     1       6.264   5.416  14.551  0.00  0.00    +0.000 OA
ATOM      8  C   UNL     1       5.595   4.227  15.007  0.00  0.00    +0.000 C 
ATOM      9  C   UNL     1       5.354   4.201  16.547  0.00  0.00    +0.000 C 
ATOM     10  C   UNL     1       4.660   2.880  16.866  0.00  0.00    +0.000 C 
ATOM     11  C   UNL     1       3.082   6.672  18.399  0.00  0.00    +0.000 A 
ATOM     12  C   UNL     1       2.775   7.749  17.540  0.00  0.00    +0.000 A 
ATOM     13  C   UNL     1       2.058   8.833  17.991  0.00  0.00    +0.000 A 
ATOM     14  C   UNL     1       1.541   8.775  19.265  0.00  0.00    +0.000 A 
ATOM     15  N   UNL     1       1.745   7.706  20.076  0.00  0.00    +0.000 NA
ATOM     16  C   UNL     1       2.481   6.682  19.660  0.00  0.00    +0.000 A 
ATOM     17  N   UNL     1       2.563   5.672  20.504  0.00  0.00    +0.000 NA
ENDROOT
BRANCH  14  18
ATOM     18  C   UNL     1       0.647   9.810  19.795  0.00  0.00    +0.000 A 
ATOM     19  C   UNL     1       0.133  10.834  18.991  0.00  0.00    +0.000 A 
ATOM     20  C   UNL     1      -0.755  11.768  19.507  0.00  0.00    +0.000 A 
ATOM     21  C   UNL     1      -1.131  11.737  20.855  0.00  0.00    +0.000 A 
ATOM     22  C   UNL     1      -0.646  10.716  21.686  0.00  0.00    +0.000 A 
ATOM     23  C   UNL     1       0.244   9.774  21.142  0.00  0.00    +0.000 A 
BRANCH  21  24
ATOM     24  O   UNL     1      -1.987  12.657  21.403  0.00  0.00    +0.000 OA
ATOM     25  C   UNL     1      -1.511  14.006  21.376  0.00  0.00    +0.000 C 
ENDBRANCH  21  24
BRANCH  22  26
ATOM     26  C   UNL     1      -0.967  10.596  23.150  0.00  0.00    +0.000 C 
BRANCH  26  27
ATOM     27  O   UNL     1       0.036   9.845  23.829  0.00  0.00    +0.000 OA
ATOM     28  H   UNL     1      -0.432   9.206  24.391  0.00  0.00    +0.000 HD
ENDBRANCH  26  27
ENDBRANCH  22  26
ENDBRANCH  14  18
BRANCH   1  29
ATOM     29  O   UNL     1       3.256   3.563  20.969  0.00  0.00    +0.000 OA
BRANCH  29  30
ATOM     30  C   UNL     1       2.087   3.544  21.785  0.00  0.00    +0.000 C 
BRANCH  30  31
ATOM     31  C   UNL     1       1.106   2.548  21.166  0.00  0.00    +0.000 C 
BRANCH  31  33
ATOM     32  C   UNL     1       0.804   2.438  18.787  0.00  0.00    +0.000 C 
ATOM     33  N   UNL     1       0.417   3.128  20.009  0.00  0.00    +0.000 NA
ATOM     34  H   UNL     1      -0.592   3.049  20.139  0.00  0.00    +0.000 HD
ENDBRANCH  31  33
ENDBRANCH  30  31
ENDBRANCH  29  30
ENDBRANCH   1  29
TORSDOF 8
ENDMDL
MODEL 7
REMARK VINA RESULT:      -7.7      1.051      1.120
REMARK  Name = 
REMARK  11 active torsions:
REMARK  status: ('A' for Active; 'I' for Inactive)
REMARK    1  A    between atoms: C_1  and  N_2
REMARK    2  A    between atoms: N_2  and  C_3
REMARK    3  A    between atoms: C_3  and  C_4
REMARK    4  A    between atoms: C_4  and  O_5
REMARK    5  A    between atoms: O_5  and  C_6
REMARK    6  A    between atoms: C_14  and  C_15
REMARK    7  A    between atoms: C_19  and  C_20
REMARK    8  A    between atoms: C_23  and  O_24
REMARK    9  A    between atoms: O_24  and  C_25
REMARK   10  A    between atoms: C_26  and  C_27
REMARK   11  A    between atoms: C_27  and  O_28
REMARK                            x       y       z     vdW  Elec       q    Type
REMARK                         _______ _______ _______ _____ _____    ______ ____
ROOT
ATOM      1  C   UNL     1       2.593   5.097  20.517  0.00  0.00    +0.000 A 
ATOM      2  N   UNL     1       3.366   4.900  19.447  0.00  0.00    +0.000 NA
ATOM      3  C   UNL     1       3.435   5.871  18.528  0.00  0.00    +0.000 A 
ATOM      4  N   UNL     1       4.220   5.645  17.392  0.00  0.00    +0.000 N 
ATOM      5  C   UNL     1       5.168   6.720  16.990  0.00  0.00    +0.000 C 
ATOM      6  C   UNL     1       5.380   6.593  15.476  0.00  0.00    +0.000 C 
ATOM      7  O   UNL     1       6.043   5.353  15.189  0.00  0.00    +0.000 OA
ATOM      8  C   UNL     1       5.248   4.244  15.642  0.00  0.00    +0.000 C 
ATOM      9  C   UNL     1       4.885   4.317  17.157  0.00  0.00    +0.000 C 
ATOM     10  C   UNL     1       4.066   3.071  17.478  0.00  0.00    +0.000 C 
ATOM     11  C   UNL     1       2.678   7.046  18.699  0.00  0.00    +0.000 A 
ATOM     12  C   UNL     1       2.526   8.096  17.768  0.00  0.00    +0.000 A 
ATOM     13  C   UNL     1       1.864   9.253  18.108  0.00  0.00    +0.000 A 
ATOM     14  C   UNL     1       1.245   9.302  19.337  0.00  0.00    +0.000 A 
ATOM     15  N   UNL     1       1.299   8.264  20.210  0.00  0.00    +0.000 NA
ATOM     16  C   UNL     1       1.982   7.167  19.904  0.00  0.00    +0.000 A 
ATOM     17  N   UNL     1       1.917   6.199  20.798  0.00  0.00    +0.000 NA
ENDROOT
BRANCH  14  18
ATOM     18  C   UNL     1       0.398  10.427  19.742  0.00  0.00    +0.000 A 
ATOM     19  C   UNL     1      -0.276  10.450  20.969  0.00  0.00    +0.000 A 
ATOM     20  C   UNL     1      -1.027  11.554  21.350  0.00  0.00    +0.000 A 
ATOM     21  C   UNL     1      -1.164  12.659  20.502  0.00  0.00    +0.000 A 
ATOM     22  C   UNL     1      -0.491  12.677  19.272  0.00  0.00    +0.000 A 
ATOM     23  C   UNL     1       0.272  11.554  18.908  0.00  0.00    +0.000 A 
BRANCH  21  24
ATOM     24  O   UNL     1      -1.916  13.756  20.837  0.00  0.00    +0.000 OA
ATOM     25  C   UNL     1      -3.323  13.510  20.930  0.00  0.00    +0.000 C 
ENDBRANCH  21  24
BRANCH  22  26
ATOM     26  C   UNL     1      -0.581  13.801  18.276  0.00  0.00    +0.000 C 
BRANCH  26  27
ATOM     27  O   UNL     1      -0.523  15.064  18.933  0.00  0.00    +0.000 OA
ATOM     28  H   UNL     1      -0.112  15.681  18.305  0.00  0.00    +0.000 HD
ENDBRANCH  26  27
ENDBRANCH  22  26
ENDBRANCH  14  18
BRANCH   1  29
ATOM     29  O   UNL     1       2.402   4.072  21.415  0.00  0.00    +0.000 OA
BRANCH  29  30
ATOM     30  C   UNL     1       1.347   3.191  21.036  0.00  0.00    +0.000 C 
BRANCH  30  31
ATOM     31  C   UNL     1       1.984   1.917  20.482  0.00  0.00    +0.000 C 
BRANCH  31  33
ATOM     32  C   UNL     1       0.550   2.639  18.697  0.00  0.00    +0.000 C 
ATOM     33  N   UNL     1       1.523   1.641  19.118  0.00  0.00    +0.000 NA
ATOM     34  H   UNL     1       2.319   1.653  18.480  0.00  0.00    +0.000 HD
ENDBRANCH  31  33
ENDBRANCH  30  31
ENDBRANCH  29  30
ENDBRANCH   1  29
TORSDOF 8
ENDMDL
MODEL 8
REMARK VINA RESULT:      -7.6      1.251      1.924
REMARK  Name = 
REMARK  11 active torsions:
REMARK  status: ('A' for Active; 'I' for Inactive)
REMARK    1  A    between atoms: C_1  and  N_2
REMARK    2  A    between atoms: N_2  and  C_3
REMARK    3  A    between atoms: C_3  and  C_4
REMARK    4  A    between atoms: C_4  and  O_5
REMARK    5  A    between atoms: O_5  and  C_6
REMARK    6  A    between atoms: C_14  and  C_15
REMARK    7  A    between atoms: C_19  and  C_20
REMARK    8  A    between atoms: C_23  and  O_24
REMARK    9  A    between atoms: O_24  and  C_25
REMARK   10  A    between atoms: C_26  and  C_27
REMARK   11  A    between atoms: C_27  and  O_28
REMARK                            x       y       z     vdW  Elec       q    Type
REMARK                         _______ _______ _______ _____ _____    ______ ____
ROOT
ATOM      1  C   UNL     1       2.323   5.418  20.543  0.00  0.00    +0.000 A 
ATOM      2  N   UNL     1       3.093   5.175  19.479  0.00  0.00    +0.000 NA
ATOM      3  C   UNL     1       3.207   6.133  18.549  0.00  0.00    +0.000 A 
ATOM      4  N   UNL     1       3.987   5.860  17.420  0.00  0.00    +0.000 N 
ATOM      5  C   UNL     1       4.982   6.888  17.010  0.00  0.00    +0.000 C 
ATOM      6  C   UNL     1       5.195   6.734  15.499  0.00  0.00    +0.000 C 
ATOM      7  O   UNL     1       5.806   5.464  15.230  0.00  0.00    +0.000 OA
ATOM      8  C   UNL     1       4.962   4.395  15.692  0.00  0.00    +0.000 C 
ATOM      9  C   UNL     1       4.596   4.502  17.203  0.00  0.00    +0.000 C 
ATOM     10  C   UNL     1       3.722   3.295  17.535  0.00  0.00    +0.000 C 
ATOM     11  C   UNL     1       2.500   7.340  18.702  0.00  0.00    +0.000 A 
ATOM     12  C   UNL     1       2.397   8.384  17.759  0.00  0.00    +0.000 A 
ATOM     13  C   UNL     1       1.784   9.573  18.082  0.00  0.00    +0.000 A 
ATOM     14  C   UNL     1       1.161   9.662  19.307  0.00  0.00    +0.000 A 
ATOM     15  N   UNL     1       1.167   8.634  20.193  0.00  0.00    +0.000 NA
ATOM     16  C   UNL     1       1.804   7.505  19.903  0.00  0.00    +0.000 A 
ATOM     17  N   UNL     1       1.694   6.552  20.807  0.00  0.00    +0.000 NA
ENDROOT
BRANCH  14  18
ATOM     18  C   UNL     1       0.361  10.828  19.695  0.00  0.00    +0.000 A 
ATOM     19  C   UNL     1      -0.059  11.787  18.766  0.00  0.00    +0.000 A 
ATOM     20  C   UNL     1      -0.863  12.851  19.153  0.00  0.00    +0.000 A 
ATOM     21  C   UNL     1      -1.244  13.017  20.490  0.00  0.00    +0.000 A 
ATOM     22  C   UNL     1      -0.853  12.066  21.445  0.00  0.00    +0.000 A 
ATOM     23  C   UNL     1      -0.048  10.991  21.031  0.00  0.00    +0.000 A 
BRANCH  21  24
ATOM     24  O   UNL     1      -2.018  14.067  20.911  0.00  0.00    +0.000 OA
ATOM     25  C   UNL     1      -3.419  13.916  20.658  0.00  0.00    +0.000 C 
ENDBRANCH  21  24
BRANCH  22  26
ATOM     26  C   UNL     1      -1.188  12.154  22.908  0.00  0.00    +0.000 C 
BRANCH  26  27
ATOM     27  O   UNL     1      -0.737  13.389  23.457  0.00  0.00    +0.000 OA
ATOM     28  H   UNL     1      -0.916  13.347  24.411  0.00  0.00    +0.000 HD
ENDBRANCH  26  27
ENDBRANCH  22  26
ENDBRANCH  14  18
BRANCH   1  29
ATOM     29  O   UNL     1       2.084   4.413  21.452  0.00  0.00    +0.000 OA
BRANCH  29  30
ATOM     30  C   UNL     1       1.289   3.358  20.916  0.00  0.00    +0.000 C 
BRANCH  30  31
ATOM     31  C   UNL     1       2.211   2.166  20.661  0.00  0.00    +0.000 C 
BRANCH  31  33
ATOM     32  C   UNL     1       4.584   1.813  20.581  0.00  0.00    +0.000 C 
ATOM     33  N   UNL     1       3.477   2.307  21.387  0.00  0.00    +0.000 NA
ATOM     34  H   UNL     1       3.634   3.290  21.612  0.00  0.00    +0.000 HD
ENDBRANCH  31  33
ENDBRANCH  30  31
ENDBRANCH  29  30
ENDBRANCH   1  29
TORSDOF 8
ENDMDL
MODEL 9
REMARK VINA RESULT:      -7.6      1.803      4.464
REMARK  Name = 
REMARK  11 active torsions:
REMARK  status: ('A' for Active; 'I' for Inactive)
REMARK    1  A    between atoms: C_1  and  N_2
REMARK    2  A    between atoms: N_2  and  C_3
REMARK    3  A    between atoms: C_3  and  C_4
REMARK    4  A    between atoms: C_4  and  O_5
REMARK    5  A    between atoms: O_5  and  C_6
REMARK    6  A    between atoms: C_14  and  C_15
REMARK    7  A    between atoms: C_19  and  C_20
REMARK    8  A    between atoms: C_23  and  O_24
REMARK    9  A    between atoms: O_24  and  C_25
REMARK   10  A    between atoms: C_26  and  C_27
REMARK   11  A    between atoms: C_27  and  O_28
REMARK                            x       y       z     vdW  Elec       q    Type
REMARK                         _______ _______ _______ _____ _____    ______ ____
ROOT
ATOM      1  C   UNL     1       3.721   6.966  17.436  0.00  0.00    +0.000 A 
ATOM      2  N   UNL     1       3.615   5.834  18.136  0.00  0.00    +0.000 NA
ATOM      3  C   UNL     1       2.832   5.833  19.223  0.00  0.00    +0.000 A 
ATOM      4  N   UNL     1       2.751   4.654  19.972  0.00  0.00    +0.000 N 
ATOM      5  C   UNL     1       1.394   4.178  20.355  0.00  0.00    +0.000 C 
ATOM      6  C   UNL     1       1.547   3.364  21.645  0.00  0.00    +0.000 C 
ATOM      7  O   UNL     1       2.318   2.184  21.376  0.00  0.00    +0.000 OA
ATOM      8  C   UNL     1       3.625   2.540  20.892  0.00  0.00    +0.000 C 
ATOM      9  C   UNL     1       3.592   3.455  19.630  0.00  0.00    +0.000 C 
ATOM     10  C   UNL     1       5.042   3.722  19.237  0.00  0.00    +0.000 C 
ATOM     11  C   UNL     1       2.175   7.017  19.609  0.00  0.00    +0.000 A 
ATOM     12  C   UNL     1       1.435   7.226  20.791  0.00  0.00    +0.000 A 
ATOM     13  C   UNL     1       0.729   8.390  20.989  0.00  0.00    +0.000 A 
ATOM     14  C   UNL     1       0.873   9.395  20.059  0.00  0.00    +0.000 A 
ATOM     15  N   UNL     1       1.656   9.249  18.960  0.00  0.00    +0.000 NA
ATOM     16  C   UNL     1       2.296   8.106  18.741  0.00  0.00    +0.000 A 
ATOM     17  N   UNL     1       3.076   8.095  17.677  0.00  0.00    +0.000 NA
ENDROOT
BRANCH  14  18
ATOM     18  C   UNL     1       0.280  10.723  20.243  0.00  0.00    +0.000 A 
ATOM     19  C   UNL     1       0.210  11.659  19.205  0.00  0.00    +0.000 A 
ATOM     20  C   UNL     1      -0.407  12.888  19.392  0.00  0.00    +0.000 A 
ATOM     21  C   UNL     1      -0.943  13.242  20.636  0.00  0.00    +0.000 A 
ATOM     22  C   UNL     1      -0.904  12.322  21.695  0.00  0.00    +0.000 A 
ATOM     23  C   UNL     1      -0.283  11.080  21.482  0.00  0.00    +0.000 A 
BRANCH  21  24
ATOM     24  O   UNL     1      -1.539  14.456  20.863  0.00  0.00    +0.000 OA
ATOM     25  C   UNL     1      -0.669  15.584  20.723  0.00  0.00    +0.000 C 
ENDBRANCH  21  24
BRANCH  22  26
ATOM     26  C   UNL     1      -1.431  12.603  23.075  0.00  0.00    +0.000 C 
BRANCH  26  27
ATOM     27  O   UNL     1      -0.745  13.704  23.665  0.00  0.00    +0.000 OA
ATOM     28  H   UNL     1      -0.222  13.341  24.398  0.00  0.00    +0.000 HD
ENDBRANCH  26  27
ENDBRANCH  22  26
ENDBRANCH  14  18
BRANCH   1  29
ATOM     29  O   UNL     1       4.613   7.036  16.390  0.00  0.00    +0.000 OA
BRANCH  29  30
ATOM     30  C   UNL     1       5.199   5.775  16.075  0.00  0.00    +0.000 C 
BRANCH  30  31
ATOM     31  C   UNL     1       6.688   5.860  16.411  0.00  0.00    +0.000 C 
BRANCH  31  33
ATOM     32  C   UNL     1       6.964   4.766  14.292  0.00  0.00    +0.000 C 
ATOM     33  N   UNL     1       7.462   4.869  15.657  0.00  0.00    +0.000 NA
ATOM     34  H   UNL     1       8.444   5.144  15.640  0.00  0.00    +0.000 HD
ENDBRANCH  31  33
ENDBRANCH  30  31
ENDBRANCH  29  30
ENDBRANCH   1  29
TORSDOF 8
ENDMDL
