MODEL 1
REMARK VINA RESULT:      -8.0      0.000      0.000
REMARK  Name = 
REMARK  4 active torsions:
REMARK  status: ('A' for Active; 'I' for Inactive)
REMARK    1  A    between atoms: C_1  and  O_2
REMARK    2  A    between atoms: O_2  and  C_3
REMARK    3  A    between atoms: C_6  and  C_7
REMARK    4  A    between atoms: C_9  and  C_10
REMARK                            x       y       z     vdW  Elec       q    Type
REMARK                         _______ _______ _______ _____ _____    ______ ____
ROOT
ATOM      1  C   UNL     1       0.567  10.503  18.834  0.00  0.00    +0.000 A 
ATOM      2  C   UNL     1      -0.838  10.432  18.854  0.00  0.00    +0.000 A 
ATOM      3  C   UNL     1      -1.610  11.593  18.852  0.00  0.00    +0.000 A 
ATOM      4  N   UNL     1      -1.044  12.797  19.085  0.00  0.00    +0.000 NA
ATOM      5  C   UNL     1       0.306  12.870  19.054  0.00  0.00    +0.000 A 
ATOM      6  C   UNL     1       1.114  11.788  18.743  0.00  0.00    +0.000 A 
ATOM      7  C   UNL     1       2.444  12.101  18.108  0.00  0.00    +0.000 C 
ATOM      8  O   UNL     1       2.950  13.449  18.171  0.00  0.00    +0.000 OA
ATOM      9  C   UNL     1       2.242  14.369  18.893  0.00  0.00    +0.000 A 
ATOM     10  C   UNL     1       2.892  15.576  19.154  0.00  0.00    +0.000 A 
ATOM     11  C   UNL     1       2.301  16.522  19.990  0.00  0.00    +0.000 A 
ATOM     12  C   UNL     1       1.055  16.263  20.556  0.00  0.00    +0.000 A 
ATOM     13  C   UNL     1       0.375  15.085  20.234  0.00  0.00    +0.000 A 
ATOM     14  C   UNL     1       0.950  14.135  19.373  0.00  0.00    +0.000 A 
ENDROOT
BRANCH   3  15
ATOM     15  C   UNL     1      -3.019  11.589  18.405  0.00  0.00    +0.000 A 
ATOM     16  C   UNL     1      -3.398  11.259  17.088  0.00  0.00    +0.000 A 
ATOM     17  C   UNL     1      -4.704  11.458  16.633  0.00  0.00    +0.000 A 
ATOM     18  C   UNL     1      -5.659  11.983  17.493  0.00  0.00    +0.000 A 
ATOM     19  F   UNL     1      -6.900  12.210  17.047  0.00  0.00    +0.000 F 
ATOM     20  C   UNL     1      -5.338  12.279  18.808  0.00  0.00    +0.000 A 
ATOM     21  C   UNL     1      -4.028  12.081  19.260  0.00  0.00    +0.000 A 
ENDBRANCH   3  15
BRANCH   1  25
ATOM     22  C   UNL     1       2.551   6.694  19.292  0.00  0.00    +0.000 A 
ATOM     23  C   UNL     1       2.572   7.359  18.069  0.00  0.00    +0.000 A 
ATOM     24  C   UNL     1       2.011   8.634  17.940  0.00  0.00    +0.000 A 
ATOM     25  C   UNL     1       1.362   9.262  19.015  0.00  0.00    +0.000 A 
ATOM     26  C   UNL     1       1.348   8.566  20.240  0.00  0.00    +0.000 A 
ATOM     27  C   UNL     1       1.944   7.305  20.384  0.00  0.00    +0.000 A 
BRANCH  22  29
ATOM     28  C   UNL     1       4.515   5.382  19.198  0.00  0.00    +0.000 C 
ATOM     29  O   UNL     1       3.096   5.441  19.280  0.00  0.00    +0.000 OA
ENDBRANCH  22  29
ENDBRANCH   1  25
TORSDOF 3
ENDMDL
MODEL 2
REMARK VINA RESULT:      -8.0      3.203      6.669
REMARK  Name = 
REMARK  4 active torsions:
REMARK  status: ('A' for Active; 'I' for Inactive)
REMARK    1  A    between atoms: C_1  and  O_2
REMARK    2  A    between atoms: O_2  and  C_3
REMARK    3  A    between atoms: C_6  and  C_7
REMARK    4  A    between atoms: C_9  and  C_10
REMARK                            x       y       z     vdW  Elec       q    Type
REMARK                         _______ _______ _______ _____ _____    ______ ____
ROOT
ATOM      1  C   UNL     1      -1.180  11.706  18.642  0.00  0.00    +0.000 A 
ATOM      2  C   UNL     1      -0.522  10.471  18.500  0.00  0.00    +0.000 A 
ATOM      3  C   UNL     1       0.866  10.388  18.598  0.00  0.00    +0.000 A 
ATOM      4  N   UNL     1       1.626  11.505  18.577  0.00  0.00    +0.000 NA
ATOM      5  C   UNL     1       0.996  12.693  18.726  0.00  0.00    +0.000 A 
ATOM      6  C   UNL     1      -0.366  12.802  18.950  0.00  0.00    +0.000 A 
ATOM      7  C   UNL     1      -0.826  14.010  19.727  0.00  0.00    +0.000 C 
ATOM      8  O   UNL     1       0.076  15.122  19.888  0.00  0.00    +0.000 OA
ATOM      9  C   UNL     1       1.280  15.074  19.244  0.00  0.00    +0.000 A 
ATOM     10  C   UNL     1       2.001  16.268  19.202  0.00  0.00    +0.000 A 
ATOM     11  C   UNL     1       3.178  16.349  18.458  0.00  0.00    +0.000 A 
ATOM     12  C   UNL     1       3.635  15.231  17.764  0.00  0.00    +0.000 A 
ATOM     13  C   UNL     1       2.949  14.018  17.868  0.00  0.00    +0.000 A 
ATOM     14  C   UNL     1       1.776  13.918  18.635  0.00  0.00    +0.000 A 
ENDROOT
BRANCH   3  15
ATOM     15  C   UNL     1       1.548   9.118  18.926  0.00  0.00    +0.000 A 
ATOM     16  C   UNL     1       2.240   8.357  17.962  0.00  0.00    +0.000 A 
ATOM     17  C   UNL     1       2.701   7.068  18.245  0.00  0.00    +0.000 A 
ATOM     18  C   UNL     1       2.483   6.520  19.501  0.00  0.00    +0.000 A 
ATOM     19  F   UNL     1       2.889   5.272  19.759  0.00  0.00    +0.000 F 
ATOM     20  C   UNL     1       1.845   7.252  20.489  0.00  0.00    +0.000 A 
ATOM     21  C   UNL     1       1.384   8.542  20.203  0.00  0.00    +0.000 A 
ENDBRANCH   3  15
BRANCH   1  25
ATOM     22  C   UNL     1      -5.436  11.585  17.916  0.00  0.00    +0.000 A 
ATOM     23  C   UNL     1      -4.941  12.028  19.140  0.00  0.00    +0.000 A 
ATOM     24  C   UNL     1      -3.563  12.157  19.347  0.00  0.00    +0.000 A 
ATOM     25  C   UNL     1      -2.636  11.794  18.357  0.00  0.00    +0.000 A 
ATOM     26  C   UNL     1      -3.161  11.341  17.131  0.00  0.00    +0.000 A 
ATOM     27  C   UNL     1      -4.543  11.249  16.906  0.00  0.00    +0.000 A 
BRANCH  22  29
ATOM     28  C   UNL     1      -7.540  12.575  18.337  0.00  0.00    +0.000 C 
ATOM     29  O   UNL     1      -6.796  11.465  17.851  0.00  0.00    +0.000 OA
ENDBRANCH  22  29
ENDBRANCH   1  25
TORSDOF 3
ENDMDL
MODEL 3
REMARK VINA RESULT:      -7.7      4.416      8.527
REMARK  Name = 
REMARK  4 active torsions:
REMARK  status: ('A' for Active; 'I' for Inactive)
REMARK    1  A    between atoms: C_1  and  O_2
REMARK    2  A    between atoms: O_2  and  C_3
REMARK    3  A    between atoms: C_6  and  C_7
REMARK    4  A    between atoms: C_9  and  C_10
REMARK                            x       y       z     vdW  Elec       q    Type
REMARK                         _______ _______ _______ _____ _____    ______ ____
ROOT
ATOM      1  C   UNL     1       4.260   5.883  17.397  0.00  0.00    +0.000 A 
ATOM      2  C   UNL     1       3.488   7.059  17.422  0.00  0.00    +0.000 A 
ATOM      3  C   UNL     1       2.596   7.303  18.465  0.00  0.00    +0.000 A 
ATOM      4  N   UNL     1       2.264   6.321  19.332  0.00  0.00    +0.000 NA
ATOM      5  C   UNL     1       3.013   5.195  19.317  0.00  0.00    +0.000 A 
ATOM      6  C   UNL     1       4.120   5.035  18.501  0.00  0.00    +0.000 A 
ATOM      7  C   UNL     1       5.202   4.114  19.006  0.00  0.00    +0.000 C 
ATOM      8  O   UNL     1       4.901   3.209  20.087  0.00  0.00    +0.000 OA
ATOM      9  C   UNL     1       3.615   3.158  20.545  0.00  0.00    +0.000 A 
ATOM     10  C   UNL     1       3.308   2.093  21.394  0.00  0.00    +0.000 A 
ATOM     11  C   UNL     1       1.993   1.884  21.807  0.00  0.00    +0.000 A 
ATOM     12  C   UNL     1       0.988   2.748  21.378  0.00  0.00    +0.000 A 
ATOM     13  C   UNL     1       1.311   3.855  20.588  0.00  0.00    +0.000 A 
ATOM     14  C   UNL     1       2.637   4.089  20.186  0.00  0.00    +0.000 A 
ENDROOT
BRANCH   3  15
ATOM     15  C   UNL     1       2.135   8.670  18.791  0.00  0.00    +0.000 A 
ATOM     16  C   UNL     1       1.351   8.956  19.927  0.00  0.00    +0.000 A 
ATOM     17  C   UNL     1       0.759  10.209  20.106  0.00  0.00    +0.000 A 
ATOM     18  C   UNL     1       0.946  11.201  19.154  0.00  0.00    +0.000 A 
ATOM     19  F   UNL     1       0.347  12.388  19.306  0.00  0.00    +0.000 F 
ATOM     20  C   UNL     1       1.745  10.973  18.045  0.00  0.00    +0.000 A 
ATOM     21  C   UNL     1       2.336   9.717  17.867  0.00  0.00    +0.000 A 
ENDBRANCH   3  15
BRANCH   1  25
ATOM     22  C   UNL     1       6.749   4.657  14.087  0.00  0.00    +0.000 A 
ATOM     23  C   UNL     1       5.419   4.251  14.158  0.00  0.00    +0.000 A 
ATOM     24  C   UNL     1       4.583   4.720  15.178  0.00  0.00    +0.000 A 
ATOM     25  C   UNL     1       5.066   5.566  16.190  0.00  0.00    +0.000 A 
ATOM     26  C   UNL     1       6.417   5.956  16.099  0.00  0.00    +0.000 A 
ATOM     27  C   UNL     1       7.246   5.520  15.056  0.00  0.00    +0.000 A 
BRANCH  22  29
ATOM     28  C   UNL     1       6.712   3.462  12.048  0.00  0.00    +0.000 C 
ATOM     29  O   UNL     1       7.471   4.099  13.069  0.00  0.00    +0.000 OA
ENDBRANCH  22  29
ENDBRANCH   1  25
TORSDOF 3
ENDMDL
MODEL 4
REMARK VINA RESULT:      -7.6      0.503      1.358
REMARK  Name = 
REMARK  4 active torsions:
REMARK  status: ('A' for Active; 'I' for Inactive)
REMARK    1  A    between atoms: C_1  and  O_2
REMARK    2  A    between atoms: O_2  and  C_3
REMARK    3  A    between atoms: C_6  and  C_7
REMARK    4  A    between atoms: C_9  and  C_10
REMARK                            x       y       z     vdW  Elec       q    Type
REMARK                         _______ _______ _______ _____ _____    ______ ____
ROOT
ATOM      1  C   UNL     1       0.369  10.528  18.876  0.00  0.00    +0.000 A 
ATOM      2  C   UNL     1      -1.035  10.564  18.950  0.00  0.00    +0.000 A 
ATOM      3  C   UNL     1      -1.715  11.779  19.016  0.00  0.00    +0.000 A 
ATOM      4  N   UNL     1      -1.049  12.928  19.267  0.00  0.00    +0.000 NA
ATOM      5  C   UNL     1       0.301  12.899  19.184  0.00  0.00    +0.000 A 
ATOM      6  C   UNL     1       1.010  11.770  18.807  0.00  0.00    +0.000 A 
ATOM      7  C   UNL     1       2.337  12.004  18.130  0.00  0.00    +0.000 C 
ATOM      8  O   UNL     1       2.947  13.307  18.218  0.00  0.00    +0.000 OA
ATOM      9  C   UNL     1       2.339  14.251  18.997  0.00  0.00    +0.000 A 
ATOM     10  C   UNL     1       3.090  15.395  19.272  0.00  0.00    +0.000 A 
ATOM     11  C   UNL     1       2.605  16.353  20.162  0.00  0.00    +0.000 A 
ATOM     12  C   UNL     1       1.365  16.169  20.767  0.00  0.00    +0.000 A 
ATOM     13  C   UNL     1       0.584  15.058  20.434  0.00  0.00    +0.000 A 
ATOM     14  C   UNL     1       1.052  14.099  19.519  0.00  0.00    +0.000 A 
ENDROOT
BRANCH   3  15
ATOM     15  C   UNL     1      -3.136  11.898  18.626  0.00  0.00    +0.000 A 
ATOM     16  C   UNL     1      -4.137  12.324  19.523  0.00  0.00    +0.000 A 
ATOM     17  C   UNL     1      -5.493  12.236  19.196  0.00  0.00    +0.000 A 
ATOM     18  C   UNL     1      -5.871  11.727  17.962  0.00  0.00    +0.000 A 
ATOM     19  F   UNL     1      -7.170  11.605  17.665  0.00  0.00    +0.000 F 
ATOM     20  C   UNL     1      -4.917  11.338  17.036  0.00  0.00    +0.000 A 
ATOM     21  C   UNL     1      -3.560  11.426  17.366  0.00  0.00    +0.000 A 
ENDBRANCH   3  15
BRANCH   1  25
ATOM     22  C   UNL     1       2.742   6.940  19.259  0.00  0.00    +0.000 A 
ATOM     23  C   UNL     1       2.046   7.446  20.353  0.00  0.00    +0.000 A 
ATOM     24  C   UNL     1       1.203   8.554  20.213  0.00  0.00    +0.000 A 
ATOM     25  C   UNL     1       1.072   9.224  18.985  0.00  0.00    +0.000 A 
ATOM     26  C   UNL     1       1.792   8.697  17.895  0.00  0.00    +0.000 A 
ATOM     27  C   UNL     1       2.606   7.562  18.023  0.00  0.00    +0.000 A 
BRANCH  22  29
ATOM     28  C   UNL     1       2.921   4.719  20.047  0.00  0.00    +0.000 C 
ATOM     29  O   UNL     1       3.561   5.881  19.532  0.00  0.00    +0.000 OA
ENDBRANCH  22  29
ENDBRANCH   1  25
TORSDOF 3
ENDMDL
MODEL 5
REMARK VINA RESULT:      -7.6      3.241      6.856
REMARK  Name = 
REMARK  4 active torsions:
REMARK  status: ('A' for Active; 'I' for Inactive)
REMARK    1  A    between atoms: C_1  and  O_2
REMARK    2  A    between atoms: O_2  and  C_3
REMARK    3  A    between atoms: C_6  and  C_7
REMARK    4  A    between atoms: C_9  and  C_10
REMARK                            x       y       z     vdW  Elec       q    Type
REMARK                         _______ _______ _______ _____ _____    ______ ____
ROOT
ATOM      1  C   UNL     1      -1.334  11.462  18.578  0.00  0.00    +0.000 A 
ATOM      2  C   UNL     1      -0.663  10.244  18.369  0.00  0.00    +0.000 A 
ATOM      3  C   UNL     1       0.725  10.169  18.467  0.00  0.00    +0.000 A 
ATOM      4  N   UNL     1       1.474  11.293  18.511  0.00  0.00    +0.000 NA
ATOM      5  C   UNL     1       0.832  12.464  18.724  0.00  0.00    +0.000 A 
ATOM      6  C   UNL     1      -0.533  12.547  18.950  0.00  0.00    +0.000 A 
ATOM      7  C   UNL     1      -1.007  13.704  19.792  0.00  0.00    +0.000 C 
ATOM      8  O   UNL     1      -0.117  14.815  20.018  0.00  0.00    +0.000 OA
ATOM      9  C   UNL     1       1.089  14.815  19.376  0.00  0.00    +0.000 A 
ATOM     10  C   UNL     1       1.798  16.017  19.404  0.00  0.00    +0.000 A 
ATOM     11  C   UNL     1       2.976  16.152  18.669  0.00  0.00    +0.000 A 
ATOM     12  C   UNL     1       3.446  15.080  17.915  0.00  0.00    +0.000 A 
ATOM     13  C   UNL     1       2.773  13.855  17.948  0.00  0.00    +0.000 A 
ATOM     14  C   UNL     1       1.599  13.701  18.704  0.00  0.00    +0.000 A 
ENDROOT
BRANCH   3  15
ATOM     15  C   UNL     1       1.420   8.890  18.725  0.00  0.00    +0.000 A 
ATOM     16  C   UNL     1       1.390   8.249  19.981  0.00  0.00    +0.000 A 
ATOM     17  C   UNL     1       2.214   7.156  20.261  0.00  0.00    +0.000 A 
ATOM     18  C   UNL     1       3.077   6.677  19.285  0.00  0.00    +0.000 A 
ATOM     19  F   UNL     1       3.893   5.655  19.565  0.00  0.00    +0.000 F 
ATOM     20  C   UNL     1       3.105   7.252  18.024  0.00  0.00    +0.000 A 
ATOM     21  C   UNL     1       2.280   8.348  17.747  0.00  0.00    +0.000 A 
ENDBRANCH   3  15
BRANCH   1  25
ATOM     22  C   UNL     1      -5.510  12.100  17.677  0.00  0.00    +0.000 A 
ATOM     23  C   UNL     1      -4.639  11.631  16.696  0.00  0.00    +0.000 A 
ATOM     24  C   UNL     1      -3.307  11.335  17.007  0.00  0.00    +0.000 A 
ATOM     25  C   UNL     1      -2.790  11.551  18.294  0.00  0.00    +0.000 A 
ATOM     26  C   UNL     1      -3.688  12.032  19.266  0.00  0.00    +0.000 A 
ATOM     27  C   UNL     1      -5.034  12.292  18.969  0.00  0.00    +0.000 A 
BRANCH  22  29
ATOM     28  C   UNL     1      -7.611  13.061  18.173  0.00  0.00    +0.000 C 
ATOM     29  O   UNL     1      -6.772  12.389  17.240  0.00  0.00    +0.000 OA
ENDBRANCH  22  29
ENDBRANCH   1  25
TORSDOF 3
ENDMDL
MODEL 6
REMARK VINA RESULT:      -7.6      3.663      6.784
REMARK  Name = 
REMARK  4 active torsions:
REMARK  status: ('A' for Active; 'I' for Inactive)
REMARK    1  A    between atoms: C_1  and  O_2
REMARK    2  A    between atoms: O_2  and  C_3
REMARK    3  A    between atoms: C_6  and  C_7
REMARK    4  A    between atoms: C_9  and  C_10
REMARK                            x       y       z     vdW  Elec       q    Type
REMARK                         _______ _______ _______ _____ _____    ______ ____
ROOT
ATOM      1  C   UNL     1      -0.522  12.240  20.979  0.00  0.00    +0.000 A 
ATOM      2  C   UNL     1      -0.320  10.993  20.361  0.00  0.00    +0.000 A 
ATOM      3  C   UNL     1       0.811  10.759  19.580  0.00  0.00    +0.000 A 
ATOM      4  N   UNL     1       1.603  11.783  19.192  0.00  0.00    +0.000 NA
ATOM      5  C   UNL     1       1.419  12.979  19.794  0.00  0.00    +0.000 A 
ATOM      6  C   UNL     1       0.503  13.178  20.814  0.00  0.00    +0.000 A 
ATOM      7  C   UNL     1       0.828  14.265  21.808  0.00  0.00    +0.000 C 
ATOM      8  O   UNL     1       1.838  15.238  21.475  0.00  0.00    +0.000 OA
ATOM      9  C   UNL     1       2.392  15.190  20.227  0.00  0.00    +0.000 A 
ATOM     10  C   UNL     1       3.156  16.296  19.852  0.00  0.00    +0.000 A 
ATOM     11  C   UNL     1       3.653  16.395  18.553  0.00  0.00    +0.000 A 
ATOM     12  C   UNL     1       3.393  15.382  17.634  0.00  0.00    +0.000 A 
ATOM     13  C   UNL     1       2.689  14.242  18.034  0.00  0.00    +0.000 A 
ATOM     14  C   UNL     1       2.205  14.120  19.347  0.00  0.00    +0.000 A 
ENDROOT
BRANCH   3  15
ATOM     15  C   UNL     1       1.303   9.391  19.313  0.00  0.00    +0.000 A 
ATOM     16  C   UNL     1       1.408   8.411  20.322  0.00  0.00    +0.000 A 
ATOM     17  C   UNL     1       2.062   7.198  20.093  0.00  0.00    +0.000 A 
ATOM     18  C   UNL     1       2.616   6.939  18.847  0.00  0.00    +0.000 A 
ATOM     19  F   UNL     1       3.276   5.794  18.640  0.00  0.00    +0.000 F 
ATOM     20  C   UNL     1       2.496   7.857  17.817  0.00  0.00    +0.000 A 
ATOM     21  C   UNL     1       1.842   9.073  18.049  0.00  0.00    +0.000 A 
ENDBRANCH   3  15
BRANCH   1  25
ATOM     22  C   UNL     1      -4.397  12.693  22.832  0.00  0.00    +0.000 A 
ATOM     23  C   UNL     1      -3.304  12.260  23.578  0.00  0.00    +0.000 A 
ATOM     24  C   UNL     1      -2.028  12.200  23.006  0.00  0.00    +0.000 A 
ATOM     25  C   UNL     1      -1.815  12.519  21.655  0.00  0.00    +0.000 A 
ATOM     26  C   UNL     1      -2.938  12.946  20.920  0.00  0.00    +0.000 A 
ATOM     27  C   UNL     1      -4.211  13.046  21.500  0.00  0.00    +0.000 A 
BRANCH  22  29
ATOM     28  C   UNL     1      -6.754  12.733  22.670  0.00  0.00    +0.000 C 
ATOM     29  O   UNL     1      -5.594  12.670  23.491  0.00  0.00    +0.000 OA
ENDBRANCH  22  29
ENDBRANCH   1  25
TORSDOF 3
ENDMDL
MODEL 7
REMARK VINA RESULT:      -7.5      1.230      1.451
REMARK  Name = 
REMARK  4 active torsions:
REMARK  status: ('A' for Active; 'I' for Inactive)
REMARK    1  A    between atoms: C_1  and  O_2
REMARK    2  A    between atoms: O_2  and  C_3
REMARK    3  A    between atoms: C_6  and  C_7
REMARK    4  A    between atoms: C_9  and  C_10
REMARK                            x       y       z     vdW  Elec       q    Type
REMARK                         _______ _______ _______ _____ _____    ______ ____
ROOT
ATOM      1  C   UNL     1       0.175  10.868  19.341  0.00  0.00    +0.000 A 
ATOM      2  C   UNL     1      -1.203  10.692  19.117  0.00  0.00    +0.000 A 
ATOM      3  C   UNL     1      -2.107  11.715  19.402  0.00  0.00    +0.000 A 
ATOM      4  N   UNL     1      -1.726  12.788  20.128  0.00  0.00    +0.000 NA
ATOM      5  C   UNL     1      -0.401  12.965  20.335  0.00  0.00    +0.000 A 
ATOM      6  C   UNL     1       0.565  12.133  19.794  0.00  0.00    +0.000 A 
ATOM      7  C   UNL     1       1.913  12.752  19.524  0.00  0.00    +0.000 C 
ATOM      8  O   UNL     1       2.236  14.017  20.135  0.00  0.00    +0.000 OA
ATOM      9  C   UNL     1       1.339  14.556  21.014  0.00  0.00    +0.000 A 
ATOM     10  C   UNL     1       1.799  15.628  21.780  0.00  0.00    +0.000 A 
ATOM     11  C   UNL     1       1.000  16.158  22.792  0.00  0.00    +0.000 A 
ATOM     12  C   UNL     1      -0.262  15.621  23.029  0.00  0.00    +0.000 A 
ATOM     13  C   UNL     1      -0.748  14.595  22.213  0.00  0.00    +0.000 A 
ATOM     14  C   UNL     1       0.038  14.070  21.174  0.00  0.00    +0.000 A 
ENDROOT
BRANCH   3  15
ATOM     15  C   UNL     1      -3.442  11.772  18.769  0.00  0.00    +0.000 A 
ATOM     16  C   UNL     1      -3.662  11.403  17.426  0.00  0.00    +0.000 A 
ATOM     17  C   UNL     1      -4.881  11.655  16.791  0.00  0.00    +0.000 A 
ATOM     18  C   UNL     1      -5.906  12.275  17.492  0.00  0.00    +0.000 A 
ATOM     19  F   UNL     1      -7.059  12.553  16.873  0.00  0.00    +0.000 F 
ATOM     20  C   UNL     1      -5.744  12.614  18.826  0.00  0.00    +0.000 A 
ATOM     21  C   UNL     1      -4.522  12.362  19.458  0.00  0.00    +0.000 A 
ENDBRANCH   3  15
BRANCH   1  25
ATOM     22  C   UNL     1       2.523   7.278  18.835  0.00  0.00    +0.000 A 
ATOM     23  C   UNL     1       2.373   8.178  17.784  0.00  0.00    +0.000 A 
ATOM     24  C   UNL     1       1.692   9.386  17.970  0.00  0.00    +0.000 A 
ATOM     25  C   UNL     1       1.090   9.707  19.197  0.00  0.00    +0.000 A 
ATOM     26  C   UNL     1       1.249   8.777  20.243  0.00  0.00    +0.000 A 
ATOM     27  C   UNL     1       1.966   7.583  20.072  0.00  0.00    +0.000 A 
BRANCH  22  29
ATOM     28  C   UNL     1       3.601   5.326  19.619  0.00  0.00    +0.000 C 
ATOM     29  O   UNL     1       3.173   6.119  18.518  0.00  0.00    +0.000 OA
ENDBRANCH  22  29
ENDBRANCH   1  25
TORSDOF 3
ENDMDL
MODEL 8
REMARK VINA RESULT:      -7.5      3.247      6.758
REMARK  Name = 
REMARK  4 active torsions:
REMARK  status: ('A' for Active; 'I' for Inactive)
REMARK    1  A    between atoms: C_1  and  O_2
REMARK    2  A    between atoms: O_2  and  C_3
REMARK    3  A    between atoms: C_6  and  C_7
REMARK    4  A    between atoms: C_9  and  C_10
REMARK                            x       y       z     vdW  Elec       q    Type
REMARK                         _______ _______ _______ _____ _____    ______ ____
ROOT
ATOM      1  C   UNL     1      -1.289  11.821  18.997  0.00  0.00    +0.000 A 
ATOM      2  C   UNL     1      -0.710  10.569  18.719  0.00  0.00    +0.000 A 
ATOM      3  C   UNL     1       0.675  10.420  18.665  0.00  0.00    +0.000 A 
ATOM      4  N   UNL     1       1.483  11.502  18.625  0.00  0.00    +0.000 NA
ATOM      5  C   UNL     1       0.931  12.705  18.904  0.00  0.00    +0.000 A 
ATOM      6  C   UNL     1      -0.394  12.860  19.277  0.00  0.00    +0.000 A 
ATOM      7  C   UNL     1      -0.711  14.038  20.163  0.00  0.00    +0.000 C 
ATOM      8  O   UNL     1       0.256  15.099  20.288  0.00  0.00    +0.000 OA
ATOM      9  C   UNL     1       1.383  15.037  19.518  0.00  0.00    +0.000 A 
ATOM     10  C   UNL     1       2.155  16.199  19.466  0.00  0.00    +0.000 A 
ATOM     11  C   UNL     1       3.251  16.273  18.607  0.00  0.00    +0.000 A 
ATOM     12  C   UNL     1       3.578  15.180  17.809  0.00  0.00    +0.000 A 
ATOM     13  C   UNL     1       2.847  13.993  17.918  0.00  0.00    +0.000 A 
ATOM     14  C   UNL     1       1.756  13.899  18.798  0.00  0.00    +0.000 A 
ENDROOT
BRANCH   3  15
ATOM     15  C   UNL     1       1.323   9.104  18.849  0.00  0.00    +0.000 A 
ATOM     16  C   UNL     1       1.308   8.415  20.079  0.00  0.00    +0.000 A 
ATOM     17  C   UNL     1       2.094   7.279  20.288  0.00  0.00    +0.000 A 
ATOM     18  C   UNL     1       2.905   6.806  19.265  0.00  0.00    +0.000 A 
ATOM     19  F   UNL     1       3.687   5.742  19.477  0.00  0.00    +0.000 F 
ATOM     20  C   UNL     1       2.916   7.430  18.028  0.00  0.00    +0.000 A 
ATOM     21  C   UNL     1       2.129   8.569  17.822  0.00  0.00    +0.000 A 
ENDBRANCH   3  15
BRANCH   1  25
ATOM     22  C   UNL     1      -5.600  11.945  18.777  0.00  0.00    +0.000 A 
ATOM     23  C   UNL     1      -4.935  12.458  19.888  0.00  0.00    +0.000 A 
ATOM     24  C   UNL     1      -3.537  12.504  19.923  0.00  0.00    +0.000 A 
ATOM     25  C   UNL     1      -2.759  11.988  18.874  0.00  0.00    +0.000 A 
ATOM     26  C   UNL     1      -3.456  11.467  17.765  0.00  0.00    +0.000 A 
ATOM     27  C   UNL     1      -4.857  11.456  17.709  0.00  0.00    +0.000 A 
BRANCH  22  29
ATOM     28  C   UNL     1      -7.486  11.230  20.010  0.00  0.00    +0.000 C 
ATOM     29  O   UNL     1      -6.963  11.918  18.880  0.00  0.00    +0.000 OA
ENDBRANCH  22  29
ENDBRANCH   1  25
TORSDOF 3
ENDMDL
MODEL 9
REMARK VINA RESULT:      -7.4      3.358      5.474
REMARK  Name = 
REMARK  4 active torsions:
REMARK  status: ('A' for Active; 'I' for Inactive)
REMARK    1  A    between atoms: C_1  and  O_2
REMARK    2  A    between atoms: O_2  and  C_3
REMARK    3  A    between atoms: C_6  and  C_7
REMARK    4  A    between atoms: C_9  and  C_10
REMARK                            x       y       z     vdW  Elec       q    Type
REMARK                         _______ _______ _______ _____ _____    ______ ____
ROOT
ATOM      1  C   UNL     1       0.855  10.578  20.063  0.00  0.00    +0.000 A 
ATOM      2  C   UNL     1       1.274  11.563  19.150  0.00  0.00    +0.000 A 
ATOM      3  C   UNL     1       0.788  12.867  19.235  0.00  0.00    +0.000 A 
ATOM      4  N   UNL     1      -0.272  13.157  20.021  0.00  0.00    +0.000 NA
ATOM      5  C   UNL     1      -0.669  12.216  20.908  0.00  0.00    +0.000 A 
ATOM      6  C   UNL     1      -0.008  11.011  21.077  0.00  0.00    +0.000 A 
ATOM      7  C   UNL     1      -0.094  10.381  22.444  0.00  0.00    +0.000 C 
ATOM      8  O   UNL     1      -1.098  10.847  23.366  0.00  0.00    +0.000 OA
ATOM      9  C   UNL     1      -1.995  11.779  22.925  0.00  0.00    +0.000 A 
ATOM     10  C   UNL     1      -3.101  12.002  23.746  0.00  0.00    +0.000 A 
ATOM     11  C   UNL     1      -4.133  12.837  23.319  0.00  0.00    +0.000 A 
ATOM     12  C   UNL     1      -4.051  13.455  22.073  0.00  0.00    +0.000 A 
ATOM     13  C   UNL     1      -2.909  13.286  21.286  0.00  0.00    +0.000 A 
ATOM     14  C   UNL     1      -1.852  12.467  21.717  0.00  0.00    +0.000 A 
ENDROOT
BRANCH   3  15
ATOM     15  C   UNL     1       1.516  14.009  18.642  0.00  0.00    +0.000 A 
ATOM     16  C   UNL     1       2.798  13.877  18.069  0.00  0.00    +0.000 A 
ATOM     17  C   UNL     1       3.549  14.996  17.700  0.00  0.00    +0.000 A 
ATOM     18  C   UNL     1       3.028  16.268  17.891  0.00  0.00    +0.000 A 
ATOM     19  F   UNL     1       3.763  17.340  17.575  0.00  0.00    +0.000 F 
ATOM     20  C   UNL     1       1.755  16.438  18.412  0.00  0.00    +0.000 A 
ATOM     21  C   UNL     1       1.005  15.316  18.781  0.00  0.00    +0.000 A 
ENDBRANCH   3  15
BRANCH   1  25
ATOM     22  C   UNL     1       2.365   6.570  19.511  0.00  0.00    +0.000 A 
ATOM     23  C   UNL     1       1.798   6.950  20.724  0.00  0.00    +0.000 A 
ATOM     24  C   UNL     1       1.224   8.217  20.878  0.00  0.00    +0.000 A 
ATOM     25  C   UNL     1       1.249   9.163  19.841  0.00  0.00    +0.000 A 
ATOM     26  C   UNL     1       1.834   8.757  18.626  0.00  0.00    +0.000 A 
ATOM     27  C   UNL     1       2.374   7.474  18.455  0.00  0.00    +0.000 A 
BRANCH  22  29
ATOM     28  C   UNL     1       4.339   5.282  19.337  0.00  0.00    +0.000 C 
ATOM     29  O   UNL     1       2.926   5.324  19.499  0.00  0.00    +0.000 OA
ENDBRANCH  22  29
ENDBRANCH   1  25
TORSDOF 3
ENDMDL
