MODEL 1
REMARK VINA RESULT:      -8.3      0.000      0.000
REMARK  Name = 
REMARK  7 active torsions:
REMARK  status: ('A' for Active; 'I' for Inactive)
REMARK    1  A    between atoms: C_2  and  C_3
REMARK    2  A    between atoms: C_3  and  N_4
REMARK    3  A    between atoms: C_5  and  C_7
REMARK    4  A    between atoms: C_11  and  C_12
REMARK    5  A    between atoms: N_17  and  C_18
REMARK    6  A    between atoms: N_20  and  C_21
REMARK    7  A    between atoms: C_24  and  C_25
REMARK                            x       y       z     vdW  Elec       q    Type
REMARK                         _______ _______ _______ _____ _____    ______ ____
ROOT
ATOM      1  O   UNL     1       0.992   2.433  18.123  0.00  0.00    +0.000 OA
ATOM      2  C   UNL     1       1.918   3.240  18.223  0.00  0.00    +0.000 C 
ATOM      3  N   UNL     1       1.635   4.582  18.254  0.00  0.00    +0.000 N 
ATOM      4  H   UNL     1       0.646   4.775  18.143  0.00  0.00    +0.000 HD
ENDROOT
BRANCH   3   5
ATOM      5  C   UNL     1       2.591   5.686  18.491  0.00  0.00    +0.000 C 
ATOM      6  C   UNL     1       2.108   7.095  18.091  0.00  0.00    +0.000 C 
ATOM      7  N   UNL     1       2.481   7.595  19.418  0.00  0.00    +0.000 NA
ATOM      8  C   UNL     1       2.588   6.228  19.947  0.00  0.00    +0.000 C 
BRANCH   7   9
ATOM      9  C   UNL     1       1.403   8.425  19.971  0.00  0.00    +0.000 C 
ATOM     10  C   UNL     1       1.248   8.488  21.505  0.00  0.00    +0.000 C 
ATOM     11  C   UNL     1      -0.019   9.247  21.872  0.00  0.00    +0.000 C 
ATOM     12  C   UNL     1      -0.001  10.673  21.297  0.00  0.00    +0.000 C 
ATOM     13  C   UNL     1       0.266  10.676  19.782  0.00  0.00    +0.000 C 
ATOM     14  C   UNL     1       1.504   9.851  19.406  0.00  0.00    +0.000 C 
BRANCH  12  15
ATOM     15  C   UNL     1      -1.278  11.393  21.673  0.00  0.00    +0.000 A 
ATOM     16  C   UNL     1      -2.038  12.051  20.703  0.00  0.00    +0.000 A 
ATOM     17  C   UNL     1      -3.157  12.788  21.082  0.00  0.00    +0.000 A 
ATOM     18  C   UNL     1      -3.486  12.842  22.425  0.00  0.00    +0.000 A 
ATOM     19  N   UNL     1      -2.793  12.206  23.391  0.00  0.00    +0.000 NA
ATOM     20  C   UNL     1      -1.712  11.497  22.995  0.00  0.00    +0.000 A 
ENDBRANCH  12  15
ENDBRANCH   7   9
ENDBRANCH   3   5
BRANCH   2  21
ATOM     21  C   UNL     1       3.358   2.788  18.430  0.00  0.00    +0.000 C 
BRANCH  21  22
ATOM     22  N   UNL     1       4.156   3.064  17.257  0.00  0.00    +0.000 N 
ATOM     23  C   UNL     1       5.291   3.836  17.344  0.00  0.00    +0.000 C 
ATOM     24  O   UNL     1       5.753   4.242  18.404  0.00  0.00    +0.000 OA
ATOM     25  H   UNL     1       3.846   2.677  16.373  0.00  0.00    +0.000 HD
BRANCH  23  26
ATOM     26  C   UNL     1       5.976   4.151  16.064  0.00  0.00    +0.000 A 
ATOM     27  C   UNL     1       7.063   5.031  16.094  0.00  0.00    +0.000 A 
ATOM     28  C   UNL     1       7.724   5.369  14.915  0.00  0.00    +0.000 A 
ATOM     29  C   UNL     1       7.295   4.841  13.695  0.00  0.00    +0.000 A 
ATOM     30  C   UNL     1       6.192   3.968  13.648  0.00  0.00    +0.000 A 
ATOM     31  C   UNL     1       5.537   3.627  14.841  0.00  0.00    +0.000 A 
BRANCH  30  32
ATOM     32  C   UNL     1       5.698   3.411  12.336  0.00  0.00    +0.000 C 
ATOM     33  F   UNL     1       5.885   2.070  12.202  0.00  0.00    +0.000 F 
ATOM     34  F   UNL     1       4.366   3.626  12.156  0.00  0.00    +0.000 F 
ATOM     35  F   UNL     1       6.316   3.986  11.266  0.00  0.00    +0.000 F 
ENDBRANCH  30  32
ENDBRANCH  23  26
ENDBRANCH  21  22
ENDBRANCH   2  21
TORSDOF 7
ENDMDL
MODEL 2
REMARK VINA RESULT:      -8.2      5.670      6.878
REMARK  Name = 
REMARK  7 active torsions:
REMARK  status: ('A' for Active; 'I' for Inactive)
REMARK    1  A    between atoms: C_2  and  C_3
REMARK    2  A    between atoms: C_3  and  N_4
REMARK    3  A    between atoms: C_5  and  C_7
REMARK    4  A    between atoms: C_11  and  C_12
REMARK    5  A    between atoms: N_17  and  C_18
REMARK    6  A    between atoms: N_20  and  C_21
REMARK    7  A    between atoms: C_24  and  C_25
REMARK                            x       y       z     vdW  Elec       q    Type
REMARK                         _______ _______ _______ _____ _____    ______ ____
ROOT
ATOM      1  O   UNL     1       8.204   5.516  20.580  0.00  0.00    +0.000 OA
ATOM      2  C   UNL     1       7.523   5.568  19.555  0.00  0.00    +0.000 C 
ATOM      3  N   UNL     1       6.386   4.805  19.467  0.00  0.00    +0.000 N 
ATOM      4  H   UNL     1       6.246   4.219  20.282  0.00  0.00    +0.000 HD
ENDROOT
BRANCH   3   5
ATOM      5  C   UNL     1       5.384   4.826  18.379  0.00  0.00    +0.000 C 
ATOM      6  C   UNL     1       3.913   4.971  18.819  0.00  0.00    +0.000 C 
ATOM      7  N   UNL     1       3.744   6.078  17.871  0.00  0.00    +0.000 NA
ATOM      8  C   UNL     1       5.198   6.217  17.712  0.00  0.00    +0.000 C 
BRANCH   7   9
ATOM      9  C   UNL     1       3.049   7.199  18.517  0.00  0.00    +0.000 C 
ATOM     10  C   UNL     1       2.302   8.207  17.617  0.00  0.00    +0.000 C 
ATOM     11  C   UNL     1       1.804   9.380  18.448  0.00  0.00    +0.000 C 
ATOM     12  C   UNL     1       0.872   8.908  19.575  0.00  0.00    +0.000 C 
ATOM     13  C   UNL     1       1.526   7.815  20.439  0.00  0.00    +0.000 C 
ATOM     14  C   UNL     1       2.092   6.666  19.594  0.00  0.00    +0.000 C 
BRANCH  12  15
ATOM     15  C   UNL     1       0.403  10.098  20.385  0.00  0.00    +0.000 A 
ATOM     16  C   UNL     1      -0.109  11.234  19.753  0.00  0.00    +0.000 A 
ATOM     17  C   UNL     1      -0.445  12.355  20.508  0.00  0.00    +0.000 A 
ATOM     18  C   UNL     1      -0.262  12.304  21.879  0.00  0.00    +0.000 A 
ATOM     19  N   UNL     1       0.209  11.222  22.531  0.00  0.00    +0.000 NA
ATOM     20  C   UNL     1       0.527  10.148  21.774  0.00  0.00    +0.000 A 
ENDBRANCH  12  15
ENDBRANCH   7   9
ENDBRANCH   3   5
BRANCH   2  21
ATOM     21  C   UNL     1       7.843   6.542  18.428  0.00  0.00    +0.000 C 
BRANCH  21  22
ATOM     22  N   UNL     1       8.430   7.755  18.950  0.00  0.00    +0.000 N 
ATOM     23  C   UNL     1       8.407   8.919  18.218  0.00  0.00    +0.000 C 
ATOM     24  O   UNL     1       7.813   9.038  17.153  0.00  0.00    +0.000 OA
ATOM     25  H   UNL     1       8.862   7.714  19.866  0.00  0.00    +0.000 HD
BRANCH  23  26
ATOM     26  C   UNL     1       9.134  10.078  18.798  0.00  0.00    +0.000 A 
ATOM     27  C   UNL     1       9.148  10.222  20.189  0.00  0.00    +0.000 A 
ATOM     28  C   UNL     1       9.802  11.304  20.776  0.00  0.00    +0.000 A 
ATOM     29  C   UNL     1      10.434  12.258  19.975  0.00  0.00    +0.000 A 
ATOM     30  C   UNL     1      10.413  12.136  18.573  0.00  0.00    +0.000 A 
ATOM     31  C   UNL     1       9.759  11.039  17.992  0.00  0.00    +0.000 A 
BRANCH  30  32
ATOM     32  C   UNL     1      11.066  13.172  17.694  0.00  0.00    +0.000 C 
ATOM     33  F   UNL     1      12.329  12.847  17.304  0.00  0.00    +0.000 F 
ATOM     34  F   UNL     1      10.363  13.391  16.548  0.00  0.00    +0.000 F 
ATOM     35  F   UNL     1      11.162  14.384  18.309  0.00  0.00    +0.000 F 
ENDBRANCH  30  32
ENDBRANCH  23  26
ENDBRANCH  21  22
ENDBRANCH   2  21
TORSDOF 7
ENDMDL
MODEL 3
REMARK VINA RESULT:      -8.0      3.769      5.919
REMARK  Name = 
REMARK  7 active torsions:
REMARK  status: ('A' for Active; 'I' for Inactive)
REMARK    1  A    between atoms: C_2  and  C_3
REMARK    2  A    between atoms: C_3  and  N_4
REMARK    3  A    between atoms: C_5  and  C_7
REMARK    4  A    between atoms: C_11  and  C_12
REMARK    5  A    between atoms: N_17  and  C_18
REMARK    6  A    between atoms: N_20  and  C_21
REMARK    7  A    between atoms: C_24  and  C_25
REMARK                            x       y       z     vdW  Elec       q    Type
REMARK                         _______ _______ _______ _____ _____    ______ ____
ROOT
ATOM      1  O   UNL     1       0.417   9.070  17.107  0.00  0.00    +0.000 OA
ATOM      2  C   UNL     1       1.060   9.599  18.015  0.00  0.00    +0.000 C 
ATOM      3  N   UNL     1       0.479  10.598  18.753  0.00  0.00    +0.000 N 
ATOM      4  H   UNL     1      -0.451  10.834  18.426  0.00  0.00    +0.000 HD
ENDROOT
BRANCH   3   5
ATOM      5  C   UNL     1       1.041  11.261  19.950  0.00  0.00    +0.000 C 
ATOM      6  C   UNL     1       0.468  12.654  20.282  0.00  0.00    +0.000 C 
ATOM      7  N   UNL     1       0.223  12.218  21.661  0.00  0.00    +0.000 NA
ATOM      8  C   UNL     1       0.399  10.808  21.289  0.00  0.00    +0.000 C 
BRANCH   7   9
ATOM      9  C   UNL     1      -1.124  12.616  22.089  0.00  0.00    +0.000 C 
ATOM     10  C   UNL     1      -1.817  11.777  23.184  0.00  0.00    +0.000 C 
ATOM     11  C   UNL     1      -3.257  12.234  23.360  0.00  0.00    +0.000 C 
ATOM     12  C   UNL     1      -3.328  13.724  23.731  0.00  0.00    +0.000 C 
ATOM     13  C   UNL     1      -2.553  14.600  22.732  0.00  0.00    +0.000 C 
ATOM     14  C   UNL     1      -1.123  14.097  22.501  0.00  0.00    +0.000 C 
BRANCH  12  15
ATOM     15  C   UNL     1      -4.773  14.145  23.889  0.00  0.00    +0.000 A 
ATOM     16  C   UNL     1      -5.794  13.192  23.930  0.00  0.00    +0.000 A 
ATOM     17  C   UNL     1      -7.123  13.603  23.979  0.00  0.00    +0.000 A 
ATOM     18  C   UNL     1      -7.393  14.960  23.991  0.00  0.00    +0.000 A 
ATOM     19  N   UNL     1      -6.439  15.912  23.974  0.00  0.00    +0.000 NA
ATOM     20  C   UNL     1      -5.157  15.486  23.927  0.00  0.00    +0.000 A 
ENDBRANCH  12  15
ENDBRANCH   7   9
ENDBRANCH   3   5
BRANCH   2  21
ATOM     21  C   UNL     1       2.441   9.096  18.419  0.00  0.00    +0.000 C 
BRANCH  21  22
ATOM     22  N   UNL     1       2.462   7.652  18.484  0.00  0.00    +0.000 N 
ATOM     23  C   UNL     1       3.446   6.934  17.847  0.00  0.00    +0.000 C 
ATOM     24  O   UNL     1       4.406   7.449  17.287  0.00  0.00    +0.000 OA
ATOM     25  H   UNL     1       1.726   7.193  19.007  0.00  0.00    +0.000 HD
BRANCH  23  26
ATOM     26  C   UNL     1       3.314   5.455  17.884  0.00  0.00    +0.000 A 
ATOM     27  C   UNL     1       4.205   4.690  17.122  0.00  0.00    +0.000 A 
ATOM     28  C   UNL     1       4.106   3.300  17.113  0.00  0.00    +0.000 A 
ATOM     29  C   UNL     1       3.106   2.664  17.853  0.00  0.00    +0.000 A 
ATOM     30  C   UNL     1       2.192   3.421  18.609  0.00  0.00    +0.000 A 
ATOM     31  C   UNL     1       2.303   4.819  18.619  0.00  0.00    +0.000 A 
BRANCH  30  32
ATOM     32  C   UNL     1       1.089   2.751  19.390  0.00  0.00    +0.000 C 
ATOM     33  F   UNL     1       0.182   2.099  18.614  0.00  0.00    +0.000 F 
ATOM     34  F   UNL     1       1.569   1.826  20.267  0.00  0.00    +0.000 F 
ATOM     35  F   UNL     1       0.375   3.639  20.139  0.00  0.00    +0.000 F 
ENDBRANCH  30  32
ENDBRANCH  23  26
ENDBRANCH  21  22
ENDBRANCH   2  21
TORSDOF 7
ENDMDL
MODEL 4
REMARK VINA RESULT:      -7.9      5.660      6.877
REMARK  Name = 
REMARK  7 active torsions:
REMARK  status: ('A' for Active; 'I' for Inactive)
REMARK    1  A    between atoms: C_2  and  C_3
REMARK    2  A    between atoms: C_3  and  N_4
REMARK    3  A    between atoms: C_5  and  C_7
REMARK    4  A    between atoms: C_11  and  C_12
REMARK    5  A    between atoms: N_17  and  C_18
REMARK    6  A    between atoms: N_20  and  C_21
REMARK    7  A    between atoms: C_24  and  C_25
REMARK                            x       y       z     vdW  Elec       q    Type
REMARK                         _______ _______ _______ _____ _____    ______ ____
ROOT
ATOM      1  O   UNL     1       8.227   5.452  19.999  0.00  0.00    +0.000 OA
ATOM      2  C   UNL     1       7.511   5.555  19.002  0.00  0.00    +0.000 C 
ATOM      3  N   UNL     1       6.468   4.679  18.833  0.00  0.00    +0.000 N 
ATOM      4  H   UNL     1       6.426   3.979  19.564  0.00  0.00    +0.000 HD
ENDROOT
BRANCH   3   5
ATOM      5  C   UNL     1       5.435   4.722  17.776  0.00  0.00    +0.000 C 
ATOM      6  C   UNL     1       3.984   4.485  18.240  0.00  0.00    +0.000 C 
ATOM      7  N   UNL     1       3.566   5.704  17.541  0.00  0.00    +0.000 NA
ATOM      8  C   UNL     1       4.958   6.154  17.409  0.00  0.00    +0.000 C 
BRANCH   7   9
ATOM      9  C   UNL     1       2.698   6.515  18.405  0.00  0.00    +0.000 C 
ATOM     10  C   UNL     1       2.839   6.355  19.934  0.00  0.00    +0.000 C 
ATOM     11  C   UNL     1       1.745   7.136  20.645  0.00  0.00    +0.000 C 
ATOM     12  C   UNL     1       1.795   8.628  20.278  0.00  0.00    +0.000 C 
ATOM     13  C   UNL     1       1.773   8.842  18.754  0.00  0.00    +0.000 C 
ATOM     14  C   UNL     1       2.831   7.999  18.030  0.00  0.00    +0.000 C 
BRANCH  12  15
ATOM     15  C   UNL     1       0.689   9.370  20.994  0.00  0.00    +0.000 A 
ATOM     16  C   UNL     1       0.002  10.411  20.364  0.00  0.00    +0.000 A 
ATOM     17  C   UNL     1      -0.946  11.145  21.071  0.00  0.00    +0.000 A 
ATOM     18  C   UNL     1      -1.183  10.812  22.394  0.00  0.00    +0.000 A 
ATOM     19  N   UNL     1      -0.559   9.804  23.035  0.00  0.00    +0.000 NA
ATOM     20  C   UNL     1       0.356   9.107  22.324  0.00  0.00    +0.000 A 
ENDBRANCH  12  15
ENDBRANCH   7   9
ENDBRANCH   3   5
BRANCH   2  21
ATOM     21  C   UNL     1       7.676   6.700  18.010  0.00  0.00    +0.000 C 
BRANCH  21  22
ATOM     22  N   UNL     1       8.361   7.815  18.624  0.00  0.00    +0.000 N 
ATOM     23  C   UNL     1       8.266   9.079  18.090  0.00  0.00    +0.000 C 
ATOM     24  O   UNL     1       7.533   9.364  17.151  0.00  0.00    +0.000 OA
ATOM     25  H   UNL     1       8.915   7.631  19.452  0.00  0.00    +0.000 HD
BRANCH  23  26
ATOM     26  C   UNL     1       9.095  10.131  18.732  0.00  0.00    +0.000 A 
ATOM     27  C   UNL     1       9.119  10.195  20.129  0.00  0.00    +0.000 A 
ATOM     28  C   UNL     1       9.869  11.176  20.774  0.00  0.00    +0.000 A 
ATOM     29  C   UNL     1      10.588  12.112  20.027  0.00  0.00    +0.000 A 
ATOM     30  C   UNL     1      10.559  12.072  18.620  0.00  0.00    +0.000 A 
ATOM     31  C   UNL     1       9.808  11.075  17.979  0.00  0.00    +0.000 A 
BRANCH  30  32
ATOM     32  C   UNL     1      11.307  13.092  17.798  0.00  0.00    +0.000 C 
ATOM     33  F   UNL     1      11.857  12.586  16.661  0.00  0.00    +0.000 F 
ATOM     34  F   UNL     1      10.507  14.121  17.405  0.00  0.00    +0.000 F 
ATOM     35  F   UNL     1      12.333  13.661  18.492  0.00  0.00    +0.000 F 
ENDBRANCH  30  32
ENDBRANCH  23  26
ENDBRANCH  21  22
ENDBRANCH   2  21
TORSDOF 7
ENDMDL
MODEL 5
REMARK VINA RESULT:      -7.7      3.453      5.858
REMARK  Name = 
REMARK  7 active torsions:
REMARK  status: ('A' for Active; 'I' for Inactive)
REMARK    1  A    between atoms: C_2  and  C_3
REMARK    2  A    between atoms: C_3  and  N_4
REMARK    3  A    between atoms: C_5  and  C_7
REMARK    4  A    between atoms: C_11  and  C_12
REMARK    5  A    between atoms: N_17  and  C_18
REMARK    6  A    between atoms: N_20  and  C_21
REMARK    7  A    between atoms: C_24  and  C_25
REMARK                            x       y       z     vdW  Elec       q    Type
REMARK                         _______ _______ _______ _____ _____    ______ ____
ROOT
ATOM      1  O   UNL     1       0.401   9.543  17.619  0.00  0.00    +0.000 OA
ATOM      2  C   UNL     1       0.894   9.939  18.676  0.00  0.00    +0.000 C 
ATOM      3  N   UNL     1       0.751  11.257  19.029  0.00  0.00    +0.000 N 
ATOM      4  H   UNL     1       0.265  11.799  18.324  0.00  0.00    +0.000 HD
ENDROOT
BRANCH   3   5
ATOM      5  C   UNL     1       1.161  11.885  20.304  0.00  0.00    +0.000 C 
ATOM      6  C   UNL     1       0.460  13.211  20.660  0.00  0.00    +0.000 C 
ATOM      7  N   UNL     1       0.136  12.678  21.987  0.00  0.00    +0.000 NA
ATOM      8  C   UNL     1       0.447  11.308  21.557  0.00  0.00    +0.000 C 
BRANCH   7   9
ATOM      9  C   UNL     1      -1.269  12.954  22.318  0.00  0.00    +0.000 C 
ATOM     10  C   UNL     1      -2.047  11.896  23.129  0.00  0.00    +0.000 C 
ATOM     11  C   UNL     1      -3.516  12.280  23.215  0.00  0.00    +0.000 C 
ATOM     12  C   UNL     1      -3.695  13.661  23.865  0.00  0.00    +0.000 C 
ATOM     13  C   UNL     1      -2.849  14.738  23.163  0.00  0.00    +0.000 C 
ATOM     14  C   UNL     1      -1.380  14.319  23.014  0.00  0.00    +0.000 C 
BRANCH  12  15
ATOM     15  C   UNL     1      -5.165  14.013  23.925  0.00  0.00    +0.000 A 
ATOM     16  C   UNL     1      -6.131  13.019  24.101  0.00  0.00    +0.000 A 
ATOM     17  C   UNL     1      -7.483  13.350  24.058  0.00  0.00    +0.000 A 
ATOM     18  C   UNL     1      -7.830  14.673  23.844  0.00  0.00    +0.000 A 
ATOM     19  N   UNL     1      -6.932  15.666  23.691  0.00  0.00    +0.000 NA
ATOM     20  C   UNL     1      -5.626  15.317  23.738  0.00  0.00    +0.000 A 
ENDBRANCH  12  15
ENDBRANCH   7   9
ENDBRANCH   3   5
BRANCH   2  21
ATOM     21  C   UNL     1       1.559   8.983  19.660  0.00  0.00    +0.000 C 
BRANCH  21  22
ATOM     22  N   UNL     1       2.188   7.885  18.961  0.00  0.00    +0.000 N 
ATOM     23  C   UNL     1       2.286   6.644  19.546  0.00  0.00    +0.000 C 
ATOM     24  O   UNL     1       1.770   6.359  20.620  0.00  0.00    +0.000 OA
ATOM     25  H   UNL     1       2.557   8.064  18.035  0.00  0.00    +0.000 HD
BRANCH  23  26
ATOM     26  C   UNL     1       3.046   5.616  18.790  0.00  0.00    +0.000 A 
ATOM     27  C   UNL     1       3.805   6.029  17.690  0.00  0.00    +0.000 A 
ATOM     28  C   UNL     1       4.520   5.097  16.941  0.00  0.00    +0.000 A 
ATOM     29  C   UNL     1       4.469   3.741  17.276  0.00  0.00    +0.000 A 
ATOM     30  C   UNL     1       3.695   3.309  18.369  0.00  0.00    +0.000 A 
ATOM     31  C   UNL     1       2.986   4.255  19.123  0.00  0.00    +0.000 A 
BRANCH  30  32
ATOM     32  C   UNL     1       3.607   1.846  18.728  0.00  0.00    +0.000 C 
ATOM     33  F   UNL     1       2.380   1.462  19.173  0.00  0.00    +0.000 F 
ATOM     34  F   UNL     1       3.893   1.040  17.669  0.00  0.00    +0.000 F 
ATOM     35  F   UNL     1       4.489   1.502  19.707  0.00  0.00    +0.000 F 
ENDBRANCH  30  32
ENDBRANCH  23  26
ENDBRANCH  21  22
ENDBRANCH   2  21
TORSDOF 7
ENDMDL
MODEL 6
REMARK VINA RESULT:      -7.7      4.993      8.845
REMARK  Name = 
REMARK  7 active torsions:
REMARK  status: ('A' for Active; 'I' for Inactive)
REMARK    1  A    between atoms: C_2  and  C_3
REMARK    2  A    between atoms: C_3  and  N_4
REMARK    3  A    between atoms: C_5  and  C_7
REMARK    4  A    between atoms: C_11  and  C_12
REMARK    5  A    between atoms: N_17  and  C_18
REMARK    6  A    between atoms: N_20  and  C_21
REMARK    7  A    between atoms: C_24  and  C_25
REMARK                            x       y       z     vdW  Elec       q    Type
REMARK                         _______ _______ _______ _____ _____    ______ ____
ROOT
ATOM      1  O   UNL     1       1.404   5.404  20.787  0.00  0.00    +0.000 OA
ATOM      2  C   UNL     1       2.301   5.331  19.946  0.00  0.00    +0.000 C 
ATOM      3  N   UNL     1       2.741   4.096  19.542  0.00  0.00    +0.000 N 
ATOM      4  H   UNL     1       2.285   3.339  20.038  0.00  0.00    +0.000 HD
ENDROOT
BRANCH   3   5
ATOM      5  C   UNL     1       3.713   3.808  18.465  0.00  0.00    +0.000 C 
ATOM      6  C   UNL     1       4.078   4.995  17.550  0.00  0.00    +0.000 C 
ATOM      7  N   UNL     1       5.502   4.720  17.771  0.00  0.00    +0.000 NA
ATOM      8  C   UNL     1       5.198   3.852  18.917  0.00  0.00    +0.000 C 
BRANCH   7   9
ATOM      9  C   UNL     1       6.221   5.966  18.069  0.00  0.00    +0.000 C 
ATOM     10  C   UNL     1       7.725   5.875  18.404  0.00  0.00    +0.000 C 
ATOM     11  C   UNL     1       8.243   7.233  18.853  0.00  0.00    +0.000 C 
ATOM     12  C   UNL     1       8.020   8.301  17.770  0.00  0.00    +0.000 C 
ATOM     13  C   UNL     1       6.551   8.356  17.315  0.00  0.00    +0.000 C 
ATOM     14  C   UNL     1       6.008   6.974  16.929  0.00  0.00    +0.000 C 
BRANCH  12  15
ATOM     15  C   UNL     1       8.538   9.638  18.254  0.00  0.00    +0.000 A 
ATOM     16  C   UNL     1       8.297  10.804  17.524  0.00  0.00    +0.000 A 
ATOM     17  C   UNL     1       8.862  12.009  17.934  0.00  0.00    +0.000 A 
ATOM     18  C   UNL     1       9.652  12.012  19.070  0.00  0.00    +0.000 A 
ATOM     19  N   UNL     1       9.894  10.915  19.816  0.00  0.00    +0.000 NA
ATOM     20  C   UNL     1       9.332   9.759  19.395  0.00  0.00    +0.000 A 
ENDBRANCH  12  15
ENDBRANCH   7   9
ENDBRANCH   3   5
BRANCH   2  21
ATOM     21  C   UNL     1       2.857   6.571  19.255  0.00  0.00    +0.000 C 
BRANCH  21  22
ATOM     22  N   UNL     1       1.840   7.590  19.137  0.00  0.00    +0.000 N 
ATOM     23  C   UNL     1       1.941   8.577  18.184  0.00  0.00    +0.000 C 
ATOM     24  O   UNL     1       2.814   8.602  17.325  0.00  0.00    +0.000 OA
ATOM     25  H   UNL     1       1.059   7.555  19.781  0.00  0.00    +0.000 HD
BRANCH  23  26
ATOM     26  C   UNL     1       0.901   9.638  18.219  0.00  0.00    +0.000 A 
ATOM     27  C   UNL     1       1.203  10.841  18.866  0.00  0.00    +0.000 A 
ATOM     28  C   UNL     1       0.252  11.857  18.938  0.00  0.00    +0.000 A 
ATOM     29  C   UNL     1      -1.014  11.672  18.378  0.00  0.00    +0.000 A 
ATOM     30  C   UNL     1      -1.338  10.461  17.739  0.00  0.00    +0.000 A 
ATOM     31  C   UNL     1      -0.372   9.446  17.664  0.00  0.00    +0.000 A 
BRANCH  30  32
ATOM     32  C   UNL     1      -2.710  10.235  17.154  0.00  0.00    +0.000 C 
ATOM     33  F   UNL     1      -2.695   9.628  15.936  0.00  0.00    +0.000 F 
ATOM     34  F   UNL     1      -3.488   9.455  17.954  0.00  0.00    +0.000 F 
ATOM     35  F   UNL     1      -3.397  11.399  16.987  0.00  0.00    +0.000 F 
ENDBRANCH  30  32
ENDBRANCH  23  26
ENDBRANCH  21  22
ENDBRANCH   2  21
TORSDOF 7
ENDMDL
MODEL 7
REMARK VINA RESULT:      -7.6      2.867      3.384
REMARK  Name = 
REMARK  7 active torsions:
REMARK  status: ('A' for Active; 'I' for Inactive)
REMARK    1  A    between atoms: C_2  and  C_3
REMARK    2  A    between atoms: C_3  and  N_4
REMARK    3  A    between atoms: C_5  and  C_7
REMARK    4  A    between atoms: C_11  and  C_12
REMARK    5  A    between atoms: N_17  and  C_18
REMARK    6  A    between atoms: N_20  and  C_21
REMARK    7  A    between atoms: C_24  and  C_25
REMARK                            x       y       z     vdW  Elec       q    Type
REMARK                         _______ _______ _______ _____ _____    ______ ____
ROOT
ATOM      1  O   UNL     1       0.114   1.956  18.495  0.00  0.00    +0.000 OA
ATOM      2  C   UNL     1       1.138   2.568  18.802  0.00  0.00    +0.000 C 
ATOM      3  N   UNL     1       1.052   3.899  19.121  0.00  0.00    +0.000 N 
ATOM      4  H   UNL     1       0.111   4.263  19.023  0.00  0.00    +0.000 HD
ENDROOT
BRANCH   3   5
ATOM      5  C   UNL     1       2.140   4.762  19.629  0.00  0.00    +0.000 C 
ATOM      6  C   UNL     1       2.202   6.187  19.041  0.00  0.00    +0.000 C 
ATOM      7  N   UNL     1       2.254   6.740  20.398  0.00  0.00    +0.000 NA
ATOM      8  C   UNL     1       1.821   5.462  20.978  0.00  0.00    +0.000 C 
BRANCH   7   9
ATOM      9  C   UNL     1       1.318   7.864  20.526  0.00  0.00    +0.000 C 
ATOM     10  C   UNL     1       1.258   8.611  21.876  0.00  0.00    +0.000 C 
ATOM     11  C   UNL     1       0.116   9.615  21.868  0.00  0.00    +0.000 C 
ATOM     12  C   UNL     1       0.275  10.631  20.726  0.00  0.00    +0.000 C 
ATOM     13  C   UNL     1       0.454   9.937  19.364  0.00  0.00    +0.000 C 
ATOM     14  C   UNL     1       1.559   8.873  19.392  0.00  0.00    +0.000 C 
BRANCH  12  15
ATOM     15  C   UNL     1      -0.882  11.607  20.743  0.00  0.00    +0.000 A 
ATOM     16  C   UNL     1      -1.156  12.369  21.881  0.00  0.00    +0.000 A 
ATOM     17  C   UNL     1      -2.280  13.190  21.912  0.00  0.00    +0.000 A 
ATOM     18  C   UNL     1      -3.098  13.228  20.795  0.00  0.00    +0.000 A 
ATOM     19  N   UNL     1      -2.860  12.525  19.670  0.00  0.00    +0.000 NA
ATOM     20  C   UNL     1      -1.761  11.737  19.667  0.00  0.00    +0.000 A 
ENDBRANCH  12  15
ENDBRANCH   7   9
ENDBRANCH   3   5
BRANCH   2  21
ATOM     21  C   UNL     1       2.480   1.861  18.951  0.00  0.00    +0.000 C 
BRANCH  21  22
ATOM     22  N   UNL     1       3.566   2.743  18.587  0.00  0.00    +0.000 N 
ATOM     23  C   UNL     1       3.652   3.265  17.317  0.00  0.00    +0.000 C 
ATOM     24  O   UNL     1       2.787   3.114  16.463  0.00  0.00    +0.000 OA
ATOM     25  H   UNL     1       4.260   2.954  19.294  0.00  0.00    +0.000 HD
BRANCH  23  26
ATOM     26  C   UNL     1       4.864   4.069  17.015  0.00  0.00    +0.000 A 
ATOM     27  C   UNL     1       5.179   4.313  15.673  0.00  0.00    +0.000 A 
ATOM     28  C   UNL     1       6.316   5.048  15.343  0.00  0.00    +0.000 A 
ATOM     29  C   UNL     1       7.155   5.532  16.350  0.00  0.00    +0.000 A 
ATOM     30  C   UNL     1       6.860   5.279  17.702  0.00  0.00    +0.000 A 
ATOM     31  C   UNL     1       5.709   4.546  18.026  0.00  0.00    +0.000 A 
BRANCH  30  32
ATOM     32  C   UNL     1       7.770   5.771  18.800  0.00  0.00    +0.000 C 
ATOM     33  F   UNL     1       7.151   5.920  20.003  0.00  0.00    +0.000 F 
ATOM     34  F   UNL     1       8.816   4.926  19.017  0.00  0.00    +0.000 F 
ATOM     35  F   UNL     1       8.323   6.981  18.508  0.00  0.00    +0.000 F 
ENDBRANCH  30  32
ENDBRANCH  23  26
ENDBRANCH  21  22
ENDBRANCH   2  21
TORSDOF 7
ENDMDL
MODEL 8
REMARK VINA RESULT:      -7.6      6.139     11.031
REMARK  Name = 
REMARK  7 active torsions:
REMARK  status: ('A' for Active; 'I' for Inactive)
REMARK    1  A    between atoms: C_2  and  C_3
REMARK    2  A    between atoms: C_3  and  N_4
REMARK    3  A    between atoms: C_5  and  C_7
REMARK    4  A    between atoms: C_11  and  C_12
REMARK    5  A    between atoms: N_17  and  C_18
REMARK    6  A    between atoms: N_20  and  C_21
REMARK    7  A    between atoms: C_24  and  C_25
REMARK                            x       y       z     vdW  Elec       q    Type
REMARK                         _______ _______ _______ _____ _____    ______ ____
ROOT
ATOM      1  O   UNL     1      -4.062  12.278  19.336  0.00  0.00    +0.000 OA
ATOM      2  C   UNL     1      -2.958  12.442  19.856  0.00  0.00    +0.000 C 
ATOM      3  N   UNL     1      -2.007  11.461  19.731  0.00  0.00    +0.000 N 
ATOM      4  H   UNL     1      -2.349  10.648  19.233  0.00  0.00    +0.000 HD
ENDROOT
BRANCH   3   5
ATOM      5  C   UNL     1      -0.597  11.529  20.175  0.00  0.00    +0.000 C 
ATOM      6  C   UNL     1      -0.065  10.288  20.920  0.00  0.00    +0.000 C 
ATOM      7  N   UNL     1       1.090  10.247  20.018  0.00  0.00    +0.000 NA
ATOM      8  C   UNL     1       0.435  11.164  19.074  0.00  0.00    +0.000 C 
BRANCH   7   9
ATOM      9  C   UNL     1       1.318   8.876  19.543  0.00  0.00    +0.000 C 
ATOM     10  C   UNL     1       2.290   8.667  18.363  0.00  0.00    +0.000 C 
ATOM     11  C   UNL     1       2.256   7.216  17.908  0.00  0.00    +0.000 C 
ATOM     12  C   UNL     1       2.626   6.262  19.055  0.00  0.00    +0.000 C 
ATOM     13  C   UNL     1       1.760   6.506  20.304  0.00  0.00    +0.000 C 
ATOM     14  C   UNL     1       1.739   7.982  20.720  0.00  0.00    +0.000 C 
BRANCH  12  15
ATOM     15  C   UNL     1       2.573   4.830  18.570  0.00  0.00    +0.000 A 
ATOM     16  C   UNL     1       1.446   4.039  18.804  0.00  0.00    +0.000 A 
ATOM     17  C   UNL     1       1.452   2.697  18.435  0.00  0.00    +0.000 A 
ATOM     18  C   UNL     1       2.590   2.184  17.835  0.00  0.00    +0.000 A 
ATOM     19  N   UNL     1       3.690   2.916  17.572  0.00  0.00    +0.000 NA
ATOM     20  C   UNL     1       3.656   4.217  17.940  0.00  0.00    +0.000 A 
ENDBRANCH  12  15
ENDBRANCH   7   9
ENDBRANCH   3   5
BRANCH   2  21
ATOM     21  C   UNL     1      -2.577  13.752  20.536  0.00  0.00    +0.000 C 
BRANCH  21  22
ATOM     22  N   UNL     1      -1.590  14.465  19.758  0.00  0.00    +0.000 N 
ATOM     23  C   UNL     1      -1.240  15.756  20.079  0.00  0.00    +0.000 C 
ATOM     24  O   UNL     1      -1.644  16.338  21.077  0.00  0.00    +0.000 OA
ATOM     25  H   UNL     1      -1.174  13.985  18.969  0.00  0.00    +0.000 HD
BRANCH  23  26
ATOM     26  C   UNL     1      -0.299  16.435  19.151  0.00  0.00    +0.000 A 
ATOM     27  C   UNL     1      -0.769  17.528  18.415  0.00  0.00    +0.000 A 
ATOM     28  C   UNL     1       0.073  18.185  17.520  0.00  0.00    +0.000 A 
ATOM     29  C   UNL     1       1.387  17.744  17.342  0.00  0.00    +0.000 A 
ATOM     30  C   UNL     1       1.868  16.635  18.063  0.00  0.00    +0.000 A 
ATOM     31  C   UNL     1       1.016  15.985  18.968  0.00  0.00    +0.000 A 
BRANCH  30  32
ATOM     32  C   UNL     1       3.275  16.129  17.862  0.00  0.00    +0.000 C 
ATOM     33  F   UNL     1       3.531  15.703  16.596  0.00  0.00    +0.000 F 
ATOM     34  F   UNL     1       4.207  17.084  18.134  0.00  0.00    +0.000 F 
ATOM     35  F   UNL     1       3.566  15.079  18.680  0.00  0.00    +0.000 F 
ENDBRANCH  30  32
ENDBRANCH  23  26
ENDBRANCH  21  22
ENDBRANCH   2  21
TORSDOF 7
ENDMDL
MODEL 9
REMARK VINA RESULT:      -7.5      4.087      6.227
REMARK  Name = 
REMARK  7 active torsions:
REMARK  status: ('A' for Active; 'I' for Inactive)
REMARK    1  A    between atoms: C_2  and  C_3
REMARK    2  A    between atoms: C_3  and  N_4
REMARK    3  A    between atoms: C_5  and  C_7
REMARK    4  A    between atoms: C_11  and  C_12
REMARK    5  A    between atoms: N_17  and  C_18
REMARK    6  A    between atoms: N_20  and  C_21
REMARK    7  A    between atoms: C_24  and  C_25
REMARK                            x       y       z     vdW  Elec       q    Type
REMARK                         _______ _______ _______ _____ _____    ______ ____
ROOT
ATOM      1  O   UNL     1       0.034   9.171  17.067  0.00  0.00    +0.000 OA
ATOM      2  C   UNL     1       0.715   9.531  18.029  0.00  0.00    +0.000 C 
ATOM      3  N   UNL     1       0.111  10.197  19.065  0.00  0.00    +0.000 N 
ATOM      4  H   UNL     1      -0.875  10.366  18.897  0.00  0.00    +0.000 HD
ENDROOT
BRANCH   3   5
ATOM      5  C   UNL     1       0.731  10.596  20.347  0.00  0.00    +0.000 C 
ATOM      6  C   UNL     1       0.632  12.092  20.709  0.00  0.00    +0.000 C 
ATOM      7  N   UNL     1       0.106  11.732  22.029  0.00  0.00    +0.000 NA
ATOM      8  C   UNL     1      -0.168  10.357  21.591  0.00  0.00    +0.000 C 
BRANCH   7   9
ATOM      9  C   UNL     1      -1.064  12.558  22.353  0.00  0.00    +0.000 C 
ATOM     10  C   UNL     1      -2.162  11.945  23.249  0.00  0.00    +0.000 C 
ATOM     11  C   UNL     1      -3.360  12.880  23.322  0.00  0.00    +0.000 C 
ATOM     12  C   UNL     1      -2.959  14.259  23.870  0.00  0.00    +0.000 C 
ATOM     13  C   UNL     1      -1.786  14.869  23.082  0.00  0.00    +0.000 C 
ATOM     14  C   UNL     1      -0.605  13.899  22.948  0.00  0.00    +0.000 C 
BRANCH  12  15
ATOM     15  C   UNL     1      -4.171  15.164  23.920  0.00  0.00    +0.000 A 
ATOM     16  C   UNL     1      -4.154  16.339  24.674  0.00  0.00    +0.000 A 
ATOM     17  C   UNL     1      -5.308  17.109  24.785  0.00  0.00    +0.000 A 
ATOM     18  C   UNL     1      -6.451  16.680  24.130  0.00  0.00    +0.000 A 
ATOM     19  N   UNL     1      -6.505  15.565  23.376  0.00  0.00    +0.000 NA
ATOM     20  C   UNL     1      -5.369  14.837  23.285  0.00  0.00    +0.000 A 
ENDBRANCH  12  15
ENDBRANCH   7   9
ENDBRANCH   3   5
BRANCH   2  21
ATOM     21  C   UNL     1       2.187   9.156  18.155  0.00  0.00    +0.000 C 
BRANCH  21  22
ATOM     22  N   UNL     1       2.332   7.760  18.497  0.00  0.00    +0.000 N 
ATOM     23  C   UNL     1       3.300   6.987  17.898  0.00  0.00    +0.000 C 
ATOM     24  O   UNL     1       4.150   7.434  17.139  0.00  0.00    +0.000 OA
ATOM     25  H   UNL     1       1.695   7.373  19.183  0.00  0.00    +0.000 HD
BRANCH  23  26
ATOM     26  C   UNL     1       3.293   5.540  18.238  0.00  0.00    +0.000 A 
ATOM     27  C   UNL     1       3.976   4.659  17.393  0.00  0.00    +0.000 A 
ATOM     28  C   UNL     1       3.982   3.292  17.663  0.00  0.00    +0.000 A 
ATOM     29  C   UNL     1       3.291   2.793  18.770  0.00  0.00    +0.000 A 
ATOM     30  C   UNL     1       2.585   3.666  19.619  0.00  0.00    +0.000 A 
ATOM     31  C   UNL     1       2.591   5.042  19.344  0.00  0.00    +0.000 A 
BRANCH  30  32
ATOM     32  C   UNL     1       1.811   3.141  20.802  0.00  0.00    +0.000 C 
ATOM     33  F   UNL     1       1.654   1.790  20.802  0.00  0.00    +0.000 F 
ATOM     34  F   UNL     1       2.410   3.451  21.985  0.00  0.00    +0.000 F 
ATOM     35  F   UNL     1       0.556   3.667  20.871  0.00  0.00    +0.000 F 
ENDBRANCH  30  32
ENDBRANCH  23  26
ENDBRANCH  21  22
ENDBRANCH   2  21
TORSDOF 7
ENDMDL
