MODEL 1
REMARK VINA RESULT:      -7.9      0.000      0.000
REMARK  Name = 
REMARK  10 active torsions:
REMARK  status: ('A' for Active; 'I' for Inactive)
REMARK    1  A    between atoms: C_1  and  C_2
REMARK    2  A    between atoms: C_2  and  C_3
REMARK    3  A    between atoms: C_2  and  N_4
REMARK    4  A    between atoms: N_8  and  C_9
REMARK    5  A    between atoms: C_12  and  N_13
REMARK    6  A    between atoms: N_16  and  C_17
REMARK    7  A    between atoms: N_16  and  C_18
REMARK    8  A    between atoms: C_18  and  C_19
REMARK    9  A    between atoms: C_18  and  C_20
REMARK   10  A    between atoms: C_25  and  C_26
REMARK                            x       y       z     vdW  Elec       q    Type
REMARK                         _______ _______ _______ _____ _____    ______ ____
ROOT
ATOM      1  N   UNL     1      -1.238  14.327  22.594  0.00  0.00    +0.000 N 
ATOM      2  C   UNL     1      -0.551  13.262  22.026  0.00  0.00    +0.000 A 
ATOM      3  N   UNL     1       0.428  13.576  21.162  0.00  0.00    +0.000 NA
ATOM      4  C   UNL     1       1.084  12.565  20.565  0.00  0.00    +0.000 A 
ATOM      5  N   UNL     1       2.120  12.842  19.639  0.00  0.00    +0.000 N 
ATOM      6  C   UNL     1       0.783  11.217  20.842  0.00  0.00    +0.000 A 
ATOM      7  C   UNL     1       1.429  10.083  20.273  0.00  0.00    +0.000 A 
ATOM      8  C   UNL     1       1.093   8.763  20.623  0.00  0.00    +0.000 A 
ATOM      9  C   UNL     1       0.081   8.610  21.578  0.00  0.00    +0.000 A 
ATOM     10  C   UNL     1      -0.571   9.720  22.128  0.00  0.00    +0.000 A 
ATOM     11  C   UNL     1      -0.234  11.014  21.775  0.00  0.00    +0.000 A 
ATOM     12  N   UNL     1      -0.894  12.013  22.348  0.00  0.00    +0.000 NA
ATOM     13  H   UNL     1      -0.645  15.135  22.444  0.00  0.00    +0.000 HD
ATOM     14  H   UNL     1       1.887  12.353  18.778  0.00  0.00    +0.000 HD
ENDROOT
BRANCH   8  15
ATOM     15  C   UNL     1       1.774   7.593  20.018  0.00  0.00    +0.000 A 
ATOM     16  C   UNL     1       2.416   7.682  18.766  0.00  0.00    +0.000 A 
ATOM     17  C   UNL     1       3.056   6.580  18.186  0.00  0.00    +0.000 A 
ATOM     18  C   UNL     1       3.082   5.363  18.856  0.00  0.00    +0.000 A 
ATOM     19  C   UNL     1       2.463   5.259  20.092  0.00  0.00    +0.000 A 
ATOM     20  F   UNL     1       2.489   4.090  20.747  0.00  0.00    +0.000 F 
ATOM     21  C   UNL     1       1.810   6.347  20.668  0.00  0.00    +0.000 A 
ENDBRANCH   8  15
BRANCH   5  22
ATOM     22  C   UNL     1       2.494  14.240  19.384  0.00  0.00    +0.000 C 
ATOM     23  C   UNL     1       3.643  14.647  20.321  0.00  0.00    +0.000 C 
ATOM     24  C   UNL     1       4.250  16.003  19.948  0.00  0.00    +0.000 C 
ATOM     25  C   UNL     1       4.726  16.058  18.491  0.00  0.00    +0.000 C 
ATOM     26  C   UNL     1       3.571  15.684  17.552  0.00  0.00    +0.000 C 
ATOM     27  C   UNL     1       2.937  14.339  17.909  0.00  0.00    +0.000 C 
BRANCH  25  28
ATOM     28  N   UNL     1       5.885  15.186  18.293  0.00  0.00    +0.000 N 
ATOM     29  C   UNL     1       7.168  15.597  18.556  0.00  0.00    +0.000 C 
ATOM     30  O   UNL     1       7.395  16.698  19.053  0.00  0.00    +0.000 OA
ATOM     31  N   UNL     1       8.178  14.690  18.240  0.00  0.00    +0.000 N 
ATOM     32  C   UNL     1       7.972  13.321  17.767  0.00  0.00    +0.000 C 
ATOM     33  H   UNL     1       5.776  14.466  17.600  0.00  0.00    +0.000 HD
BRANCH  31  34
ATOM     34  C   UNL     1       9.569  15.093  18.559  0.00  0.00    +0.000 C 
ATOM     35  C   UNL     1      10.208  14.131  19.567  0.00  0.00    +0.000 C 
ATOM     36  C   UNL     1      10.475  15.231  17.329  0.00  0.00    +0.000 C 
ENDBRANCH  31  34
ENDBRANCH  25  28
ENDBRANCH   5  22
BRANCH   1  38
ATOM     37  C   UNL     1      -1.187  15.278  24.829  0.00  0.00    +0.000 C 
ATOM     38  C   UNL     1      -1.701  14.124  23.966  0.00  0.00    +0.000 C 
ATOM     39  C   UNL     1      -3.231  14.090  24.031  0.00  0.00    +0.000 C 
ENDBRANCH   1  38
TORSDOF 5
ENDMDL
MODEL 2
REMARK VINA RESULT:      -7.6      2.493      3.355
REMARK  Name = 
REMARK  10 active torsions:
REMARK  status: ('A' for Active; 'I' for Inactive)
REMARK    1  A    between atoms: C_1  and  C_2
REMARK    2  A    between atoms: C_2  and  C_3
REMARK    3  A    between atoms: C_2  and  N_4
REMARK    4  A    between atoms: N_8  and  C_9
REMARK    5  A    between atoms: C_12  and  N_13
REMARK    6  A    between atoms: N_16  and  C_17
REMARK    7  A    between atoms: N_16  and  C_18
REMARK    8  A    between atoms: C_18  and  C_19
REMARK    9  A    between atoms: C_18  and  C_20
REMARK   10  A    between atoms: C_25  and  C_26
REMARK                            x       y       z     vdW  Elec       q    Type
REMARK                         _______ _______ _______ _____ _____    ______ ____
ROOT
ATOM      1  N   UNL     1       0.030  16.961  18.609  0.00  0.00    +0.000 N 
ATOM      2  C   UNL     1       0.480  15.660  18.793  0.00  0.00    +0.000 A 
ATOM      3  N   UNL     1       1.799  15.507  18.989  0.00  0.00    +0.000 NA
ATOM      4  C   UNL     1       2.270  14.255  19.130  0.00  0.00    +0.000 A 
ATOM      5  N   UNL     1       3.655  14.037  19.330  0.00  0.00    +0.000 N 
ATOM      6  C   UNL     1       1.418  13.132  19.099  0.00  0.00    +0.000 A 
ATOM      7  C   UNL     1       1.820  11.776  19.254  0.00  0.00    +0.000 A 
ATOM      8  C   UNL     1       0.904  10.707  19.243  0.00  0.00    +0.000 A 
ATOM      9  C   UNL     1      -0.444  11.043  19.077  0.00  0.00    +0.000 A 
ATOM     10  C   UNL     1      -0.843  12.375  18.907  0.00  0.00    +0.000 A 
ATOM     11  C   UNL     1       0.065  13.417  18.917  0.00  0.00    +0.000 A 
ATOM     12  N   UNL     1      -0.395  14.653  18.758  0.00  0.00    +0.000 NA
ATOM     13  H   UNL     1       0.778  17.551  18.954  0.00  0.00    +0.000 HD
ATOM     14  H   UNL     1       3.961  13.387  18.610  0.00  0.00    +0.000 HD
ENDROOT
BRANCH   8  15
ATOM     15  C   UNL     1       1.340   9.299  19.401  0.00  0.00    +0.000 A 
ATOM     16  C   UNL     1       1.078   8.576  20.583  0.00  0.00    +0.000 A 
ATOM     17  C   UNL     1       1.492   7.248  20.742  0.00  0.00    +0.000 A 
ATOM     18  C   UNL     1       2.165   6.605  19.710  0.00  0.00    +0.000 A 
ATOM     19  C   UNL     1       2.425   7.297  18.538  0.00  0.00    +0.000 A 
ATOM     20  F   UNL     1       3.069   6.682  17.537  0.00  0.00    +0.000 F 
ATOM     21  C   UNL     1       2.031   8.624  18.379  0.00  0.00    +0.000 A 
ENDBRANCH   8  15
BRANCH   5  22
ATOM     22  C   UNL     1       4.552  15.197  19.430  0.00  0.00    +0.000 C 
ATOM     23  C   UNL     1       5.361  15.114  20.735  0.00  0.00    +0.000 C 
ATOM     24  C   UNL     1       6.488  16.150  20.791  0.00  0.00    +0.000 C 
ATOM     25  C   UNL     1       7.435  16.060  19.588  0.00  0.00    +0.000 C 
ATOM     26  C   UNL     1       6.634  16.176  18.285  0.00  0.00    +0.000 C 
ATOM     27  C   UNL     1       5.493  15.161  18.207  0.00  0.00    +0.000 C 
BRANCH  25  28
ATOM     28  N   UNL     1       8.213  14.821  19.634  0.00  0.00    +0.000 N 
ATOM     29  C   UNL     1       9.502  14.744  19.166  0.00  0.00    +0.000 C 
ATOM     30  O   UNL     1      10.093  15.741  18.759  0.00  0.00    +0.000 OA
ATOM     31  N   UNL     1      10.088  13.479  19.196  0.00  0.00    +0.000 N 
ATOM     32  C   UNL     1       9.490  12.279  19.781  0.00  0.00    +0.000 C 
ATOM     33  H   UNL     1       7.679  13.970  19.625  0.00  0.00    +0.000 HD
BRANCH  31  34
ATOM     34  C   UNL     1      11.496  13.379  18.739  0.00  0.00    +0.000 C 
ATOM     35  C   UNL     1      12.290  12.394  19.604  0.00  0.00    +0.000 C 
ATOM     36  C   UNL     1      11.645  13.007  17.259  0.00  0.00    +0.000 C 
ENDBRANCH  31  34
ENDBRANCH  25  28
ENDBRANCH   5  22
BRANCH   1  38
ATOM     37  C   UNL     1      -1.169  17.682  20.594  0.00  0.00    +0.000 C 
ATOM     38  C   UNL     1      -1.304  17.252  19.132  0.00  0.00    +0.000 C 
ATOM     39  C   UNL     1      -1.975  18.376  18.337  0.00  0.00    +0.000 C 
ENDBRANCH   1  38
TORSDOF 5
ENDMDL
MODEL 3
REMARK VINA RESULT:      -7.5      1.145      1.397
REMARK  Name = 
REMARK  10 active torsions:
REMARK  status: ('A' for Active; 'I' for Inactive)
REMARK    1  A    between atoms: C_1  and  C_2
REMARK    2  A    between atoms: C_2  and  C_3
REMARK    3  A    between atoms: C_2  and  N_4
REMARK    4  A    between atoms: N_8  and  C_9
REMARK    5  A    between atoms: C_12  and  N_13
REMARK    6  A    between atoms: N_16  and  C_17
REMARK    7  A    between atoms: N_16  and  C_18
REMARK    8  A    between atoms: C_18  and  C_19
REMARK    9  A    between atoms: C_18  and  C_20
REMARK   10  A    between atoms: C_25  and  C_26
REMARK                            x       y       z     vdW  Elec       q    Type
REMARK                         _______ _______ _______ _____ _____    ______ ____
ROOT
ATOM      1  N   UNL     1      -1.597  13.675  22.345  0.00  0.00    +0.000 N 
ATOM      2  C   UNL     1      -0.785  12.714  21.758  0.00  0.00    +0.000 A 
ATOM      3  N   UNL     1       0.173  13.165  20.933  0.00  0.00    +0.000 NA
ATOM      4  C   UNL     1       0.950  12.256  20.318  0.00  0.00    +0.000 A 
ATOM      5  N   UNL     1       1.970  12.680  19.430  0.00  0.00    +0.000 N 
ATOM      6  C   UNL     1       0.793  10.873  20.539  0.00  0.00    +0.000 A 
ATOM      7  C   UNL     1       1.574   9.840  19.948  0.00  0.00    +0.000 A 
ATOM      8  C   UNL     1       1.378   8.478  20.242  0.00  0.00    +0.000 A 
ATOM      9  C   UNL     1       0.367   8.179  21.164  0.00  0.00    +0.000 A 
ATOM     10  C   UNL     1      -0.415   9.189  21.735  0.00  0.00    +0.000 A 
ATOM     11  C   UNL     1      -0.215  10.525  21.437  0.00  0.00    +0.000 A 
ATOM     12  N   UNL     1      -0.994  11.423  22.027  0.00  0.00    +0.000 NA
ATOM     13  H   UNL     1      -1.094  14.548  22.240  0.00  0.00    +0.000 HD
ATOM     14  H   UNL     1       1.812  12.201  18.546  0.00  0.00    +0.000 HD
ENDROOT
BRANCH   8  15
ATOM     15  C   UNL     1       2.197   7.413  19.615  0.00  0.00    +0.000 A 
ATOM     16  C   UNL     1       2.320   6.137  20.202  0.00  0.00    +0.000 A 
ATOM     17  C   UNL     1       3.097   5.130  19.618  0.00  0.00    +0.000 A 
ATOM     18  C   UNL     1       3.757   5.371  18.419  0.00  0.00    +0.000 A 
ATOM     19  C   UNL     1       3.642   6.618  17.824  0.00  0.00    +0.000 A 
ATOM     20  F   UNL     1       4.272   6.857  16.666  0.00  0.00    +0.000 F 
ATOM     21  C   UNL     1       2.884   7.631  18.408  0.00  0.00    +0.000 A 
ENDBRANCH   8  15
BRANCH   5  22
ATOM     22  C   UNL     1       2.192  14.119  19.235  0.00  0.00    +0.000 C 
ATOM     23  C   UNL     1       3.154  14.645  20.314  0.00  0.00    +0.000 C 
ATOM     24  C   UNL     1       3.626  16.073  20.030  0.00  0.00    +0.000 C 
ATOM     25  C   UNL     1       4.271  16.221  18.646  0.00  0.00    +0.000 C 
ATOM     26  C   UNL     1       3.300  15.727  17.565  0.00  0.00    +0.000 C 
ATOM     27  C   UNL     1       2.802  14.306  17.829  0.00  0.00    +0.000 C 
BRANCH  25  28
ATOM     28  N   UNL     1       5.547  15.505  18.592  0.00  0.00    +0.000 N 
ATOM     29  C   UNL     1       6.754  16.157  18.532  0.00  0.00    +0.000 C 
ATOM     30  O   UNL     1       6.821  17.381  18.606  0.00  0.00    +0.000 OA
ATOM     31  N   UNL     1       7.880  15.346  18.399  0.00  0.00    +0.000 N 
ATOM     32  C   UNL     1       7.883  13.884  18.432  0.00  0.00    +0.000 C 
ATOM     33  H   UNL     1       5.513  14.583  18.194  0.00  0.00    +0.000 HD
BRANCH  31  34
ATOM     34  C   UNL     1       9.199  16.025  18.380  0.00  0.00    +0.000 C 
ATOM     35  C   UNL     1       9.781  16.145  19.793  0.00  0.00    +0.000 C 
ATOM     36  C   UNL     1      10.225  15.366  17.451  0.00  0.00    +0.000 C 
ENDBRANCH  31  34
ENDBRANCH  25  28
ENDBRANCH   5  22
BRANCH   1  38
ATOM     37  C   UNL     1      -1.867  14.609  24.571  0.00  0.00    +0.000 C 
ATOM     38  C   UNL     1      -2.066  13.370  23.696  0.00  0.00    +0.000 C 
ATOM     39  C   UNL     1      -3.550  12.991  23.692  0.00  0.00    +0.000 C 
ENDBRANCH   1  38
TORSDOF 5
ENDMDL
MODEL 4
REMARK VINA RESULT:      -7.3      1.031      1.322
REMARK  Name = 
REMARK  10 active torsions:
REMARK  status: ('A' for Active; 'I' for Inactive)
REMARK    1  A    between atoms: C_1  and  C_2
REMARK    2  A    between atoms: C_2  and  C_3
REMARK    3  A    between atoms: C_2  and  N_4
REMARK    4  A    between atoms: N_8  and  C_9
REMARK    5  A    between atoms: C_12  and  N_13
REMARK    6  A    between atoms: N_16  and  C_17
REMARK    7  A    between atoms: N_16  and  C_18
REMARK    8  A    between atoms: C_18  and  C_19
REMARK    9  A    between atoms: C_18  and  C_20
REMARK   10  A    between atoms: C_25  and  C_26
REMARK                            x       y       z     vdW  Elec       q    Type
REMARK                         _______ _______ _______ _____ _____    ______ ____
ROOT
ATOM      1  N   UNL     1      -1.337  14.501  22.779  0.00  0.00    +0.000 N 
ATOM      2  C   UNL     1      -0.676  13.413  22.224  0.00  0.00    +0.000 A 
ATOM      3  N   UNL     1       0.307  13.692  21.353  0.00  0.00    +0.000 NA
ATOM      4  C   UNL     1       0.938  12.658  20.768  0.00  0.00    +0.000 A 
ATOM      5  N   UNL     1       1.977  12.898  19.836  0.00  0.00    +0.000 N 
ATOM      6  C   UNL     1       0.607  11.321  21.065  0.00  0.00    +0.000 A 
ATOM      7  C   UNL     1       1.225  10.165  20.511  0.00  0.00    +0.000 A 
ATOM      8  C   UNL     1       0.860   8.858  20.881  0.00  0.00    +0.000 A 
ATOM      9  C   UNL     1      -0.152   8.741  21.840  0.00  0.00    +0.000 A 
ATOM     10  C   UNL     1      -0.776   9.874  22.376  0.00  0.00    +0.000 A 
ATOM     11  C   UNL     1      -0.411  11.155  22.004  0.00  0.00    +0.000 A 
ATOM     12  N   UNL     1      -1.046  12.177  22.565  0.00  0.00    +0.000 NA
ATOM     13  H   UNL     1      -0.726  15.293  22.615  0.00  0.00    +0.000 HD
ATOM     14  H   UNL     1       1.731  12.402  18.982  0.00  0.00    +0.000 HD
ENDROOT
BRANCH   8  15
ATOM     15  C   UNL     1       1.513   7.664  20.291  0.00  0.00    +0.000 A 
ATOM     16  C   UNL     1       1.444   6.403  20.917  0.00  0.00    +0.000 A 
ATOM     17  C   UNL     1       2.062   5.273  20.368  0.00  0.00    +0.000 A 
ATOM     18  C   UNL     1       2.752   5.376  19.166  0.00  0.00    +0.000 A 
ATOM     19  C   UNL     1       2.824   6.607  18.532  0.00  0.00    +0.000 A 
ATOM     20  F   UNL     1       3.482   6.713  17.370  0.00  0.00    +0.000 F 
ATOM     21  C   UNL     1       2.224   7.739  19.081  0.00  0.00    +0.000 A 
ENDBRANCH   8  15
BRANCH   5  22
ATOM     22  C   UNL     1       2.382  14.283  19.560  0.00  0.00    +0.000 C 
ATOM     23  C   UNL     1       3.106  14.865  20.786  0.00  0.00    +0.000 C 
ATOM     24  C   UNL     1       3.772  16.211  20.487  0.00  0.00    +0.000 C 
ATOM     25  C   UNL     1       4.739  16.144  19.299  0.00  0.00    +0.000 C 
ATOM     26  C   UNL     1       4.009  15.595  18.066  0.00  0.00    +0.000 C 
ATOM     27  C   UNL     1       3.324  14.256  18.338  0.00  0.00    +0.000 C 
BRANCH  25  28
ATOM     28  N   UNL     1       5.914  15.336  19.633  0.00  0.00    +0.000 N 
ATOM     29  C   UNL     1       7.121  15.497  18.999  0.00  0.00    +0.000 C 
ATOM     30  O   UNL     1       7.293  16.390  18.173  0.00  0.00    +0.000 OA
ATOM     31  N   UNL     1       8.125  14.601  19.362  0.00  0.00    +0.000 N 
ATOM     32  C   UNL     1       8.028  13.600  20.424  0.00  0.00    +0.000 C 
ATOM     33  H   UNL     1       5.723  14.427  20.016  0.00  0.00    +0.000 HD
BRANCH  31  34
ATOM     34  C   UNL     1       9.453  14.784  18.725  0.00  0.00    +0.000 C 
ATOM     35  C   UNL     1      10.545  15.012  19.776  0.00  0.00    +0.000 C 
ATOM     36  C   UNL     1       9.860  13.636  17.794  0.00  0.00    +0.000 C 
ENDBRANCH  31  34
ENDBRANCH  25  28
ENDBRANCH   5  22
BRANCH   1  38
ATOM     37  C   UNL     1      -1.210  15.450  25.011  0.00  0.00    +0.000 C 
ATOM     38  C   UNL     1      -1.800  14.328  24.155  0.00  0.00    +0.000 C 
ATOM     39  C   UNL     1      -3.329  14.388  24.233  0.00  0.00    +0.000 C 
ENDBRANCH   1  38
TORSDOF 5
ENDMDL
MODEL 5
REMARK VINA RESULT:      -7.2      1.703      1.910
REMARK  Name = 
REMARK  10 active torsions:
REMARK  status: ('A' for Active; 'I' for Inactive)
REMARK    1  A    between atoms: C_1  and  C_2
REMARK    2  A    between atoms: C_2  and  C_3
REMARK    3  A    between atoms: C_2  and  N_4
REMARK    4  A    between atoms: N_8  and  C_9
REMARK    5  A    between atoms: C_12  and  N_13
REMARK    6  A    between atoms: N_16  and  C_17
REMARK    7  A    between atoms: N_16  and  C_18
REMARK    8  A    between atoms: C_18  and  C_19
REMARK    9  A    between atoms: C_18  and  C_20
REMARK   10  A    between atoms: C_25  and  C_26
REMARK                            x       y       z     vdW  Elec       q    Type
REMARK                         _______ _______ _______ _____ _____    ______ ____
ROOT
ATOM      1  N   UNL     1      -1.514  15.501  19.996  0.00  0.00    +0.000 N 
ATOM      2  C   UNL     1      -0.725  14.372  19.819  0.00  0.00    +0.000 A 
ATOM      3  N   UNL     1       0.592  14.581  19.669  0.00  0.00    +0.000 NA
ATOM      4  C   UNL     1       1.377  13.510  19.456  0.00  0.00    +0.000 A 
ATOM      5  N   UNL     1       2.772  13.677  19.283  0.00  0.00    +0.000 N 
ATOM      6  C   UNL     1       0.853  12.203  19.412  0.00  0.00    +0.000 A 
ATOM      7  C   UNL     1       1.603  11.010  19.207  0.00  0.00    +0.000 A 
ATOM      8  C   UNL     1       1.012   9.733  19.207  0.00  0.00    +0.000 A 
ATOM      9  C   UNL     1      -0.369   9.685  19.427  0.00  0.00    +0.000 A 
ATOM     10  C   UNL     1      -1.115  10.856  19.612  0.00  0.00    +0.000 A 
ATOM     11  C   UNL     1      -0.524  12.106  19.608  0.00  0.00    +0.000 A 
ATOM     12  N   UNL     1      -1.300  13.167  19.798  0.00  0.00    +0.000 NA
ATOM     13  H   UNL     1      -0.869  16.236  20.264  0.00  0.00    +0.000 HD
ATOM     14  H   UNL     1       3.018  13.233  18.400  0.00  0.00    +0.000 HD
ENDROOT
BRANCH   8  15
ATOM     15  C   UNL     1       1.807   8.501  18.988  0.00  0.00    +0.000 A 
ATOM     16  C   UNL     1       2.584   8.323  17.825  0.00  0.00    +0.000 A 
ATOM     17  C   UNL     1       3.332   7.159  17.610  0.00  0.00    +0.000 A 
ATOM     18  C   UNL     1       3.334   6.150  18.565  0.00  0.00    +0.000 A 
ATOM     19  C   UNL     1       2.582   6.311  19.718  0.00  0.00    +0.000 A 
ATOM     20  F   UNL     1       2.583   5.345  20.647  0.00  0.00    +0.000 F 
ATOM     21  C   UNL     1       1.823   7.459  19.932  0.00  0.00    +0.000 A 
ENDBRANCH   8  15
BRANCH   5  22
ATOM     22  C   UNL     1       3.348  15.025  19.389  0.00  0.00    +0.000 C 
ATOM     23  C   UNL     1       4.226  15.115  20.648  0.00  0.00    +0.000 C 
ATOM     24  C   UNL     1       5.052  16.403  20.694  0.00  0.00    +0.000 C 
ATOM     25  C   UNL     1       5.920  16.596  19.444  0.00  0.00    +0.000 C 
ATOM     26  C   UNL     1       5.040  16.540  18.188  0.00  0.00    +0.000 C 
ATOM     27  C   UNL     1       4.194  15.269  18.121  0.00  0.00    +0.000 C 
BRANCH  25  28
ATOM     28  N   UNL     1       6.990  15.598  19.398  0.00  0.00    +0.000 N 
ATOM     29  C   UNL     1       8.180  15.825  18.753  0.00  0.00    +0.000 C 
ATOM     30  O   UNL     1       8.435  16.918  18.253  0.00  0.00    +0.000 OA
ATOM     31  N   UNL     1       9.071  14.753  18.719  0.00  0.00    +0.000 N 
ATOM     32  C   UNL     1       8.885  13.473  19.401  0.00  0.00    +0.000 C 
ATOM     33  H   UNL     1       6.696  14.640  19.477  0.00  0.00    +0.000 HD
BRANCH  31  34
ATOM     34  C   UNL     1      10.383  14.990  18.069  0.00  0.00    +0.000 C 
ATOM     35  C   UNL     1      11.473  15.273  19.109  0.00  0.00    +0.000 C 
ATOM     36  C   UNL     1      10.833  13.853  17.143  0.00  0.00    +0.000 C 
ENDBRANCH  31  34
ENDBRANCH  25  28
ENDBRANCH   5  22
BRANCH   1  38
ATOM     37  C   UNL     1      -2.233  15.486  22.316  0.00  0.00    +0.000 C 
ATOM     38  C   UNL     1      -2.680  15.332  20.862  0.00  0.00    +0.000 C 
ATOM     39  C   UNL     1      -3.753  16.381  20.552  0.00  0.00    +0.000 C 
ENDBRANCH   1  38
TORSDOF 5
ENDMDL
MODEL 6
REMARK VINA RESULT:      -7.1      1.094      1.132
REMARK  Name = 
REMARK  10 active torsions:
REMARK  status: ('A' for Active; 'I' for Inactive)
REMARK    1  A    between atoms: C_1  and  C_2
REMARK    2  A    between atoms: C_2  and  C_3
REMARK    3  A    between atoms: C_2  and  N_4
REMARK    4  A    between atoms: N_8  and  C_9
REMARK    5  A    between atoms: C_12  and  N_13
REMARK    6  A    between atoms: N_16  and  C_17
REMARK    7  A    between atoms: N_16  and  C_18
REMARK    8  A    between atoms: C_18  and  C_19
REMARK    9  A    between atoms: C_18  and  C_20
REMARK   10  A    between atoms: C_25  and  C_26
REMARK                            x       y       z     vdW  Elec       q    Type
REMARK                         _______ _______ _______ _____ _____    ______ ____
ROOT
ATOM      1  N   UNL     1      -1.986  13.697  22.366  0.00  0.00    +0.000 N 
ATOM      2  C   UNL     1      -1.140  12.763  21.782  0.00  0.00    +0.000 A 
ATOM      3  N   UNL     1      -0.219  13.242  20.930  0.00  0.00    +0.000 NA
ATOM      4  C   UNL     1       0.588  12.357  20.318  0.00  0.00    +0.000 A 
ATOM      5  N   UNL     1       1.570  12.810  19.403  0.00  0.00    +0.000 N 
ATOM      6  C   UNL     1       0.499  10.973  20.568  0.00  0.00    +0.000 A 
ATOM      7  C   UNL     1       1.316   9.965  19.982  0.00  0.00    +0.000 A 
ATOM      8  C   UNL     1       1.188   8.602  20.306  0.00  0.00    +0.000 A 
ATOM      9  C   UNL     1       0.210   8.275  21.251  0.00  0.00    +0.000 A 
ATOM     10  C   UNL     1      -0.608   9.260  21.818  0.00  0.00    +0.000 A 
ATOM     11  C   UNL     1      -0.476  10.597  21.491  0.00  0.00    +0.000 A 
ATOM     12  N   UNL     1      -1.285  11.470  22.079  0.00  0.00    +0.000 NA
ATOM     13  H   UNL     1      -1.526  14.591  22.234  0.00  0.00    +0.000 HD
ATOM     14  H   UNL     1       1.419  12.307  18.531  0.00  0.00    +0.000 HD
ENDROOT
BRANCH   8  15
ATOM     15  C   UNL     1       2.045   7.564  19.683  0.00  0.00    +0.000 A 
ATOM     16  C   UNL     1       2.719   7.799  18.467  0.00  0.00    +0.000 A 
ATOM     17  C   UNL     1       3.524   6.821  17.871  0.00  0.00    +0.000 A 
ATOM     18  C   UNL     1       3.688   5.588  18.489  0.00  0.00    +0.000 A 
ATOM     19  C   UNL     1       3.039   5.341  19.688  0.00  0.00    +0.000 A 
ATOM     20  F   UNL     1       3.196   4.156  20.293  0.00  0.00    +0.000 F 
ATOM     21  C   UNL     1       2.223   6.304  20.280  0.00  0.00    +0.000 A 
ENDBRANCH   8  15
BRANCH   5  22
ATOM     22  C   UNL     1       1.722  14.253  19.176  0.00  0.00    +0.000 C 
ATOM     23  C   UNL     1       2.354  14.908  20.416  0.00  0.00    +0.000 C 
ATOM     24  C   UNL     1       2.770  16.360  20.163  0.00  0.00    +0.000 C 
ATOM     25  C   UNL     1       3.714  16.505  18.963  0.00  0.00    +0.000 C 
ATOM     26  C   UNL     1       3.072  15.882  17.717  0.00  0.00    +0.000 C 
ATOM     27  C   UNL     1       2.635  14.434  17.945  0.00  0.00    +0.000 C 
BRANCH  25  28
ATOM     28  N   UNL     1       5.017  15.905  19.256  0.00  0.00    +0.000 N 
ATOM     29  C   UNL     1       6.197  16.582  19.070  0.00  0.00    +0.000 C 
ATOM     30  O   UNL     1       6.208  17.761  18.725  0.00  0.00    +0.000 OA
ATOM     31  N   UNL     1       7.362  15.855  19.309  0.00  0.00    +0.000 N 
ATOM     32  C   UNL     1       7.420  14.494  19.841  0.00  0.00    +0.000 C 
ATOM     33  H   UNL     1       5.058  14.903  19.196  0.00  0.00    +0.000 HD
BRANCH  31  34
ATOM     34  C   UNL     1       8.649  16.579  19.161  0.00  0.00    +0.000 C 
ATOM     35  C   UNL     1       9.542  16.379  20.390  0.00  0.00    +0.000 C 
ATOM     36  C   UNL     1       9.426  16.213  17.891  0.00  0.00    +0.000 C 
ENDBRANCH  31  34
ENDBRANCH  25  28
ENDBRANCH   5  22
BRANCH   1  38
ATOM     37  C   UNL     1      -2.050  14.583  24.626  0.00  0.00    +0.000 C 
ATOM     38  C   UNL     1      -2.416  13.398  23.731  0.00  0.00    +0.000 C 
ATOM     39  C   UNL     1      -3.929  13.169  23.794  0.00  0.00    +0.000 C 
ENDBRANCH   1  38
TORSDOF 5
ENDMDL
MODEL 7
REMARK VINA RESULT:      -7.1      1.885      2.202
REMARK  Name = 
REMARK  10 active torsions:
REMARK  status: ('A' for Active; 'I' for Inactive)
REMARK    1  A    between atoms: C_1  and  C_2
REMARK    2  A    between atoms: C_2  and  C_3
REMARK    3  A    between atoms: C_2  and  N_4
REMARK    4  A    between atoms: N_8  and  C_9
REMARK    5  A    between atoms: C_12  and  N_13
REMARK    6  A    between atoms: N_16  and  C_17
REMARK    7  A    between atoms: N_16  and  C_18
REMARK    8  A    between atoms: C_18  and  C_19
REMARK    9  A    between atoms: C_18  and  C_20
REMARK   10  A    between atoms: C_25  and  C_26
REMARK                            x       y       z     vdW  Elec       q    Type
REMARK                         _______ _______ _______ _____ _____    ______ ____
ROOT
ATOM      1  N   UNL     1      -1.595  15.512  19.970  0.00  0.00    +0.000 N 
ATOM      2  C   UNL     1      -0.793  14.391  19.802  0.00  0.00    +0.000 A 
ATOM      3  N   UNL     1       0.522  14.614  19.646  0.00  0.00    +0.000 NA
ATOM      4  C   UNL     1       1.318  13.550  19.440  0.00  0.00    +0.000 A 
ATOM      5  N   UNL     1       2.711  13.732  19.261  0.00  0.00    +0.000 N 
ATOM      6  C   UNL     1       0.810  12.236  19.409  0.00  0.00    +0.000 A 
ATOM      7  C   UNL     1       1.573  11.051  19.213  0.00  0.00    +0.000 A 
ATOM      8  C   UNL     1       0.997   9.767  19.227  0.00  0.00    +0.000 A 
ATOM      9  C   UNL     1      -0.383   9.705  19.451  0.00  0.00    +0.000 A 
ATOM     10  C   UNL     1      -1.141  10.868  19.627  0.00  0.00    +0.000 A 
ATOM     11  C   UNL     1      -0.566  12.125  19.610  0.00  0.00    +0.000 A 
ATOM     12  N   UNL     1      -1.353  13.179  19.793  0.00  0.00    +0.000 NA
ATOM     13  H   UNL     1      -0.957  16.257  20.229  0.00  0.00    +0.000 HD
ATOM     14  H   UNL     1       2.959  13.283  18.382  0.00  0.00    +0.000 HD
ENDROOT
BRANCH   8  15
ATOM     15  C   UNL     1       1.806   8.542  19.017  0.00  0.00    +0.000 A 
ATOM     16  C   UNL     1       1.773   7.472  19.935  0.00  0.00    +0.000 A 
ATOM     17  C   UNL     1       2.539   6.316  19.747  0.00  0.00    +0.000 A 
ATOM     18  C   UNL     1       3.345   6.195  18.621  0.00  0.00    +0.000 A 
ATOM     19  C   UNL     1       3.384   7.233  17.704  0.00  0.00    +0.000 A 
ATOM     20  F   UNL     1       4.155   7.122  16.613  0.00  0.00    +0.000 F 
ATOM     21  C   UNL     1       2.637   8.394  17.893  0.00  0.00    +0.000 A 
ENDBRANCH   8  15
BRANCH   5  22
ATOM     22  C   UNL     1       3.271  15.088  19.353  0.00  0.00    +0.000 C 
ATOM     23  C   UNL     1       4.360  15.124  20.438  0.00  0.00    +0.000 C 
ATOM     24  C   UNL     1       5.157  16.432  20.422  0.00  0.00    +0.000 C 
ATOM     25  C   UNL     1       5.780  16.730  19.053  0.00  0.00    +0.000 C 
ATOM     26  C   UNL     1       4.690  16.726  17.974  0.00  0.00    +0.000 C 
ATOM     27  C   UNL     1       3.869  15.436  17.974  0.00  0.00    +0.000 C 
BRANCH  25  28
ATOM     28  N   UNL     1       6.843  15.769  18.748  0.00  0.00    +0.000 N 
ATOM     29  C   UNL     1       8.165  16.134  18.676  0.00  0.00    +0.000 C 
ATOM     30  O   UNL     1       8.527  17.276  18.948  0.00  0.00    +0.000 OA
ATOM     31  N   UNL     1       9.054  15.131  18.294  0.00  0.00    +0.000 N 
ATOM     32  C   UNL     1       8.710  13.726  18.080  0.00  0.00    +0.000 C 
ATOM     33  H   UNL     1       6.566  14.970  18.207  0.00  0.00    +0.000 HD
BRANCH  31  34
ATOM     34  C   UNL     1      10.494  15.488  18.255  0.00  0.00    +0.000 C 
ATOM     35  C   UNL     1      11.227  14.974  19.499  0.00  0.00    +0.000 C 
ATOM     36  C   UNL     1      11.220  15.010  16.992  0.00  0.00    +0.000 C 
ENDBRANCH  31  34
ENDBRANCH  25  28
ENDBRANCH   5  22
BRANCH   1  38
ATOM     37  C   UNL     1      -2.305  15.504  22.293  0.00  0.00    +0.000 C 
ATOM     38  C   UNL     1      -2.756  15.337  20.841  0.00  0.00    +0.000 C 
ATOM     39  C   UNL     1      -3.839  16.374  20.529  0.00  0.00    +0.000 C 
ENDBRANCH   1  38
TORSDOF 5
ENDMDL
MODEL 8
REMARK VINA RESULT:      -7.0      1.036      1.088
REMARK  Name = 
REMARK  10 active torsions:
REMARK  status: ('A' for Active; 'I' for Inactive)
REMARK    1  A    between atoms: C_1  and  C_2
REMARK    2  A    between atoms: C_2  and  C_3
REMARK    3  A    between atoms: C_2  and  N_4
REMARK    4  A    between atoms: N_8  and  C_9
REMARK    5  A    between atoms: C_12  and  N_13
REMARK    6  A    between atoms: N_16  and  C_17
REMARK    7  A    between atoms: N_16  and  C_18
REMARK    8  A    between atoms: C_18  and  C_19
REMARK    9  A    between atoms: C_18  and  C_20
REMARK   10  A    between atoms: C_25  and  C_26
REMARK                            x       y       z     vdW  Elec       q    Type
REMARK                         _______ _______ _______ _____ _____    ______ ____
ROOT
ATOM      1  N   UNL     1      -1.856  14.647  21.528  0.00  0.00    +0.000 N 
ATOM      2  C   UNL     1      -1.017  13.647  21.054  0.00  0.00    +0.000 A 
ATOM      3  N   UNL     1       0.083  14.051  20.399  0.00  0.00    +0.000 NA
ATOM      4  C   UNL     1       0.894  13.104  19.893  0.00  0.00    +0.000 A 
ATOM      5  N   UNL     1       2.063  13.478  19.187  0.00  0.00    +0.000 N 
ATOM      6  C   UNL     1       0.625  11.731  20.055  0.00  0.00    +0.000 A 
ATOM      7  C   UNL     1       1.428  10.660  19.571  0.00  0.00    +0.000 A 
ATOM      8  C   UNL     1       1.110   9.309  19.800  0.00  0.00    +0.000 A 
ATOM      9  C   UNL     1      -0.049   9.059  20.544  0.00  0.00    +0.000 A 
ATOM     10  C   UNL     1      -0.853  10.107  21.008  0.00  0.00    +0.000 A 
ATOM     11  C   UNL     1      -0.531  11.432  20.775  0.00  0.00    +0.000 A 
ATOM     12  N   UNL     1      -1.341  12.368  21.257  0.00  0.00    +0.000 NA
ATOM     13  H   UNL     1      -1.293  15.490  21.522  0.00  0.00    +0.000 HD
ATOM     14  H   UNL     1       2.020  13.021  18.278  0.00  0.00    +0.000 HD
ENDROOT
BRANCH   8  15
ATOM     15  C   UNL     1       1.955   8.205  19.285  0.00  0.00    +0.000 A 
ATOM     16  C   UNL     1       2.576   8.282  18.021  0.00  0.00    +0.000 A 
ATOM     17  C   UNL     1       3.370   7.242  17.526  0.00  0.00    +0.000 A 
ATOM     18  C   UNL     1       3.578   6.103  18.294  0.00  0.00    +0.000 A 
ATOM     19  C   UNL     1       2.982   6.012  19.542  0.00  0.00    +0.000 A 
ATOM     20  F   UNL     1       3.181   4.920  20.292  0.00  0.00    +0.000 F 
ATOM     21  C   UNL     1       2.176   7.037  20.035  0.00  0.00    +0.000 A 
ENDBRANCH   8  15
BRANCH   5  22
ATOM     22  C   UNL     1       2.397  14.903  19.062  0.00  0.00    +0.000 C 
ATOM     23  C   UNL     1       3.354  15.312  20.194  0.00  0.00    +0.000 C 
ATOM     24  C   UNL     1       3.938  16.712  19.989  0.00  0.00    +0.000 C 
ATOM     25  C   UNL     1       4.643  16.868  18.635  0.00  0.00    +0.000 C 
ATOM     26  C   UNL     1       3.679  16.492  17.502  0.00  0.00    +0.000 C 
ATOM     27  C   UNL     1       3.070  15.102  17.687  0.00  0.00    +0.000 C 
BRANCH  25  28
ATOM     28  N   UNL     1       5.865  16.062  18.593  0.00  0.00    +0.000 N 
ATOM     29  C   UNL     1       7.117  16.626  18.595  0.00  0.00    +0.000 C 
ATOM     30  O   UNL     1       7.270  17.839  18.718  0.00  0.00    +0.000 OA
ATOM     31  N   UNL     1       8.185  15.740  18.466  0.00  0.00    +0.000 N 
ATOM     32  C   UNL     1       8.081  14.281  18.443  0.00  0.00    +0.000 C 
ATOM     33  H   UNL     1       5.778  15.160  18.159  0.00  0.00    +0.000 HD
BRANCH  31  34
ATOM     34  C   UNL     1       9.550  16.320  18.513  0.00  0.00    +0.000 C 
ATOM     35  C   UNL     1      10.332  15.799  19.724  0.00  0.00    +0.000 C 
ATOM     36  C   UNL     1      10.366  16.097  17.234  0.00  0.00    +0.000 C 
ENDBRANCH  31  34
ENDBRANCH  25  28
ENDBRANCH   5  22
BRANCH   1  38
ATOM     37  C   UNL     1      -1.513  14.274  23.903  0.00  0.00    +0.000 C 
ATOM     38  C   UNL     1      -2.550  14.354  22.781  0.00  0.00    +0.000 C 
ATOM     39  C   UNL     1      -3.569  15.446  23.115  0.00  0.00    +0.000 C 
ENDBRANCH   1  38
TORSDOF 5
ENDMDL
MODEL 9
REMARK VINA RESULT:      -6.8      4.460      8.060
REMARK  Name = 
REMARK  10 active torsions:
REMARK  status: ('A' for Active; 'I' for Inactive)
REMARK    1  A    between atoms: C_1  and  C_2
REMARK    2  A    between atoms: C_2  and  C_3
REMARK    3  A    between atoms: C_2  and  N_4
REMARK    4  A    between atoms: N_8  and  C_9
REMARK    5  A    between atoms: C_12  and  N_13
REMARK    6  A    between atoms: N_16  and  C_17
REMARK    7  A    between atoms: N_16  and  C_18
REMARK    8  A    between atoms: C_18  and  C_19
REMARK    9  A    between atoms: C_18  and  C_20
REMARK   10  A    between atoms: C_25  and  C_26
REMARK                            x       y       z     vdW  Elec       q    Type
REMARK                         _______ _______ _______ _____ _____    ______ ____
ROOT
ATOM      1  N   UNL     1      -3.176  11.160  18.836  0.00  0.00    +0.000 N 
ATOM      2  C   UNL     1      -1.881  11.661  18.856  0.00  0.00    +0.000 A 
ATOM      3  N   UNL     1      -0.891  10.755  18.926  0.00  0.00    +0.000 NA
ATOM      4  C   UNL     1       0.372  11.212  18.987  0.00  0.00    +0.000 A 
ATOM      5  N   UNL     1       1.452  10.299  19.071  0.00  0.00    +0.000 N 
ATOM      6  C   UNL     1       0.667  12.589  18.957  0.00  0.00    +0.000 A 
ATOM      7  C   UNL     1       1.968  13.165  19.002  0.00  0.00    +0.000 A 
ATOM      8  C   UNL     1       2.186  14.554  18.935  0.00  0.00    +0.000 A 
ATOM      9  C   UNL     1       1.048  15.358  18.814  0.00  0.00    +0.000 A 
ATOM     10  C   UNL     1      -0.236  14.799  18.787  0.00  0.00    +0.000 A 
ATOM     11  C   UNL     1      -0.439  13.432  18.855  0.00  0.00    +0.000 A 
ATOM     12  N   UNL     1      -1.687  12.981  18.815  0.00  0.00    +0.000 NA
ATOM     13  H   UNL     1      -3.078  10.182  18.586  0.00  0.00    +0.000 HD
ATOM     14  H   UNL     1       1.996  10.556  19.891  0.00  0.00    +0.000 HD
ENDROOT
BRANCH   8  15
ATOM     15  C   UNL     1       3.548  15.137  18.987  0.00  0.00    +0.000 A 
ATOM     16  C   UNL     1       3.893  16.116  19.942  0.00  0.00    +0.000 A 
ATOM     17  C   UNL     1       5.175  16.676  19.992  0.00  0.00    +0.000 A 
ATOM     18  C   UNL     1       6.151  16.255  19.097  0.00  0.00    +0.000 A 
ATOM     19  C   UNL     1       5.832  15.288  18.156  0.00  0.00    +0.000 A 
ATOM     20  F   UNL     1       6.769  14.873  17.292  0.00  0.00    +0.000 F 
ATOM     21  C   UNL     1       4.553  14.738  18.089  0.00  0.00    +0.000 A 
ENDBRANCH   8  15
BRANCH   5  22
ATOM     22  C   UNL     1       1.170   8.857  19.039  0.00  0.00    +0.000 C 
ATOM     23  C   UNL     1       1.460   8.304  17.634  0.00  0.00    +0.000 C 
ATOM     24  C   UNL     1       1.428   6.773  17.590  0.00  0.00    +0.000 C 
ATOM     25  C   UNL     1       2.381   6.131  18.605  0.00  0.00    +0.000 C 
ATOM     26  C   UNL     1       2.072   6.656  20.013  0.00  0.00    +0.000 C 
ATOM     27  C   UNL     1       2.085   8.184  20.085  0.00  0.00    +0.000 C 
BRANCH  25  28
ATOM     28  N   UNL     1       3.776   6.377  18.232  0.00  0.00    +0.000 N 
ATOM     29  C   UNL     1       4.795   5.536  18.603  0.00  0.00    +0.000 C 
ATOM     30  O   UNL     1       4.570   4.486  19.200  0.00  0.00    +0.000 OA
ATOM     31  N   UNL     1       6.081   5.941  18.250  0.00  0.00    +0.000 N 
ATOM     32  C   UNL     1       6.409   7.109  17.433  0.00  0.00    +0.000 C 
ATOM     33  H   UNL     1       4.021   7.338  18.070  0.00  0.00    +0.000 HD
BRANCH  31  34
ATOM     34  C   UNL     1       7.195   5.026  18.599  0.00  0.00    +0.000 C 
ATOM     35  C   UNL     1       7.849   4.443  17.341  0.00  0.00    +0.000 C 
ATOM     36  C   UNL     1       8.267   5.662  19.492  0.00  0.00    +0.000 C 
ENDBRANCH  31  34
ENDBRANCH  25  28
ENDBRANCH   5  22
BRANCH   1  38
ATOM     37  C   UNL     1      -4.295  11.252  16.682  0.00  0.00    +0.000 C 
ATOM     38  C   UNL     1      -4.141  11.925  18.048  0.00  0.00    +0.000 C 
ATOM     39  C   UNL     1      -5.505  11.973  18.742  0.00  0.00    +0.000 C 
ENDBRANCH   1  38
TORSDOF 5
ENDMDL
