MODEL 1
REMARK VINA RESULT:      -7.5      0.000      0.000
REMARK  Name = 
REMARK  15 active torsions:
REMARK  status: ('A' for Active; 'I' for Inactive)
REMARK    1  A    between atoms: C_1  and  C_2
REMARK    2  A    between atoms: C_2  and  C_3
REMARK    3  A    between atoms: C_3  and  C_4
REMARK    4  A    between atoms: N_6  and  C_7
REMARK    5  A    between atoms: N_10  and  C_11
REMARK    6  A    between atoms: C_11  and  C_12
REMARK    7  A    between atoms: C_11  and  C_13
REMARK    8  A    between atoms: C_15  and  C_16
REMARK    9  A    between atoms: C_17  and  C_18
REMARK   10  A    between atoms: C_20  and  O_21
REMARK   11  A    between atoms: O_21  and  C_22
REMARK   12  A    between atoms: C_23  and  O_24
REMARK   13  A    between atoms: O_24  and  C_25
REMARK   14  A    between atoms: C_26  and  O_27
REMARK   15  A    between atoms: O_27  and  C_28
REMARK                            x       y       z     vdW  Elec       q    Type
REMARK                         _______ _______ _______ _____ _____    ______ ____
ROOT
ATOM      1  C   UNL     1      -2.106  10.878  18.335  0.00  0.00    +0.000 A 
ATOM      2  N   UNL     1      -2.599  12.044  18.771  0.00  0.00    +0.000 NA
ATOM      3  N   UNL     1      -1.495  12.750  19.114  0.00  0.00    +0.000 N 
ATOM      4  C   UNL     1      -1.682  14.075  19.653  0.00  0.00    +0.000 C 
ATOM      5  C   UNL     1      -0.313  12.080  18.926  0.00  0.00    +0.000 A 
ATOM      6  C   UNL     1       1.044  12.363  19.090  0.00  0.00    +0.000 A 
ATOM      7  N   UNL     1       1.536  13.603  19.473  0.00  0.00    +0.000 N 
ATOM      8  N   UNL     1       1.906  11.356  18.785  0.00  0.00    +0.000 NA
ATOM      9  C   UNL     1       1.427  10.179  18.321  0.00  0.00    +0.000 A 
ATOM     10  N   UNL     1       0.149   9.855  18.133  0.00  0.00    +0.000 NA
ATOM     11  C   UNL     1      -0.703  10.841  18.448  0.00  0.00    +0.000 A 
ATOM     12  H   UNL     1       0.853  14.289  19.761  0.00  0.00    +0.000 HD
ENDROOT
BRANCH   7  13
ATOM     13  C   UNL     1       2.792  13.652  20.218  0.00  0.00    +0.000 C 
ATOM     14  C   UNL     1       3.813  14.454  19.411  0.00  0.00    +0.000 C 
ATOM     15  C   UNL     1       2.540  14.325  21.567  0.00  0.00    +0.000 C 
ENDBRANCH   7  13
BRANCH   9  16
ATOM     16  C   UNL     1       2.357   9.122  17.922  0.00  0.00    +0.000 C 
ATOM     17  C   UNL     1       2.183   7.808  18.103  0.00  0.00    +0.000 C 
BRANCH  17  18
ATOM     18  C   UNL     1       3.206   6.811  17.754  0.00  0.00    +0.000 A 
ATOM     19  C   UNL     1       4.450   7.277  17.333  0.00  0.00    +0.000 A 
ATOM     20  C   UNL     1       5.469   6.388  16.982  0.00  0.00    +0.000 A 
ATOM     21  C   UNL     1       5.242   4.994  17.031  0.00  0.00    +0.000 A 
ATOM     22  C   UNL     1       3.987   4.511  17.460  0.00  0.00    +0.000 A 
ATOM     23  C   UNL     1       2.991   5.429  17.830  0.00  0.00    +0.000 A 
BRANCH  20  24
ATOM     24  O   UNL     1       6.704   6.813  16.546  0.00  0.00    +0.000 OA
ATOM     25  C   UNL     1       7.561   7.370  17.539  0.00  0.00    +0.000 C 
ENDBRANCH  20  24
BRANCH  21  26
ATOM     26  O   UNL     1       6.285   4.220  16.574  0.00  0.00    +0.000 OA
ATOM     27  C   UNL     1       6.249   3.797  15.219  0.00  0.00    +0.000 C 
ENDBRANCH  21  26
BRANCH  22  28
ATOM     28  O   UNL     1       3.786   3.155  17.471  0.00  0.00    +0.000 OA
ATOM     29  C   UNL     1       3.816   2.470  18.717  0.00  0.00    +0.000 C 
ENDBRANCH  22  28
ENDBRANCH  17  18
ENDBRANCH   9  16
BRANCH   1  30
ATOM     30  C   UNL     1      -2.976   9.805  17.776  0.00  0.00    +0.000 C 
BRANCH  30  32
ATOM     31  C   UNL     1      -3.043  10.920  15.476  0.00  0.00    +0.000 C 
ATOM     32  C   UNL     1      -2.839   9.630  16.262  0.00  0.00    +0.000 C 
ENDBRANCH  30  32
ENDBRANCH   1  30
TORSDOF 8
ENDMDL
MODEL 2
REMARK VINA RESULT:      -7.2      0.400      2.212
REMARK  Name = 
REMARK  15 active torsions:
REMARK  status: ('A' for Active; 'I' for Inactive)
REMARK    1  A    between atoms: C_1  and  C_2
REMARK    2  A    between atoms: C_2  and  C_3
REMARK    3  A    between atoms: C_3  and  C_4
REMARK    4  A    between atoms: N_6  and  C_7
REMARK    5  A    between atoms: N_10  and  C_11
REMARK    6  A    between atoms: C_11  and  C_12
REMARK    7  A    between atoms: C_11  and  C_13
REMARK    8  A    between atoms: C_15  and  C_16
REMARK    9  A    between atoms: C_17  and  C_18
REMARK   10  A    between atoms: C_20  and  O_21
REMARK   11  A    between atoms: O_21  and  C_22
REMARK   12  A    between atoms: C_23  and  O_24
REMARK   13  A    between atoms: O_24  and  C_25
REMARK   14  A    between atoms: C_26  and  O_27
REMARK   15  A    between atoms: O_27  and  C_28
REMARK                            x       y       z     vdW  Elec       q    Type
REMARK                         _______ _______ _______ _____ _____    ______ ____
ROOT
ATOM      1  C   UNL     1      -2.351  11.070  18.462  0.00  0.00    +0.000 A 
ATOM      2  N   UNL     1      -2.789  12.228  18.972  0.00  0.00    +0.000 NA
ATOM      3  N   UNL     1      -1.650  12.882  19.304  0.00  0.00    +0.000 N 
ATOM      4  C   UNL     1      -1.774  14.184  19.913  0.00  0.00    +0.000 C 
ATOM      5  C   UNL     1      -0.499  12.185  19.038  0.00  0.00    +0.000 A 
ATOM      6  C   UNL     1       0.872  12.418  19.162  0.00  0.00    +0.000 A 
ATOM      7  N   UNL     1       1.418  13.622  19.584  0.00  0.00    +0.000 N 
ATOM      8  N   UNL     1       1.688  11.402  18.776  0.00  0.00    +0.000 NA
ATOM      9  C   UNL     1       1.154  10.264  18.276  0.00  0.00    +0.000 A 
ATOM     10  N   UNL     1      -0.140   9.988  18.123  0.00  0.00    +0.000 NA
ATOM     11  C   UNL     1      -0.947  10.984  18.518  0.00  0.00    +0.000 A 
ATOM     12  H   UNL     1       0.769  14.314  19.931  0.00  0.00    +0.000 HD
ENDROOT
BRANCH   7  13
ATOM     13  C   UNL     1       2.703  13.596  20.281  0.00  0.00    +0.000 C 
ATOM     14  C   UNL     1       3.773  14.187  19.363  0.00  0.00    +0.000 C 
ATOM     15  C   UNL     1       2.588  14.425  21.560  0.00  0.00    +0.000 C 
ENDBRANCH   7  13
BRANCH   9  16
ATOM     16  C   UNL     1       2.033   9.199  17.791  0.00  0.00    +0.000 C 
ATOM     17  C   UNL     1       2.259   8.026  18.392  0.00  0.00    +0.000 C 
BRANCH  17  18
ATOM     18  C   UNL     1       3.227   7.042  17.886  0.00  0.00    +0.000 A 
ATOM     19  C   UNL     1       2.846   5.701  17.879  0.00  0.00    +0.000 A 
ATOM     20  C   UNL     1       3.715   4.710  17.415  0.00  0.00    +0.000 A 
ATOM     21  C   UNL     1       5.009   5.056  16.963  0.00  0.00    +0.000 A 
ATOM     22  C   UNL     1       5.403   6.411  16.962  0.00  0.00    +0.000 A 
ATOM     23  C   UNL     1       4.499   7.387  17.411  0.00  0.00    +0.000 A 
BRANCH  20  24
ATOM     24  O   UNL     1       3.378   3.375  17.410  0.00  0.00    +0.000 OA
ATOM     25  C   UNL     1       3.265   2.754  18.688  0.00  0.00    +0.000 C 
ENDBRANCH  20  24
BRANCH  21  26
ATOM     26  O   UNL     1       5.807   3.988  16.620  0.00  0.00    +0.000 OA
ATOM     27  C   UNL     1       6.084   3.787  15.241  0.00  0.00    +0.000 C 
ENDBRANCH  21  26
BRANCH  22  28
ATOM     28  O   UNL     1       6.673   6.714  16.545  0.00  0.00    +0.000 OA
ATOM     29  C   UNL     1       7.637   7.099  17.517  0.00  0.00    +0.000 C 
ENDBRANCH  22  28
ENDBRANCH  17  18
ENDBRANCH   9  16
BRANCH   1  30
ATOM     30  C   UNL     1      -3.276  10.052  17.887  0.00  0.00    +0.000 C 
BRANCH  30  32
ATOM     31  C   UNL     1      -2.704  10.107  15.396  0.00  0.00    +0.000 C 
ATOM     32  C   UNL     1      -3.749  10.384  16.470  0.00  0.00    +0.000 C 
ENDBRANCH  30  32
ENDBRANCH   1  30
TORSDOF 8
ENDMDL
MODEL 3
REMARK VINA RESULT:      -7.2      0.695      4.021
REMARK  Name = 
REMARK  15 active torsions:
REMARK  status: ('A' for Active; 'I' for Inactive)
REMARK    1  A    between atoms: C_1  and  C_2
REMARK    2  A    between atoms: C_2  and  C_3
REMARK    3  A    between atoms: C_3  and  C_4
REMARK    4  A    between atoms: N_6  and  C_7
REMARK    5  A    between atoms: N_10  and  C_11
REMARK    6  A    between atoms: C_11  and  C_12
REMARK    7  A    between atoms: C_11  and  C_13
REMARK    8  A    between atoms: C_15  and  C_16
REMARK    9  A    between atoms: C_17  and  C_18
REMARK   10  A    between atoms: C_20  and  O_21
REMARK   11  A    between atoms: O_21  and  C_22
REMARK   12  A    between atoms: C_23  and  O_24
REMARK   13  A    between atoms: O_24  and  C_25
REMARK   14  A    between atoms: C_26  and  O_27
REMARK   15  A    between atoms: O_27  and  C_28
REMARK                            x       y       z     vdW  Elec       q    Type
REMARK                         _______ _______ _______ _____ _____    ______ ____
ROOT
ATOM      1  C   UNL     1       1.566  13.236  19.965  0.00  0.00    +0.000 A 
ATOM      2  N   UNL     1       0.478  13.959  20.258  0.00  0.00    +0.000 NA
ATOM      3  N   UNL     1      -0.544  13.199  19.796  0.00  0.00    +0.000 N 
ATOM      4  C   UNL     1      -1.885  13.713  19.940  0.00  0.00    +0.000 C 
ATOM      5  C   UNL     1      -0.155  12.023  19.207  0.00  0.00    +0.000 A 
ATOM      6  C   UNL     1      -0.794  10.927  18.625  0.00  0.00    +0.000 A 
ATOM      7  N   UNL     1      -2.171  10.763  18.587  0.00  0.00    +0.000 N 
ATOM      8  N   UNL     1       0.019   9.953  18.134  0.00  0.00    +0.000 NA
ATOM      9  C   UNL     1       1.360  10.072  18.257  0.00  0.00    +0.000 A 
ATOM     10  N   UNL     1       2.026  11.084  18.811  0.00  0.00    +0.000 NA
ATOM     11  C   UNL     1       1.227  12.052  19.282  0.00  0.00    +0.000 A 
ATOM     12  H   UNL     1      -2.726  11.549  18.895  0.00  0.00    +0.000 HD
ENDROOT
BRANCH   7  13
ATOM     13  C   UNL     1      -2.751  10.012  17.476  0.00  0.00    +0.000 C 
ATOM     14  C   UNL     1      -4.222   9.732  17.785  0.00  0.00    +0.000 C 
ATOM     15  C   UNL     1      -2.630  10.845  16.200  0.00  0.00    +0.000 C 
ENDBRANCH   7  13
BRANCH   9  16
ATOM     16  C   UNL     1       2.232   8.990  17.797  0.00  0.00    +0.000 C 
ATOM     17  C   UNL     1       2.267   7.744  18.282  0.00  0.00    +0.000 C 
BRANCH  17  18
ATOM     18  C   UNL     1       3.235   6.736  17.827  0.00  0.00    +0.000 A 
ATOM     19  C   UNL     1       4.487   7.181  17.407  0.00  0.00    +0.000 A 
ATOM     20  C   UNL     1       5.457   6.280  16.958  0.00  0.00    +0.000 A 
ATOM     21  C   UNL     1       5.169   4.897  16.905  0.00  0.00    +0.000 A 
ATOM     22  C   UNL     1       3.906   4.435  17.332  0.00  0.00    +0.000 A 
ATOM     23  C   UNL     1       2.962   5.362  17.801  0.00  0.00    +0.000 A 
BRANCH  20  24
ATOM     24  O   UNL     1       6.697   6.686  16.520  0.00  0.00    +0.000 OA
ATOM     25  C   UNL     1       7.500   7.380  17.471  0.00  0.00    +0.000 C 
ENDBRANCH  20  24
BRANCH  21  26
ATOM     26  O   UNL     1       6.165   4.119  16.359  0.00  0.00    +0.000 OA
ATOM     27  C   UNL     1       6.096   3.838  14.968  0.00  0.00    +0.000 C 
ENDBRANCH  21  26
BRANCH  22  28
ATOM     28  O   UNL     1       3.645   3.092  17.243  0.00  0.00    +0.000 OA
ATOM     29  C   UNL     1       2.608   2.544  18.047  0.00  0.00    +0.000 C 
ENDBRANCH  22  28
ENDBRANCH  17  18
ENDBRANCH   9  16
BRANCH   1  30
ATOM     30  C   UNL     1       2.937  13.661  20.368  0.00  0.00    +0.000 C 
BRANCH  30  32
ATOM     31  C   UNL     1       4.109  14.450  18.237  0.00  0.00    +0.000 C 
ATOM     32  C   UNL     1       3.473  14.848  19.563  0.00  0.00    +0.000 C 
ENDBRANCH  30  32
ENDBRANCH   1  30
TORSDOF 8
ENDMDL
MODEL 4
REMARK VINA RESULT:      -6.9      1.709      2.990
REMARK  Name = 
REMARK  15 active torsions:
REMARK  status: ('A' for Active; 'I' for Inactive)
REMARK    1  A    between atoms: C_1  and  C_2
REMARK    2  A    between atoms: C_2  and  C_3
REMARK    3  A    between atoms: C_3  and  C_4
REMARK    4  A    between atoms: N_6  and  C_7
REMARK    5  A    between atoms: N_10  and  C_11
REMARK    6  A    between atoms: C_11  and  C_12
REMARK    7  A    between atoms: C_11  and  C_13
REMARK    8  A    between atoms: C_15  and  C_16
REMARK    9  A    between atoms: C_17  and  C_18
REMARK   10  A    between atoms: C_20  and  O_21
REMARK   11  A    between atoms: O_21  and  C_22
REMARK   12  A    between atoms: C_23  and  O_24
REMARK   13  A    between atoms: O_24  and  C_25
REMARK   14  A    between atoms: C_26  and  O_27
REMARK   15  A    between atoms: O_27  and  C_28
REMARK                            x       y       z     vdW  Elec       q    Type
REMARK                         _______ _______ _______ _____ _____    ______ ____
ROOT
ATOM      1  C   UNL     1      -2.787  10.159  16.782  0.00  0.00    +0.000 A 
ATOM      2  N   UNL     1      -3.698  11.028  17.238  0.00  0.00    +0.000 NA
ATOM      3  N   UNL     1      -3.069  11.636  18.273  0.00  0.00    +0.000 N 
ATOM      4  C   UNL     1      -3.800  12.637  19.012  0.00  0.00    +0.000 C 
ATOM      5  C   UNL     1      -1.795  11.184  18.506  0.00  0.00    +0.000 A 
ATOM      6  C   UNL     1      -0.763  11.491  19.395  0.00  0.00    +0.000 A 
ATOM      7  N   UNL     1      -0.817  12.526  20.316  0.00  0.00    +0.000 N 
ATOM      8  N   UNL     1       0.370  10.748  19.274  0.00  0.00    +0.000 NA
ATOM      9  C   UNL     1       0.453   9.801  18.311  0.00  0.00    +0.000 A 
ATOM     10  N   UNL     1      -0.490   9.472  17.430  0.00  0.00    +0.000 NA
ATOM     11  C   UNL     1      -1.612  10.194  17.557  0.00  0.00    +0.000 A 
ATOM     12  H   UNL     1      -1.706  12.994  20.417  0.00  0.00    +0.000 HD
ENDROOT
BRANCH   7  13
ATOM     13  C   UNL     1      -0.064  12.388  21.562  0.00  0.00    +0.000 C 
ATOM     14  C   UNL     1       0.196  13.780  22.137  0.00  0.00    +0.000 C 
ATOM     15  C   UNL     1      -0.885  11.556  22.546  0.00  0.00    +0.000 C 
ENDBRANCH   7  13
BRANCH   9  16
ATOM     16  C   UNL     1       1.698   9.053  18.133  0.00  0.00    +0.000 C 
ATOM     17  C   UNL     1       1.848   7.729  18.252  0.00  0.00    +0.000 C 
BRANCH  17  18
ATOM     18  C   UNL     1       3.152   7.059  18.145  0.00  0.00    +0.000 A 
ATOM     19  C   UNL     1       3.305   5.830  18.783  0.00  0.00    +0.000 A 
ATOM     20  C   UNL     1       4.517   5.137  18.726  0.00  0.00    +0.000 A 
ATOM     21  C   UNL     1       5.618   5.689  18.033  0.00  0.00    +0.000 A 
ATOM     22  C   UNL     1       5.473   6.931  17.380  0.00  0.00    +0.000 A 
ATOM     23  C   UNL     1       4.235   7.592  17.433  0.00  0.00    +0.000 A 
BRANCH  20  24
ATOM     24  O   UNL     1       4.708   3.929  19.360  0.00  0.00    +0.000 OA
ATOM     25  C   UNL     1       3.734   2.923  19.095  0.00  0.00    +0.000 C 
ENDBRANCH  20  24
BRANCH  21  26
ATOM     26  O   UNL     1       6.784   4.963  18.126  0.00  0.00    +0.000 OA
ATOM     27  C   UNL     1       7.306   4.396  16.932  0.00  0.00    +0.000 C 
ENDBRANCH  21  26
BRANCH  22  28
ATOM     28  O   UNL     1       6.566   7.456  16.739  0.00  0.00    +0.000 OA
ATOM     29  C   UNL     1       7.529   8.169  17.504  0.00  0.00    +0.000 C 
ENDBRANCH  22  28
ENDBRANCH  17  18
ENDBRANCH   9  16
BRANCH   1  30
ATOM     30  C   UNL     1      -3.027   9.314  15.578  0.00  0.00    +0.000 C 
BRANCH  30  32
ATOM     31  C   UNL     1      -4.201   9.939  13.395  0.00  0.00    +0.000 C 
ATOM     32  C   UNL     1      -2.956  10.088  14.260  0.00  0.00    +0.000 C 
ENDBRANCH  30  32
ENDBRANCH   1  30
TORSDOF 8
ENDMDL
MODEL 5
REMARK VINA RESULT:      -6.8      4.284      9.428
REMARK  Name = 
REMARK  15 active torsions:
REMARK  status: ('A' for Active; 'I' for Inactive)
REMARK    1  A    between atoms: C_1  and  C_2
REMARK    2  A    between atoms: C_2  and  C_3
REMARK    3  A    between atoms: C_3  and  C_4
REMARK    4  A    between atoms: N_6  and  C_7
REMARK    5  A    between atoms: N_10  and  C_11
REMARK    6  A    between atoms: C_11  and  C_12
REMARK    7  A    between atoms: C_11  and  C_13
REMARK    8  A    between atoms: C_15  and  C_16
REMARK    9  A    between atoms: C_17  and  C_18
REMARK   10  A    between atoms: C_20  and  O_21
REMARK   11  A    between atoms: O_21  and  C_22
REMARK   12  A    between atoms: C_23  and  O_24
REMARK   13  A    between atoms: O_24  and  C_25
REMARK   14  A    between atoms: C_26  and  O_27
REMARK   15  A    between atoms: O_27  and  C_28
REMARK                            x       y       z     vdW  Elec       q    Type
REMARK                         _______ _______ _______ _____ _____    ______ ____
ROOT
ATOM      1  C   UNL     1       5.131   4.767  16.184  0.00  0.00    +0.000 A 
ATOM      2  N   UNL     1       5.183   3.448  16.405  0.00  0.00    +0.000 NA
ATOM      3  N   UNL     1       4.228   3.243  17.345  0.00  0.00    +0.000 N 
ATOM      4  C   UNL     1       4.037   1.898  17.829  0.00  0.00    +0.000 C 
ATOM      5  C   UNL     1       3.573   4.381  17.743  0.00  0.00    +0.000 A 
ATOM      6  C   UNL     1       2.535   4.691  18.624  0.00  0.00    +0.000 A 
ATOM      7  N   UNL     1       1.806   3.742  19.326  0.00  0.00    +0.000 N 
ATOM      8  N   UNL     1       2.208   6.007  18.722  0.00  0.00    +0.000 NA
ATOM      9  C   UNL     1       2.859   6.919  17.964  0.00  0.00    +0.000 A 
ATOM     10  N   UNL     1       3.845   6.685  17.101  0.00  0.00    +0.000 NA
ATOM     11  C   UNL     1       4.179   5.389  17.014  0.00  0.00    +0.000 A 
ATOM     12  H   UNL     1       2.141   2.790  19.276  0.00  0.00    +0.000 HD
ENDROOT
BRANCH   7  13
ATOM     13  C   UNL     1       1.244   4.117  20.622  0.00  0.00    +0.000 C 
ATOM     14  C   UNL     1       1.128   2.864  21.490  0.00  0.00    +0.000 C 
ATOM     15  C   UNL     1       2.170   5.135  21.287  0.00  0.00    +0.000 C 
ENDBRANCH   7  13
BRANCH   9  16
ATOM     16  C   UNL     1       2.456   8.325  18.014  0.00  0.00    +0.000 C 
ATOM     17  C   UNL     1       1.505   8.847  18.796  0.00  0.00    +0.000 C 
BRANCH  17  18
ATOM     18  C   UNL     1       1.095  10.257  18.725  0.00  0.00    +0.000 A 
ATOM     19  C   UNL     1      -0.257  10.550  18.889  0.00  0.00    +0.000 A 
ATOM     20  C   UNL     1      -0.719  11.868  18.831  0.00  0.00    +0.000 A 
ATOM     21  C   UNL     1       0.184  12.926  18.583  0.00  0.00    +0.000 A 
ATOM     22  C   UNL     1       1.557  12.642  18.420  0.00  0.00    +0.000 A 
ATOM     23  C   UNL     1       1.994  11.310  18.509  0.00  0.00    +0.000 A 
BRANCH  20  24
ATOM     24  O   UNL     1      -2.051  12.191  18.970  0.00  0.00    +0.000 OA
ATOM     25  C   UNL     1      -2.952  11.523  18.091  0.00  0.00    +0.000 C 
ENDBRANCH  20  24
BRANCH  21  26
ATOM     26  O   UNL     1      -0.399  14.166  18.454  0.00  0.00    +0.000 OA
ATOM     27  C   UNL     1      -0.415  15.011  19.597  0.00  0.00    +0.000 C 
ENDBRANCH  21  26
BRANCH  22  28
ATOM     28  O   UNL     1       2.406  13.684  18.153  0.00  0.00    +0.000 OA
ATOM     29  C   UNL     1       3.253  14.158  19.192  0.00  0.00    +0.000 C 
ENDBRANCH  22  28
ENDBRANCH  17  18
ENDBRANCH   9  16
BRANCH   1  30
ATOM     30  C   UNL     1       5.971   5.435  15.149  0.00  0.00    +0.000 C 
BRANCH  30  32
ATOM     31  C   UNL     1       6.487   3.949  13.134  0.00  0.00    +0.000 C 
ATOM     32  C   UNL     1       6.971   4.495  14.471  0.00  0.00    +0.000 C 
ENDBRANCH  30  32
ENDBRANCH   1  30
TORSDOF 8
ENDMDL
MODEL 6
REMARK VINA RESULT:      -6.8      0.862      4.688
REMARK  Name = 
REMARK  15 active torsions:
REMARK  status: ('A' for Active; 'I' for Inactive)
REMARK    1  A    between atoms: C_1  and  C_2
REMARK    2  A    between atoms: C_2  and  C_3
REMARK    3  A    between atoms: C_3  and  C_4
REMARK    4  A    between atoms: N_6  and  C_7
REMARK    5  A    between atoms: N_10  and  C_11
REMARK    6  A    between atoms: C_11  and  C_12
REMARK    7  A    between atoms: C_11  and  C_13
REMARK    8  A    between atoms: C_15  and  C_16
REMARK    9  A    between atoms: C_17  and  C_18
REMARK   10  A    between atoms: C_20  and  O_21
REMARK   11  A    between atoms: O_21  and  C_22
REMARK   12  A    between atoms: C_23  and  O_24
REMARK   13  A    between atoms: O_24  and  C_25
REMARK   14  A    between atoms: C_26  and  O_27
REMARK   15  A    between atoms: O_27  and  C_28
REMARK                            x       y       z     vdW  Elec       q    Type
REMARK                         _______ _______ _______ _____ _____    ______ ____
ROOT
ATOM      1  C   UNL     1       1.353  13.194  20.318  0.00  0.00    +0.000 A 
ATOM      2  N   UNL     1       0.300  13.952  20.650  0.00  0.00    +0.000 NA
ATOM      3  N   UNL     1      -0.754  13.284  20.122  0.00  0.00    +0.000 N 
ATOM      4  C   UNL     1      -2.068  13.858  20.287  0.00  0.00    +0.000 C 
ATOM      5  C   UNL     1      -0.419  12.133  19.456  0.00  0.00    +0.000 A 
ATOM      6  C   UNL     1      -1.106  11.116  18.790  0.00  0.00    +0.000 A 
ATOM      7  N   UNL     1      -2.489  11.030  18.725  0.00  0.00    +0.000 N 
ATOM      8  N   UNL     1      -0.339  10.137  18.241  0.00  0.00    +0.000 NA
ATOM      9  C   UNL     1       1.005  10.174  18.389  0.00  0.00    +0.000 A 
ATOM     10  N   UNL     1       1.715  11.107  19.020  0.00  0.00    +0.000 NA
ATOM     11  C   UNL     1       0.961  12.082  19.549  0.00  0.00    +0.000 A 
ATOM     12  H   UNL     1      -3.007  11.822  19.081  0.00  0.00    +0.000 HD
ENDROOT
BRANCH   7  13
ATOM     13  C   UNL     1      -3.091  10.392  17.556  0.00  0.00    +0.000 C 
ATOM     14  C   UNL     1      -4.609  10.363  17.738  0.00  0.00    +0.000 C 
ATOM     15  C   UNL     1      -2.725  11.197  16.310  0.00  0.00    +0.000 C 
ENDBRANCH   7  13
BRANCH   9  16
ATOM     16  C   UNL     1       1.825   9.082  17.863  0.00  0.00    +0.000 C 
ATOM     17  C   UNL     1       2.214   7.992  18.535  0.00  0.00    +0.000 C 
BRANCH  17  18
ATOM     18  C   UNL     1       3.114   6.979  17.964  0.00  0.00    +0.000 A 
ATOM     19  C   UNL     1       2.682   5.655  17.961  0.00  0.00    +0.000 A 
ATOM     20  C   UNL     1       3.485   4.638  17.437  0.00  0.00    +0.000 A 
ATOM     21  C   UNL     1       4.764   4.941  16.918  0.00  0.00    +0.000 A 
ATOM     22  C   UNL     1       5.210   6.280  16.912  0.00  0.00    +0.000 A 
ATOM     23  C   UNL     1       4.370   7.283  17.422  0.00  0.00    +0.000 A 
BRANCH  20  24
ATOM     24  O   UNL     1       3.097   3.317  17.435  0.00  0.00    +0.000 OA
ATOM     25  C   UNL     1       2.625   2.801  18.677  0.00  0.00    +0.000 C 
ENDBRANCH  20  24
BRANCH  21  26
ATOM     26  O   UNL     1       5.500   3.849  16.518  0.00  0.00    +0.000 OA
ATOM     27  C   UNL     1       5.939   3.807  15.167  0.00  0.00    +0.000 C 
ENDBRANCH  21  26
BRANCH  22  28
ATOM     28  O   UNL     1       6.466   6.541  16.429  0.00  0.00    +0.000 OA
ATOM     29  C   UNL     1       7.483   6.928  17.344  0.00  0.00    +0.000 C 
ENDBRANCH  22  28
ENDBRANCH  17  18
ENDBRANCH   9  16
BRANCH   1  30
ATOM     30  C   UNL     1       2.738  13.515  20.767  0.00  0.00    +0.000 C 
BRANCH  30  32
ATOM     31  C   UNL     1       4.239  15.582  20.660  0.00  0.00    +0.000 C 
ATOM     32  C   UNL     1       3.448  14.540  19.879  0.00  0.00    +0.000 C 
ENDBRANCH  30  32
ENDBRANCH   1  30
TORSDOF 8
ENDMDL
MODEL 7
REMARK VINA RESULT:      -6.8      2.015      2.280
REMARK  Name = 
REMARK  15 active torsions:
REMARK  status: ('A' for Active; 'I' for Inactive)
REMARK    1  A    between atoms: C_1  and  C_2
REMARK    2  A    between atoms: C_2  and  C_3
REMARK    3  A    between atoms: C_3  and  C_4
REMARK    4  A    between atoms: N_6  and  C_7
REMARK    5  A    between atoms: N_10  and  C_11
REMARK    6  A    between atoms: C_11  and  C_12
REMARK    7  A    between atoms: C_11  and  C_13
REMARK    8  A    between atoms: C_15  and  C_16
REMARK    9  A    between atoms: C_17  and  C_18
REMARK   10  A    between atoms: C_20  and  O_21
REMARK   11  A    between atoms: O_21  and  C_22
REMARK   12  A    between atoms: C_23  and  O_24
REMARK   13  A    between atoms: O_24  and  C_25
REMARK   14  A    between atoms: C_26  and  O_27
REMARK   15  A    between atoms: O_27  and  C_28
REMARK                            x       y       z     vdW  Elec       q    Type
REMARK                         _______ _______ _______ _____ _____    ______ ____
ROOT
ATOM      1  C   UNL     1      -2.697  10.305  17.072  0.00  0.00    +0.000 A 
ATOM      2  N   UNL     1      -3.627  11.195  17.440  0.00  0.00    +0.000 NA
ATOM      3  N   UNL     1      -3.125  11.730  18.580  0.00  0.00    +0.000 N 
ATOM      4  C   UNL     1      -3.911  12.731  19.258  0.00  0.00    +0.000 C 
ATOM      5  C   UNL     1      -1.914  11.210  18.963  0.00  0.00    +0.000 A 
ATOM      6  C   UNL     1      -1.005  11.431  19.999  0.00  0.00    +0.000 A 
ATOM      7  N   UNL     1      -1.145  12.429  20.952  0.00  0.00    +0.000 N 
ATOM      8  N   UNL     1       0.103  10.643  19.998  0.00  0.00    +0.000 NA
ATOM      9  C   UNL     1       0.282   9.735  19.012  0.00  0.00    +0.000 A 
ATOM     10  N   UNL     1      -0.541   9.487  17.995  0.00  0.00    +0.000 NA
ATOM     11  C   UNL     1      -1.641  10.253  18.001  0.00  0.00    +0.000 A 
ATOM     12  H   UNL     1      -2.021  12.932  20.952  0.00  0.00    +0.000 HD
ENDROOT
BRANCH   7  13
ATOM     13  C   UNL     1      -0.579  12.204  22.281  0.00  0.00    +0.000 C 
ATOM     14  C   UNL     1      -0.765  13.470  23.117  0.00  0.00    +0.000 C 
ATOM     15  C   UNL     1      -1.304  11.029  22.935  0.00  0.00    +0.000 C 
ENDBRANCH   7  13
BRANCH   9  16
ATOM     16  C   UNL     1       1.510   8.939  18.970  0.00  0.00    +0.000 C 
ATOM     17  C   UNL     1       1.938   8.203  17.938  0.00  0.00    +0.000 C 
BRANCH  17  18
ATOM     18  C   UNL     1       3.139   7.358  18.004  0.00  0.00    +0.000 A 
ATOM     19  C   UNL     1       4.284   7.804  17.346  0.00  0.00    +0.000 A 
ATOM     20  C   UNL     1       5.462   7.051  17.364  0.00  0.00    +0.000 A 
ATOM     21  C   UNL     1       5.500   5.809  18.037  0.00  0.00    +0.000 A 
ATOM     22  C   UNL     1       4.348   5.349  18.709  0.00  0.00    +0.000 A 
ATOM     23  C   UNL     1       3.187   6.140  18.695  0.00  0.00    +0.000 A 
BRANCH  20  24
ATOM     24  O   UNL     1       6.605   7.453  16.711  0.00  0.00    +0.000 OA
ATOM     25  C   UNL     1       7.562   8.156  17.500  0.00  0.00    +0.000 C 
ENDBRANCH  20  24
BRANCH  21  26
ATOM     26  O   UNL     1       6.682   5.116  17.905  0.00  0.00    +0.000 OA
ATOM     27  C   UNL     1       6.831   4.272  16.772  0.00  0.00    +0.000 C 
ENDBRANCH  21  26
BRANCH  22  28
ATOM     28  O   UNL     1       4.405   4.128  19.329  0.00  0.00    +0.000 OA
ATOM     29  C   UNL     1       3.662   3.048  18.779  0.00  0.00    +0.000 C 
ENDBRANCH  22  28
ENDBRANCH  17  18
ENDBRANCH   9  16
BRANCH   1  30
ATOM     30  C   UNL     1      -2.800   9.523  15.807  0.00  0.00    +0.000 C 
BRANCH  30  32
ATOM     31  C   UNL     1      -3.072   9.747  13.275  0.00  0.00    +0.000 C 
ATOM     32  C   UNL     1      -3.417  10.309  14.648  0.00  0.00    +0.000 C 
ENDBRANCH  30  32
ENDBRANCH   1  30
TORSDOF 8
ENDMDL
MODEL 8
REMARK VINA RESULT:      -6.6      4.569      9.573
REMARK  Name = 
REMARK  15 active torsions:
REMARK  status: ('A' for Active; 'I' for Inactive)
REMARK    1  A    between atoms: C_1  and  C_2
REMARK    2  A    between atoms: C_2  and  C_3
REMARK    3  A    between atoms: C_3  and  C_4
REMARK    4  A    between atoms: N_6  and  C_7
REMARK    5  A    between atoms: N_10  and  C_11
REMARK    6  A    between atoms: C_11  and  C_12
REMARK    7  A    between atoms: C_11  and  C_13
REMARK    8  A    between atoms: C_15  and  C_16
REMARK    9  A    between atoms: C_17  and  C_18
REMARK   10  A    between atoms: C_20  and  O_21
REMARK   11  A    between atoms: O_21  and  C_22
REMARK   12  A    between atoms: C_23  and  O_24
REMARK   13  A    between atoms: O_24  and  C_25
REMARK   14  A    between atoms: C_26  and  O_27
REMARK   15  A    between atoms: O_27  and  C_28
REMARK                            x       y       z     vdW  Elec       q    Type
REMARK                         _______ _______ _______ _____ _____    ______ ____
ROOT
ATOM      1  C   UNL     1       5.926   6.647  17.315  0.00  0.00    +0.000 A 
ATOM      2  N   UNL     1       6.386   5.392  17.238  0.00  0.00    +0.000 NA
ATOM      3  N   UNL     1       5.295   4.634  17.506  0.00  0.00    +0.000 N 
ATOM      4  C   UNL     1       5.457   3.201  17.523  0.00  0.00    +0.000 C 
ATOM      5  C   UNL     1       4.156   5.354  17.763  0.00  0.00    +0.000 A 
ATOM      6  C   UNL     1       2.822   5.060  18.052  0.00  0.00    +0.000 A 
ATOM      7  N   UNL     1       2.298   3.775  18.070  0.00  0.00    +0.000 N 
ATOM      8  N   UNL     1       2.006   6.128  18.259  0.00  0.00    +0.000 NA
ATOM      9  C   UNL     1       2.500   7.382  18.147  0.00  0.00    +0.000 A 
ATOM     10  N   UNL     1       3.756   7.725  17.863  0.00  0.00    +0.000 NA
ATOM     11  C   UNL     1       4.564   6.672  17.674  0.00  0.00    +0.000 A 
ATOM     12  H   UNL     1       2.960   3.018  17.987  0.00  0.00    +0.000 HD
ENDROOT
BRANCH   7  13
ATOM     13  C   UNL     1       1.172   3.497  18.959  0.00  0.00    +0.000 C 
ATOM     14  C   UNL     1       0.623   2.107  18.639  0.00  0.00    +0.000 C 
ATOM     15  C   UNL     1       1.659   3.551  20.406  0.00  0.00    +0.000 C 
ENDBRANCH   7  13
BRANCH   9  16
ATOM     16  C   UNL     1       1.607   8.532  18.296  0.00  0.00    +0.000 C 
ATOM     17  C   UNL     1       1.200   9.071  19.451  0.00  0.00    +0.000 C 
BRANCH  17  18
ATOM     18  C   UNL     1       0.228  10.173  19.520  0.00  0.00    +0.000 A 
ATOM     19  C   UNL     1       0.123  10.871  20.721  0.00  0.00    +0.000 A 
ATOM     20  C   UNL     1      -0.780  11.928  20.861  0.00  0.00    +0.000 A 
ATOM     21  C   UNL     1      -1.619  12.291  19.783  0.00  0.00    +0.000 A 
ATOM     22  C   UNL     1      -1.519  11.593  18.561  0.00  0.00    +0.000 A 
ATOM     23  C   UNL     1      -0.584  10.552  18.443  0.00  0.00    +0.000 A 
BRANCH  20  24
ATOM     24  O   UNL     1      -0.922  12.628  22.038  0.00  0.00    +0.000 OA
ATOM     25  C   UNL     1      -1.472  11.902  23.135  0.00  0.00    +0.000 C 
ENDBRANCH  20  24
BRANCH  21  26
ATOM     26  O   UNL     1      -2.532  13.282  20.068  0.00  0.00    +0.000 OA
ATOM     27  C   UNL     1      -3.859  12.887  20.384  0.00  0.00    +0.000 C 
ENDBRANCH  21  26
BRANCH  22  28
ATOM     28  O   UNL     1      -2.365  11.948  17.543  0.00  0.00    +0.000 OA
ATOM     29  C   UNL     1      -3.215  10.954  16.984  0.00  0.00    +0.000 C 
ENDBRANCH  22  28
ENDBRANCH  17  18
ENDBRANCH   9  16
BRANCH   1  30
ATOM     30  C   UNL     1       6.782   7.829  17.012  0.00  0.00    +0.000 C 
BRANCH  30  32
ATOM     31  C   UNL     1       8.447   9.353  18.212  0.00  0.00    +0.000 C 
ATOM     32  C   UNL     1       8.032   7.923  17.890  0.00  0.00    +0.000 C 
ENDBRANCH  30  32
ENDBRANCH   1  30
TORSDOF 8
ENDMDL
MODEL 9
REMARK VINA RESULT:      -6.5      4.351      9.359
REMARK  Name = 
REMARK  15 active torsions:
REMARK  status: ('A' for Active; 'I' for Inactive)
REMARK    1  A    between atoms: C_1  and  C_2
REMARK    2  A    between atoms: C_2  and  C_3
REMARK    3  A    between atoms: C_3  and  C_4
REMARK    4  A    between atoms: N_6  and  C_7
REMARK    5  A    between atoms: N_10  and  C_11
REMARK    6  A    between atoms: C_11  and  C_12
REMARK    7  A    between atoms: C_11  and  C_13
REMARK    8  A    between atoms: C_15  and  C_16
REMARK    9  A    between atoms: C_17  and  C_18
REMARK   10  A    between atoms: C_20  and  O_21
REMARK   11  A    between atoms: O_21  and  C_22
REMARK   12  A    between atoms: C_23  and  O_24
REMARK   13  A    between atoms: O_24  and  C_25
REMARK   14  A    between atoms: C_26  and  O_27
REMARK   15  A    between atoms: O_27  and  C_28
REMARK                            x       y       z     vdW  Elec       q    Type
REMARK                         _______ _______ _______ _____ _____    ______ ____
ROOT
ATOM      1  C   UNL     1       5.977   6.323  17.111  0.00  0.00    +0.000 A 
ATOM      2  N   UNL     1       6.295   5.045  16.873  0.00  0.00    +0.000 NA
ATOM      3  N   UNL     1       5.167   4.369  17.200  0.00  0.00    +0.000 N 
ATOM      4  C   UNL     1       5.183   2.931  17.074  0.00  0.00    +0.000 C 
ATOM      5  C   UNL     1       4.142   5.162  17.649  0.00  0.00    +0.000 A 
ATOM      6  C   UNL     1       2.824   4.966  18.065  0.00  0.00    +0.000 A 
ATOM      7  N   UNL     1       2.176   3.739  18.033  0.00  0.00    +0.000 N 
ATOM      8  N   UNL     1       2.150   6.080  18.457  0.00  0.00    +0.000 NA
ATOM      9  C   UNL     1       2.755   7.287  18.397  0.00  0.00    +0.000 A 
ATOM     10  N   UNL     1       4.001   7.539  18.000  0.00  0.00    +0.000 NA
ATOM     11  C   UNL     1       4.673   6.439  17.627  0.00  0.00    +0.000 A 
ATOM     12  H   UNL     1       2.744   2.935  17.808  0.00  0.00    +0.000 HD
ENDROOT
BRANCH   7  13
ATOM     13  C   UNL     1       1.129   3.481  19.020  0.00  0.00    +0.000 C 
ATOM     14  C   UNL     1       0.513   2.111  18.737  0.00  0.00    +0.000 C 
ATOM     15  C   UNL     1       1.751   3.501  20.416  0.00  0.00    +0.000 C 
ENDBRANCH   7  13
BRANCH   9  16
ATOM     16  C   UNL     1       2.006   8.495  18.748  0.00  0.00    +0.000 C 
ATOM     17  C   UNL     1       1.599   9.446  17.900  0.00  0.00    +0.000 C 
BRANCH  17  18
ATOM     18  C   UNL     1       0.927  10.676  18.341  0.00  0.00    +0.000 A 
ATOM     19  C   UNL     1       1.714  11.808  18.549  0.00  0.00    +0.000 A 
ATOM     20  C   UNL     1       1.144  13.012  18.970  0.00  0.00    +0.000 A 
ATOM     21  C   UNL     1      -0.246  13.092  19.214  0.00  0.00    +0.000 A 
ATOM     22  C   UNL     1      -1.053  11.954  19.003  0.00  0.00    +0.000 A 
ATOM     23  C   UNL     1      -0.455  10.765  18.554  0.00  0.00    +0.000 A 
BRANCH  20  24
ATOM     24  O   UNL     1       1.894  14.143  19.202  0.00  0.00    +0.000 OA
ATOM     25  C   UNL     1       3.066  14.291  18.404  0.00  0.00    +0.000 C 
ENDBRANCH  20  24
BRANCH  21  26
ATOM     26  O   UNL     1      -0.677  14.299  19.715  0.00  0.00    +0.000 OA
ATOM     27  C   UNL     1      -0.850  14.407  21.121  0.00  0.00    +0.000 C 
ENDBRANCH  21  26
BRANCH  22  28
ATOM     28  O   UNL     1      -2.393  12.053  19.274  0.00  0.00    +0.000 OA
ATOM     29  C   UNL     1      -3.320  11.511  18.341  0.00  0.00    +0.000 C 
ENDBRANCH  22  28
ENDBRANCH  17  18
ENDBRANCH   9  16
BRANCH   1  30
ATOM     30  C   UNL     1       6.913   7.445  16.813  0.00  0.00    +0.000 C 
BRANCH  30  32
ATOM     31  C   UNL     1       8.291   9.194  18.069  0.00  0.00    +0.000 C 
ATOM     32  C   UNL     1       7.914   7.724  17.937  0.00  0.00    +0.000 C 
ENDBRANCH  30  32
ENDBRANCH   1  30
TORSDOF 8
ENDMDL
