MODEL 1
REMARK VINA RESULT:      -6.7      0.000      0.000
REMARK  Name = 
REMARK  4 active torsions:
REMARK  status: ('A' for Active; 'I' for Inactive)
REMARK    1  A    between atoms: C_2  and  C_13
REMARK    2  A    between atoms: N_3  and  C_4
REMARK    3  A    between atoms: C_4  and  C_5
REMARK    4  A    between atoms: C_5  and  N_6
REMARK                            x       y       z     vdW  Elec       q    Type
REMARK                         _______ _______ _______ _____ _____    ______ ____
ROOT
ATOM      1  O   UNL     1       1.806   3.333  17.232  0.00  0.00    +0.000 OA
ATOM      2  C   UNL     1       2.695   3.471  18.067  0.00  0.00    +0.000 C 
ATOM      3  N   UNL     1       3.960   3.865  17.670  0.00  0.00    +0.000 N 
ATOM      4  H   UNL     1       4.707   3.920  18.351  0.00  0.00    +0.000 HD
ENDROOT
BRANCH   2   5
ATOM      5  C   UNL     1       2.508   3.229  19.486  0.00  0.00    +0.000 A 
ATOM      6  S   UNL     1       1.052   3.781  20.234  0.00  0.00    +0.000 S 
ATOM      7  C   UNL     1       1.583   3.154  21.731  0.00  0.00    +0.000 A 
ATOM      8  N   UNL     1       2.756   2.567  21.723  0.00  0.00    +0.000 NA
ATOM      9  C   UNL     1       3.290   2.606  20.447  0.00  0.00    +0.000 A 
ATOM     10 CL   UNL     1       4.829   1.882  20.199  0.00  0.00    +0.000 Cl
ENDBRANCH   2   5
BRANCH   3  11
ATOM     11  C   UNL     1       4.287   4.100  16.273  0.00  0.00    +0.000 C 
BRANCH  11  12
ATOM     12  C   UNL     1       5.705   3.626  15.914  0.00  0.00    +0.000 C 
BRANCH  12  13
ATOM     13  N   UNL     1       6.593   4.761  15.727  0.00  0.00    +0.000 N 
ATOM     14  C   UNL     1       7.081   5.436  16.834  0.00  0.00    +0.000 A 
ATOM     15  C   UNL     1       7.391   4.842  18.059  0.00  0.00    +0.000 A 
ATOM     16  N   UNL     1       7.909   5.514  19.121  0.00  0.00    +0.000 NA
ATOM     17  C   UNL     1       8.143   6.823  18.900  0.00  0.00    +0.000 A 
ATOM     18  C   UNL     1       7.857   7.426  17.690  0.00  0.00    +0.000 A 
ATOM     19  N   UNL     1       7.314   6.752  16.646  0.00  0.00    +0.000 NA
ATOM     20  H   UNL     1       6.315   5.462  15.045  0.00  0.00    +0.000 HD
ENDBRANCH  12  13
ENDBRANCH  11  12
ENDBRANCH   3  11
TORSDOF 4
ENDMDL
MODEL 2
REMARK VINA RESULT:      -6.6      3.801      6.944
REMARK  Name = 
REMARK  4 active torsions:
REMARK  status: ('A' for Active; 'I' for Inactive)
REMARK    1  A    between atoms: C_2  and  C_13
REMARK    2  A    between atoms: N_3  and  C_4
REMARK    3  A    between atoms: C_4  and  C_5
REMARK    4  A    between atoms: C_5  and  N_6
REMARK                            x       y       z     vdW  Elec       q    Type
REMARK                         _______ _______ _______ _____ _____    ______ ____
ROOT
ATOM      1  O   UNL     1       7.596   6.246  15.904  0.00  0.00    +0.000 OA
ATOM      2  C   UNL     1       7.159   5.126  15.654  0.00  0.00    +0.000 C 
ATOM      3  N   UNL     1       6.887   4.246  16.685  0.00  0.00    +0.000 N 
ATOM      4  H   UNL     1       6.585   3.302  16.474  0.00  0.00    +0.000 HD
ENDROOT
BRANCH   2   5
ATOM      5  C   UNL     1       6.913   4.643  14.307  0.00  0.00    +0.000 A 
ATOM      6  S   UNL     1       5.600   3.551  14.048  0.00  0.00    +0.000 S 
ATOM      7  C   UNL     1       5.975   3.496  12.383  0.00  0.00    +0.000 A 
ATOM      8  N   UNL     1       6.997   4.224  12.000  0.00  0.00    +0.000 NA
ATOM      9  C   UNL     1       7.538   4.880  13.092  0.00  0.00    +0.000 A 
ATOM     10 CL   UNL     1       8.891   5.904  12.822  0.00  0.00    +0.000 Cl
ENDBRANCH   2   5
BRANCH   3  11
ATOM     11  C   UNL     1       7.129   4.594  18.076  0.00  0.00    +0.000 C 
BRANCH  11  12
ATOM     12  C   UNL     1       5.826   4.781  18.870  0.00  0.00    +0.000 C 
BRANCH  12  13
ATOM     13  N   UNL     1       5.229   3.494  19.185  0.00  0.00    +0.000 N 
ATOM     14  C   UNL     1       3.887   3.279  18.917  0.00  0.00    +0.000 A 
ATOM     15  C   UNL     1       3.192   3.825  17.835  0.00  0.00    +0.000 A 
ATOM     16  N   UNL     1       1.885   3.568  17.565  0.00  0.00    +0.000 NA
ATOM     17  C   UNL     1       1.293   2.703  18.411  0.00  0.00    +0.000 A 
ATOM     18  C   UNL     1       1.969   2.141  19.478  0.00  0.00    +0.000 A 
ATOM     19  N   UNL     1       3.265   2.424  19.755  0.00  0.00    +0.000 NA
ATOM     20  H   UNL     1       5.419   3.107  20.106  0.00  0.00    +0.000 HD
ENDBRANCH  12  13
ENDBRANCH  11  12
ENDBRANCH   3  11
TORSDOF 4
ENDMDL
MODEL 3
REMARK VINA RESULT:      -6.6      2.211      3.408
REMARK  Name = 
REMARK  4 active torsions:
REMARK  status: ('A' for Active; 'I' for Inactive)
REMARK    1  A    between atoms: C_2  and  C_13
REMARK    2  A    between atoms: N_3  and  C_4
REMARK    3  A    between atoms: C_4  and  C_5
REMARK    4  A    between atoms: C_5  and  N_6
REMARK                            x       y       z     vdW  Elec       q    Type
REMARK                         _______ _______ _______ _____ _____    ______ ____
ROOT
ATOM      1  O   UNL     1       4.151   5.022  17.245  0.00  0.00    +0.000 OA
ATOM      2  C   UNL     1       4.289   4.722  18.428  0.00  0.00    +0.000 C 
ATOM      3  N   UNL     1       5.476   5.007  19.078  0.00  0.00    +0.000 N 
ATOM      4  H   UNL     1       5.610   4.705  20.036  0.00  0.00    +0.000 HD
ENDROOT
BRANCH   2   5
ATOM      5  C   UNL     1       3.265   4.057  19.212  0.00  0.00    +0.000 A 
ATOM      6  S   UNL     1       2.302   5.004  20.289  0.00  0.00    +0.000 S 
ATOM      7  C   UNL     1       1.445   3.602  20.755  0.00  0.00    +0.000 A 
ATOM      8  N   UNL     1       1.814   2.485  20.176  0.00  0.00    +0.000 NA
ATOM      9  C   UNL     1       2.852   2.735  19.295  0.00  0.00    +0.000 A 
ATOM     10 CL   UNL     1       3.493   1.407  18.412  0.00  0.00    +0.000 Cl
ENDBRANCH   2   5
BRANCH   3  11
ATOM     11  C   UNL     1       6.595   5.635  18.394  0.00  0.00    +0.000 C 
BRANCH  11  12
ATOM     12  C   UNL     1       7.130   4.779  17.234  0.00  0.00    +0.000 C 
BRANCH  12  13
ATOM     13  N   UNL     1       7.279   5.583  16.032  0.00  0.00    +0.000 N 
ATOM     14  C   UNL     1       7.114   4.992  14.790  0.00  0.00    +0.000 A 
ATOM     15  C   UNL     1       6.217   3.958  14.510  0.00  0.00    +0.000 A 
ATOM     16  N   UNL     1       6.039   3.420  13.275  0.00  0.00    +0.000 NA
ATOM     17  C   UNL     1       6.780   3.984  12.301  0.00  0.00    +0.000 A 
ATOM     18  C   UNL     1       7.662   5.017  12.556  0.00  0.00    +0.000 A 
ATOM     19  N   UNL     1       7.853   5.529  13.796  0.00  0.00    +0.000 NA
ATOM     20  H   UNL     1       8.098   6.184  15.973  0.00  0.00    +0.000 HD
ENDBRANCH  12  13
ENDBRANCH  11  12
ENDBRANCH   3  11
TORSDOF 4
ENDMDL
MODEL 4
REMARK VINA RESULT:      -6.6      2.668      3.805
REMARK  Name = 
REMARK  4 active torsions:
REMARK  status: ('A' for Active; 'I' for Inactive)
REMARK    1  A    between atoms: C_2  and  C_13
REMARK    2  A    between atoms: N_3  and  C_4
REMARK    3  A    between atoms: C_4  and  C_5
REMARK    4  A    between atoms: C_5  and  N_6
REMARK                            x       y       z     vdW  Elec       q    Type
REMARK                         _______ _______ _______ _____ _____    ______ ____
ROOT
ATOM      1  O   UNL     1       5.479   3.450  19.476  0.00  0.00    +0.000 OA
ATOM      2  C   UNL     1       4.596   4.072  18.891  0.00  0.00    +0.000 C 
ATOM      3  N   UNL     1       4.907   5.234  18.210  0.00  0.00    +0.000 N 
ATOM      4  H   UNL     1       4.168   5.778  17.779  0.00  0.00    +0.000 HD
ENDROOT
BRANCH   2   5
ATOM      5  C   UNL     1       3.203   3.666  18.878  0.00  0.00    +0.000 A 
ATOM      6  S   UNL     1       2.768   2.232  18.018  0.00  0.00    +0.000 S 
ATOM      7  C   UNL     1       1.136   2.458  18.468  0.00  0.00    +0.000 A 
ATOM      8  N   UNL     1       0.885   3.512  19.207  0.00  0.00    +0.000 NA
ATOM      9  C   UNL     1       2.058   4.207  19.445  0.00  0.00    +0.000 A 
ATOM     10 CL   UNL     1       1.967   5.629  20.405  0.00  0.00    +0.000 Cl
ENDBRANCH   2   5
BRANCH   3  11
ATOM     11  C   UNL     1       6.258   5.770  18.181  0.00  0.00    +0.000 C 
BRANCH  11  12
ATOM     12  C   UNL     1       7.189   4.967  17.258  0.00  0.00    +0.000 C 
BRANCH  12  13
ATOM     13  N   UNL     1       7.394   5.668  16.001  0.00  0.00    +0.000 N 
ATOM     14  C   UNL     1       7.101   5.030  14.807  0.00  0.00    +0.000 A 
ATOM     15  C   UNL     1       6.064   4.112  14.626  0.00  0.00    +0.000 A 
ATOM     16  N   UNL     1       5.766   3.528  13.436  0.00  0.00    +0.000 NA
ATOM     17  C   UNL     1       6.534   3.926  12.403  0.00  0.00    +0.000 A 
ATOM     18  C   UNL     1       7.556   4.845  12.560  0.00  0.00    +0.000 A 
ATOM     19  N   UNL     1       7.863   5.401  13.757  0.00  0.00    +0.000 NA
ATOM     20  H   UNL     1       8.282   6.149  15.877  0.00  0.00    +0.000 HD
ENDBRANCH  12  13
ENDBRANCH  11  12
ENDBRANCH   3  11
TORSDOF 4
ENDMDL
MODEL 5
REMARK VINA RESULT:      -6.5      3.118      5.795
REMARK  Name = 
REMARK  4 active torsions:
REMARK  status: ('A' for Active; 'I' for Inactive)
REMARK    1  A    between atoms: C_2  and  C_13
REMARK    2  A    between atoms: N_3  and  C_4
REMARK    3  A    between atoms: C_4  and  C_5
REMARK    4  A    between atoms: C_5  and  N_6
REMARK                            x       y       z     vdW  Elec       q    Type
REMARK                         _______ _______ _______ _____ _____    ______ ____
ROOT
ATOM      1  O   UNL     1       5.496   4.000  19.185  0.00  0.00    +0.000 OA
ATOM      2  C   UNL     1       5.340   3.766  17.989  0.00  0.00    +0.000 C 
ATOM      3  N   UNL     1       4.392   2.844  17.584  0.00  0.00    +0.000 N 
ATOM      4  H   UNL     1       4.307   2.609  16.602  0.00  0.00    +0.000 HD
ENDROOT
BRANCH   2   5
ATOM      5  C   UNL     1       6.116   4.402  16.940  0.00  0.00    +0.000 A 
ATOM      6  S   UNL     1       5.929   3.840  15.317  0.00  0.00    +0.000 S 
ATOM      7  C   UNL     1       7.065   4.998  14.785  0.00  0.00    +0.000 A 
ATOM      8  N   UNL     1       7.575   5.771  15.714  0.00  0.00    +0.000 NA
ATOM      9  C   UNL     1       7.039   5.437  16.946  0.00  0.00    +0.000 A 
ATOM     10 CL   UNL     1       7.561   6.332  18.317  0.00  0.00    +0.000 Cl
ENDBRANCH   2   5
BRANCH   3  11
ATOM     11  C   UNL     1       3.578   2.110  18.539  0.00  0.00    +0.000 C 
BRANCH  11  12
ATOM     12  C   UNL     1       2.072   2.293  18.292  0.00  0.00    +0.000 C 
BRANCH  12  13
ATOM     13  N   UNL     1       1.491   3.169  19.296  0.00  0.00    +0.000 N 
ATOM     14  C   UNL     1       1.812   4.517  19.295  0.00  0.00    +0.000 A 
ATOM     15  C   UNL     1       2.063   5.277  18.151  0.00  0.00    +0.000 A 
ATOM     16  N   UNL     1       2.335   6.609  18.168  0.00  0.00    +0.000 NA
ATOM     17  C   UNL     1       2.315   7.173  19.392  0.00  0.00    +0.000 A 
ATOM     18  C   UNL     1       2.054   6.440  20.534  0.00  0.00    +0.000 A 
ATOM     19  N   UNL     1       1.811   5.107  20.509  0.00  0.00    +0.000 NA
ATOM     20  H   UNL     1       1.520   2.852  20.262  0.00  0.00    +0.000 HD
ENDBRANCH  12  13
ENDBRANCH  11  12
ENDBRANCH   3  11
TORSDOF 4
ENDMDL
MODEL 6
REMARK VINA RESULT:      -6.5      2.794      3.886
REMARK  Name = 
REMARK  4 active torsions:
REMARK  status: ('A' for Active; 'I' for Inactive)
REMARK    1  A    between atoms: C_2  and  C_13
REMARK    2  A    between atoms: N_3  and  C_4
REMARK    3  A    between atoms: C_4  and  C_5
REMARK    4  A    between atoms: C_5  and  N_6
REMARK                            x       y       z     vdW  Elec       q    Type
REMARK                         _______ _______ _______ _____ _____    ______ ____
ROOT
ATOM      1  O   UNL     1       4.519   6.001  17.439  0.00  0.00    +0.000 OA
ATOM      2  C   UNL     1       4.547   5.383  18.500  0.00  0.00    +0.000 C 
ATOM      3  N   UNL     1       5.760   5.096  19.099  0.00  0.00    +0.000 N 
ATOM      4  H   UNL     1       5.785   4.535  19.942  0.00  0.00    +0.000 HD
ENDROOT
BRANCH   2   5
ATOM      5  C   UNL     1       3.358   4.907  19.183  0.00  0.00    +0.000 A 
ATOM      6  S   UNL     1       3.101   3.203  19.305  0.00  0.00    +0.000 S 
ATOM      7  C   UNL     1       1.649   3.484  20.159  0.00  0.00    +0.000 A 
ATOM      8  N   UNL     1       1.337   4.741  20.363  0.00  0.00    +0.000 NA
ATOM      9  C   UNL     1       2.306   5.560  19.809  0.00  0.00    +0.000 A 
ATOM     10 CL   UNL     1       2.106   7.259  19.965  0.00  0.00    +0.000 Cl
ENDBRANCH   2   5
BRANCH   3  11
ATOM     11  C   UNL     1       7.025   5.482  18.495  0.00  0.00    +0.000 C 
BRANCH  11  12
ATOM     12  C   UNL     1       7.361   4.646  17.249  0.00  0.00    +0.000 C 
BRANCH  12  13
ATOM     13  N   UNL     1       7.438   5.493  16.070  0.00  0.00    +0.000 N 
ATOM     14  C   UNL     1       7.175   4.953  14.822  0.00  0.00    +0.000 A 
ATOM     15  C   UNL     1       6.244   3.943  14.568  0.00  0.00    +0.000 A 
ATOM     16  N   UNL     1       5.970   3.455  13.330  0.00  0.00    +0.000 NA
ATOM     17  C   UNL     1       6.650   4.046  12.327  0.00  0.00    +0.000 A 
ATOM     18  C   UNL     1       7.565   5.057  12.557  0.00  0.00    +0.000 A 
ATOM     19  N   UNL     1       7.851   5.518  13.799  0.00  0.00    +0.000 NA
ATOM     20  H   UNL     1       8.260   6.085  15.976  0.00  0.00    +0.000 HD
ENDBRANCH  12  13
ENDBRANCH  11  12
ENDBRANCH   3  11
TORSDOF 4
ENDMDL
MODEL 7
REMARK VINA RESULT:      -6.3      2.238      3.432
REMARK  Name = 
REMARK  4 active torsions:
REMARK  status: ('A' for Active; 'I' for Inactive)
REMARK    1  A    between atoms: C_2  and  C_13
REMARK    2  A    between atoms: N_3  and  C_4
REMARK    3  A    between atoms: C_4  and  C_5
REMARK    4  A    between atoms: C_5  and  N_6
REMARK                            x       y       z     vdW  Elec       q    Type
REMARK                         _______ _______ _______ _____ _____    ______ ____
ROOT
ATOM      1  O   UNL     1       3.755   6.053  19.386  0.00  0.00    +0.000 OA
ATOM      2  C   UNL     1       3.959   4.928  18.937  0.00  0.00    +0.000 C 
ATOM      3  N   UNL     1       5.161   4.640  18.317  0.00  0.00    +0.000 N 
ATOM      4  H   UNL     1       5.304   3.731  17.894  0.00  0.00    +0.000 HD
ENDROOT
BRANCH   2   5
ATOM      5  C   UNL     1       2.989   3.850  19.004  0.00  0.00    +0.000 A 
ATOM      6  S   UNL     1       1.495   4.029  18.155  0.00  0.00    +0.000 S 
ATOM      7  C   UNL     1       1.003   2.486  18.697  0.00  0.00    +0.000 A 
ATOM      8  N   UNL     1       1.857   1.846  19.459  0.00  0.00    +0.000 NA
ATOM      9  C   UNL     1       2.992   2.617  19.639  0.00  0.00    +0.000 A 
ATOM     10 CL   UNL     1       4.258   1.968  20.604  0.00  0.00    +0.000 Cl
ENDBRANCH   2   5
BRANCH   3  11
ATOM     11  C   UNL     1       6.199   5.644  18.150  0.00  0.00    +0.000 C 
BRANCH  11  12
ATOM     12  C   UNL     1       7.399   5.121  17.344  0.00  0.00    +0.000 C 
BRANCH  12  13
ATOM     13  N   UNL     1       7.503   5.816  16.072  0.00  0.00    +0.000 N 
ATOM     14  C   UNL     1       7.233   5.134  14.896  0.00  0.00    +0.000 A 
ATOM     15  C   UNL     1       6.279   4.124  14.760  0.00  0.00    +0.000 A 
ATOM     16  N   UNL     1       6.000   3.495  13.588  0.00  0.00    +0.000 NA
ATOM     17  C   UNL     1       6.699   3.943  12.527  0.00  0.00    +0.000 A 
ATOM     18  C   UNL     1       7.637   4.952  12.639  0.00  0.00    +0.000 A 
ATOM     19  N   UNL     1       7.928   5.554  13.818  0.00  0.00    +0.000 NA
ATOM     20  H   UNL     1       8.339   6.373  15.913  0.00  0.00    +0.000 HD
ENDBRANCH  12  13
ENDBRANCH  11  12
ENDBRANCH   3  11
TORSDOF 4
ENDMDL
MODEL 8
REMARK VINA RESULT:      -6.3      2.542      3.686
REMARK  Name = 
REMARK  4 active torsions:
REMARK  status: ('A' for Active; 'I' for Inactive)
REMARK    1  A    between atoms: C_2  and  C_13
REMARK    2  A    between atoms: N_3  and  C_4
REMARK    3  A    between atoms: C_4  and  C_5
REMARK    4  A    between atoms: C_5  and  N_6
REMARK                            x       y       z     vdW  Elec       q    Type
REMARK                         _______ _______ _______ _____ _____    ______ ____
ROOT
ATOM      1  O   UNL     1       5.279   3.830  20.259  0.00  0.00    +0.000 OA
ATOM      2  C   UNL     1       4.568   3.996  19.272  0.00  0.00    +0.000 C 
ATOM      3  N   UNL     1       5.053   4.696  18.182  0.00  0.00    +0.000 N 
ATOM      4  H   UNL     1       4.445   4.883  17.394  0.00  0.00    +0.000 HD
ENDROOT
BRANCH   2   5
ATOM      5  C   UNL     1       3.206   3.504  19.172  0.00  0.00    +0.000 A 
ATOM      6  S   UNL     1       2.421   3.550  17.634  0.00  0.00    +0.000 S 
ATOM      7  C   UNL     1       1.021   2.861  18.328  0.00  0.00    +0.000 A 
ATOM      8  N   UNL     1       1.087   2.597  19.612  0.00  0.00    +0.000 NA
ATOM      9  C   UNL     1       2.330   2.962  20.101  0.00  0.00    +0.000 A 
ATOM     10 CL   UNL     1       2.644   2.698  21.769  0.00  0.00    +0.000 Cl
ENDBRANCH   2   5
BRANCH   3  11
ATOM     11  C   UNL     1       6.386   5.275  18.173  0.00  0.00    +0.000 C 
BRANCH  11  12
ATOM     12  C   UNL     1       7.296   4.640  17.110  0.00  0.00    +0.000 C 
BRANCH  12  13
ATOM     13  N   UNL     1       7.393   5.497  15.940  0.00  0.00    +0.000 N 
ATOM     14  C   UNL     1       7.191   4.960  14.679  0.00  0.00    +0.000 A 
ATOM     15  C   UNL     1       6.298   3.927  14.385  0.00  0.00    +0.000 A 
ATOM     16  N   UNL     1       6.083   3.441  13.135  0.00  0.00    +0.000 NA
ATOM     17  C   UNL     1       6.783   4.058  12.161  0.00  0.00    +0.000 A 
ATOM     18  C   UNL     1       7.660   5.092  12.431  0.00  0.00    +0.000 A 
ATOM     19  N   UNL     1       7.888   5.551  13.686  0.00  0.00    +0.000 NA
ATOM     20  H   UNL     1       8.201   6.113  15.880  0.00  0.00    +0.000 HD
ENDBRANCH  12  13
ENDBRANCH  11  12
ENDBRANCH   3  11
TORSDOF 4
ENDMDL
MODEL 9
REMARK VINA RESULT:      -6.2      4.330      6.301
REMARK  Name = 
REMARK  4 active torsions:
REMARK  status: ('A' for Active; 'I' for Inactive)
REMARK    1  A    between atoms: C_2  and  C_13
REMARK    2  A    between atoms: N_3  and  C_4
REMARK    3  A    between atoms: C_4  and  C_5
REMARK    4  A    between atoms: C_5  and  N_6
REMARK                            x       y       z     vdW  Elec       q    Type
REMARK                         _______ _______ _______ _____ _____    ______ ____
ROOT
ATOM      1  O   UNL     1       5.363   3.650  19.379  0.00  0.00    +0.000 OA
ATOM      2  C   UNL     1       4.970   4.301  18.415  0.00  0.00    +0.000 C 
ATOM      3  N   UNL     1       3.645   4.687  18.337  0.00  0.00    +0.000 N 
ATOM      4  H   UNL     1       3.309   5.171  17.513  0.00  0.00    +0.000 HD
ENDROOT
BRANCH   2   5
ATOM      5  C   UNL     1       5.826   4.693  17.310  0.00  0.00    +0.000 A 
ATOM      6  S   UNL     1       5.414   4.166  15.717  0.00  0.00    +0.000 S 
ATOM      7  C   UNL     1       6.780   4.980  15.095  0.00  0.00    +0.000 A 
ATOM      8  N   UNL     1       7.520   5.614  15.973  0.00  0.00    +0.000 NA
ATOM      9  C   UNL     1       6.983   5.455  17.239  0.00  0.00    +0.000 A 
ATOM     10 CL   UNL     1       7.790   6.212  18.553  0.00  0.00    +0.000 Cl
ENDBRANCH   2   5
BRANCH   3  11
ATOM     11  C   UNL     1       2.677   4.322  19.359  0.00  0.00    +0.000 C 
BRANCH  11  12
ATOM     12  C   UNL     1       2.479   5.432  20.404  0.00  0.00    +0.000 C 
BRANCH  12  13
ATOM     13  N   UNL     1       2.733   6.738  19.818  0.00  0.00    +0.000 N 
ATOM     14  C   UNL     1       1.835   7.771  20.035  0.00  0.00    +0.000 A 
ATOM     15  C   UNL     1       1.103   7.958  21.209  0.00  0.00    +0.000 A 
ATOM     16  N   UNL     1       0.258   9.002  21.419  0.00  0.00    +0.000 NA
ATOM     17  C   UNL     1       0.194   9.889  20.406  0.00  0.00    +0.000 A 
ATOM     18  C   UNL     1       0.923   9.728  19.243  0.00  0.00    +0.000 A 
ATOM     19  N   UNL     1       1.742   8.669  19.032  0.00  0.00    +0.000 NA
ATOM     20  H   UNL     1       2.992   6.764  18.835  0.00  0.00    +0.000 HD
ENDBRANCH  12  13
ENDBRANCH  11  12
ENDBRANCH   3  11
TORSDOF 4
ENDMDL
