MODEL 1
REMARK VINA RESULT:      -6.6      0.000      0.000
REMARK  Name = 
REMARK  19 active torsions:
REMARK  status: ('A' for Active; 'I' for Inactive)
REMARK    1  A    between atoms: C_1  and  C_2
REMARK    2  A    between atoms: C_2  and  C_3
REMARK    3  A    between atoms: C_3  and  C_4
REMARK    4  A    between atoms: C_4  and  C_5
REMARK    5  A    between atoms: C_5  and  C_6
REMARK    6  A    between atoms: C_6  and  C_7
REMARK    7  A    between atoms: C_7  and  C_8
REMARK    8  A    between atoms: C_8  and  C_9
REMARK    9  A    between atoms: C_9  and  C_10
REMARK   10  A    between atoms: C_10  and  C_11
REMARK   11  A    between atoms: C_11  and  C_12
REMARK   12  A    between atoms: C_12  and  C_13
REMARK   13  A    between atoms: C_13  and  C_14
REMARK   14  A    between atoms: C_14  and  C_15
REMARK   15  A    between atoms: C_15  and  C_16
REMARK   16  A    between atoms: C_16  and  C_17
REMARK   17  A    between atoms: C_17  and  C_18
REMARK   18  A    between atoms: C_18  and  C_20
REMARK   19  A    between atoms: N_27  and  C_28
REMARK                            x       y       z     vdW  Elec       q    Type
REMARK                         _______ _______ _______ _____ _____    ______ ____
ROOT
ATOM      1  C   UNL     1       2.015   9.074  18.203  0.00  0.00    +0.000 C 
ATOM      2  O   UNL     1       2.411   8.674  17.111  0.00  0.00    +0.000 OA
ENDROOT
BRANCH   1   3
ATOM      3  C   UNL     1       1.655  10.476  18.416  0.00  0.00    +0.000 A 
ATOM      4  N   UNL     1       2.369  11.469  17.821  0.00  0.00    +0.000 NA
ATOM      5  N   UNL     1       1.766  12.614  18.211  0.00  0.00    +0.000 N 
ATOM      6  C   UNL     1       0.714  12.368  19.009  0.00  0.00    +0.000 A 
ATOM      7  C   UNL     1       0.613  11.024  19.188  0.00  0.00    +0.000 A 
ATOM      8  C   UNL     1      -0.508  10.788  20.067  0.00  0.00    +0.000 C 
ATOM      9  O   UNL     1      -0.934   9.702  20.448  0.00  0.00    +0.000 OA
ATOM     10  N   UNL     1      -1.024  12.081  20.353  0.00  0.00    +0.000 N 
ATOM     11  C   UNL     1      -0.274  13.088  19.728  0.00  0.00    +0.000 C 
ATOM     12  O   UNL     1      -0.300  14.301  19.783  0.00  0.00    +0.000 OA
ATOM     13  H   UNL     1       2.160  13.496  17.884  0.00  0.00    +0.000 HD
BRANCH  10  14
ATOM     14  C   UNL     1      -2.159  12.342  21.169  0.00  0.00    +0.000 A 
ATOM     15  C   UNL     1      -3.396  12.746  20.631  0.00  0.00    +0.000 A 
ATOM     16  C   UNL     1      -4.492  13.022  21.456  0.00  0.00    +0.000 A 
ATOM     17  C   UNL     1      -4.372  12.908  22.834  0.00  0.00    +0.000 A 
ATOM     18  C   UNL     1      -3.164  12.508  23.391  0.00  0.00    +0.000 A 
ATOM     19  C   UNL     1      -2.080  12.226  22.566  0.00  0.00    +0.000 A 
ATOM     20  F   UNL     1      -0.924  11.951  23.182  0.00  0.00    +0.000 F 
ENDBRANCH  10  14
ENDBRANCH   1   3
BRANCH   1  21
ATOM     21  C   UNL     1       1.880   8.148  19.402  0.00  0.00    +0.000 C 
BRANCH  21  22
ATOM     22  C   UNL     1       2.825   6.958  19.311  0.00  0.00    +0.000 C 
BRANCH  22  23
ATOM     23  C   UNL     1       2.051   5.647  19.250  0.00  0.00    +0.000 C 
BRANCH  23  24
ATOM     24  C   UNL     1       1.472   5.314  20.619  0.00  0.00    +0.000 C 
BRANCH  24  25
ATOM     25  C   UNL     1       2.242   4.171  21.264  0.00  0.00    +0.000 C 
BRANCH  25  26
ATOM     26  C   UNL     1       2.327   2.989  20.312  0.00  0.00    +0.000 C 
BRANCH  26  27
ATOM     27  C   UNL     1       3.764   2.503  20.206  0.00  0.00    +0.000 C 
BRANCH  27  28
ATOM     28  C   UNL     1       4.062   2.054  18.787  0.00  0.00    +0.000 C 
BRANCH  28  29
ATOM     29  C   UNL     1       3.341   2.949  17.793  0.00  0.00    +0.000 C 
BRANCH  29  30
ATOM     30  C   UNL     1       4.342   3.588  16.846  0.00  0.00    +0.000 C 
BRANCH  30  31
ATOM     31  C   UNL     1       5.104   4.691  17.559  0.00  0.00    +0.000 C 
BRANCH  31  32
ATOM     32  C   UNL     1       6.554   4.703  17.104  0.00  0.00    +0.000 C 
BRANCH  32  33
ATOM     33  C   UNL     1       7.481   4.847  18.301  0.00  0.00    +0.000 C 
BRANCH  33  34
ATOM     34  C   UNL     1       7.723   6.317  18.608  0.00  0.00    +0.000 C 
BRANCH  34  35
ATOM     35  C   UNL     1       7.717   7.135  17.324  0.00  0.00    +0.000 C 
BRANCH  35  37
ATOM     36  C   UNL     1       8.570   9.239  18.374  0.00  0.00    +0.000 C 
ATOM     37  C   UNL     1       7.422   8.602  17.614  0.00  0.00    +0.000 C 
ENDBRANCH  35  37
ENDBRANCH  34  35
ENDBRANCH  33  34
ENDBRANCH  32  33
ENDBRANCH  31  32
ENDBRANCH  30  31
ENDBRANCH  29  30
ENDBRANCH  28  29
ENDBRANCH  27  28
ENDBRANCH  26  27
ENDBRANCH  25  26
ENDBRANCH  24  25
ENDBRANCH  23  24
ENDBRANCH  22  23
ENDBRANCH  21  22
ENDBRANCH   1  21
TORSDOF 18
ENDMDL
MODEL 2
REMARK VINA RESULT:      -6.6      2.241      3.115
REMARK  Name = 
REMARK  19 active torsions:
REMARK  status: ('A' for Active; 'I' for Inactive)
REMARK    1  A    between atoms: C_1  and  C_2
REMARK    2  A    between atoms: C_2  and  C_3
REMARK    3  A    between atoms: C_3  and  C_4
REMARK    4  A    between atoms: C_4  and  C_5
REMARK    5  A    between atoms: C_5  and  C_6
REMARK    6  A    between atoms: C_6  and  C_7
REMARK    7  A    between atoms: C_7  and  C_8
REMARK    8  A    between atoms: C_8  and  C_9
REMARK    9  A    between atoms: C_9  and  C_10
REMARK   10  A    between atoms: C_10  and  C_11
REMARK   11  A    between atoms: C_11  and  C_12
REMARK   12  A    between atoms: C_12  and  C_13
REMARK   13  A    between atoms: C_13  and  C_14
REMARK   14  A    between atoms: C_14  and  C_15
REMARK   15  A    between atoms: C_15  and  C_16
REMARK   16  A    between atoms: C_16  and  C_17
REMARK   17  A    between atoms: C_17  and  C_18
REMARK   18  A    between atoms: C_18  and  C_20
REMARK   19  A    between atoms: N_27  and  C_28
REMARK                            x       y       z     vdW  Elec       q    Type
REMARK                         _______ _______ _______ _____ _____    ______ ____
ROOT
ATOM      1  C   UNL     1       0.813   8.223  20.835  0.00  0.00    +0.000 C 
ATOM      2  O   UNL     1      -0.146   8.125  21.599  0.00  0.00    +0.000 OA
ENDROOT
BRANCH   1   3
ATOM      3  C   UNL     1       0.973   9.383  19.959  0.00  0.00    +0.000 A 
ATOM      4  N   UNL     1       1.420   9.227  18.684  0.00  0.00    +0.000 NA
ATOM      5  N   UNL     1       1.432  10.474  18.163  0.00  0.00    +0.000 N 
ATOM      6  C   UNL     1       1.006  11.383  19.055  0.00  0.00    +0.000 A 
ATOM      7  C   UNL     1       0.721  10.743  20.221  0.00  0.00    +0.000 A 
ATOM      8  C   UNL     1       0.290  11.744  21.170  0.00  0.00    +0.000 C 
ATOM      9  O   UNL     1      -0.074  11.558  22.326  0.00  0.00    +0.000 OA
ATOM     10  N   UNL     1       0.344  12.970  20.453  0.00  0.00    +0.000 N 
ATOM     11  C   UNL     1       0.807  12.785  19.142  0.00  0.00    +0.000 C 
ATOM     12  O   UNL     1       1.095  13.551  18.245  0.00  0.00    +0.000 OA
ATOM     13  H   UNL     1       1.756  10.587  17.203  0.00  0.00    +0.000 HD
BRANCH  10  14
ATOM     14  C   UNL     1      -0.020  14.239  20.983  0.00  0.00    +0.000 A 
ATOM     15  C   UNL     1       0.867  15.016  21.753  0.00  0.00    +0.000 A 
ATOM     16  C   UNL     1       0.478  16.248  22.287  0.00  0.00    +0.000 A 
ATOM     17  C   UNL     1      -0.808  16.726  22.070  0.00  0.00    +0.000 A 
ATOM     18  C   UNL     1      -1.702  15.981  21.312  0.00  0.00    +0.000 A 
ATOM     19  C   UNL     1      -1.308  14.760  20.776  0.00  0.00    +0.000 A 
ATOM     20  F   UNL     1      -2.257  14.054  20.150  0.00  0.00    +0.000 F 
ENDBRANCH  10  14
ENDBRANCH   1   3
BRANCH   1  21
ATOM     21  C   UNL     1       1.886   7.149  20.744  0.00  0.00    +0.000 C 
BRANCH  21  22
ATOM     22  C   UNL     1       1.288   5.753  20.659  0.00  0.00    +0.000 C 
BRANCH  22  23
ATOM     23  C   UNL     1       2.300   4.695  21.083  0.00  0.00    +0.000 C 
BRANCH  23  24
ATOM     24  C   UNL     1       1.588   3.392  21.422  0.00  0.00    +0.000 C 
BRANCH  24  25
ATOM     25  C   UNL     1       1.832   2.351  20.341  0.00  0.00    +0.000 C 
BRANCH  25  26
ATOM     26  C   UNL     1       3.297   2.344  19.935  0.00  0.00    +0.000 C 
BRANCH  26  27
ATOM     27  C   UNL     1       3.458   1.715  18.561  0.00  0.00    +0.000 C 
BRANCH  27  28
ATOM     28  C   UNL     1       2.484   2.342  17.579  0.00  0.00    +0.000 C 
BRANCH  28  29
ATOM     29  C   UNL     1       3.085   3.603  16.982  0.00  0.00    +0.000 C 
BRANCH  29  30
ATOM     30  C   UNL     1       2.387   4.830  17.543  0.00  0.00    +0.000 C 
BRANCH  30  31
ATOM     31  C   UNL     1       3.385   5.961  17.723  0.00  0.00    +0.000 C 
BRANCH  31  32
ATOM     32  C   UNL     1       4.790   5.473  17.407  0.00  0.00    +0.000 C 
BRANCH  32  33
ATOM     33  C   UNL     1       5.732   6.654  17.238  0.00  0.00    +0.000 C 
BRANCH  33  34
ATOM     34  C   UNL     1       7.159   6.166  17.036  0.00  0.00    +0.000 C 
BRANCH  34  35
ATOM     35  C   UNL     1       7.163   4.777  16.414  0.00  0.00    +0.000 C 
BRANCH  35  37
ATOM     36  C   UNL     1       6.087   3.888  14.339  0.00  0.00    +0.000 C 
ATOM     37  C   UNL     1       7.111   4.860  14.893  0.00  0.00    +0.000 C 
ENDBRANCH  35  37
ENDBRANCH  34  35
ENDBRANCH  33  34
ENDBRANCH  32  33
ENDBRANCH  31  32
ENDBRANCH  30  31
ENDBRANCH  29  30
ENDBRANCH  28  29
ENDBRANCH  27  28
ENDBRANCH  26  27
ENDBRANCH  25  26
ENDBRANCH  24  25
ENDBRANCH  23  24
ENDBRANCH  22  23
ENDBRANCH  21  22
ENDBRANCH   1  21
TORSDOF 18
ENDMDL
MODEL 3
REMARK VINA RESULT:      -6.5      1.682      4.043
REMARK  Name = 
REMARK  19 active torsions:
REMARK  status: ('A' for Active; 'I' for Inactive)
REMARK    1  A    between atoms: C_1  and  C_2
REMARK    2  A    between atoms: C_2  and  C_3
REMARK    3  A    between atoms: C_3  and  C_4
REMARK    4  A    between atoms: C_4  and  C_5
REMARK    5  A    between atoms: C_5  and  C_6
REMARK    6  A    between atoms: C_6  and  C_7
REMARK    7  A    between atoms: C_7  and  C_8
REMARK    8  A    between atoms: C_8  and  C_9
REMARK    9  A    between atoms: C_9  and  C_10
REMARK   10  A    between atoms: C_10  and  C_11
REMARK   11  A    between atoms: C_11  and  C_12
REMARK   12  A    between atoms: C_12  and  C_13
REMARK   13  A    between atoms: C_13  and  C_14
REMARK   14  A    between atoms: C_14  and  C_15
REMARK   15  A    between atoms: C_15  and  C_16
REMARK   16  A    between atoms: C_16  and  C_17
REMARK   17  A    between atoms: C_17  and  C_18
REMARK   18  A    between atoms: C_18  and  C_20
REMARK   19  A    between atoms: N_27  and  C_28
REMARK                            x       y       z     vdW  Elec       q    Type
REMARK                         _______ _______ _______ _____ _____    ______ ____
ROOT
ATOM      1  C   UNL     1       1.596   8.014  20.246  0.00  0.00    +0.000 C 
ATOM      2  O   UNL     1       1.756   7.943  21.462  0.00  0.00    +0.000 OA
ENDROOT
BRANCH   1   3
ATOM      3  C   UNL     1       1.158   9.255  19.606  0.00  0.00    +0.000 A 
ATOM      4  N   UNL     1       1.481   9.513  18.310  0.00  0.00    +0.000 NA
ATOM      5  N   UNL     1       0.914  10.709  18.041  0.00  0.00    +0.000 N 
ATOM      6  C   UNL     1       0.254  11.191  19.107  0.00  0.00    +0.000 A 
ATOM      7  C   UNL     1       0.396  10.313  20.135  0.00  0.00    +0.000 A 
ATOM      8  C   UNL     1      -0.301  10.864  21.274  0.00  0.00    +0.000 C 
ATOM      9  O   UNL     1      -0.422  10.357  22.385  0.00  0.00    +0.000 OA
ATOM     10  N   UNL     1      -0.844  12.092  20.807  0.00  0.00    +0.000 N 
ATOM     11  C   UNL     1      -0.499  12.337  19.470  0.00  0.00    +0.000 C 
ATOM     12  O   UNL     1      -0.660  13.286  18.730  0.00  0.00    +0.000 OA
ATOM     13  H   UNL     1       1.050  11.104  17.111  0.00  0.00    +0.000 HD
BRANCH  10  14
ATOM     14  C   UNL     1      -1.640  12.978  21.586  0.00  0.00    +0.000 A 
ATOM     15  C   UNL     1      -3.046  12.996  21.502  0.00  0.00    +0.000 A 
ATOM     16  C   UNL     1      -3.807  13.894  22.259  0.00  0.00    +0.000 A 
ATOM     17  C   UNL     1      -3.179  14.796  23.108  0.00  0.00    +0.000 A 
ATOM     18  C   UNL     1      -1.794  14.797  23.212  0.00  0.00    +0.000 A 
ATOM     19  C   UNL     1      -1.042  13.896  22.464  0.00  0.00    +0.000 A 
ATOM     20  F   UNL     1       0.287  14.031  22.538  0.00  0.00    +0.000 F 
ENDBRANCH  10  14
ENDBRANCH   1   3
BRANCH   1  21
ATOM     21  C   UNL     1       1.832   6.824  19.329  0.00  0.00    +0.000 C 
BRANCH  21  22
ATOM     22  C   UNL     1       3.047   6.012  19.752  0.00  0.00    +0.000 C 
BRANCH  22  23
ATOM     23  C   UNL     1       4.287   6.433  18.972  0.00  0.00    +0.000 C 
BRANCH  23  24
ATOM     24  C   UNL     1       3.889   6.986  17.609  0.00  0.00    +0.000 C 
BRANCH  24  25
ATOM     25  C   UNL     1       5.107   7.117  16.708  0.00  0.00    +0.000 C 
BRANCH  25  26
ATOM     26  C   UNL     1       6.383   6.939  17.515  0.00  0.00    +0.000 C 
BRANCH  26  27
ATOM     27  C   UNL     1       7.365   6.060  16.757  0.00  0.00    +0.000 C 
BRANCH  27  28
ATOM     28  C   UNL     1       7.024   4.595  16.963  0.00  0.00    +0.000 C 
BRANCH  28  29
ATOM     29  C   UNL     1       6.538   3.984  15.660  0.00  0.00    +0.000 C 
BRANCH  29  30
ATOM     30  C   UNL     1       5.023   3.871  15.670  0.00  0.00    +0.000 C 
BRANCH  30  31
ATOM     31  C   UNL     1       4.541   3.450  17.047  0.00  0.00    +0.000 C 
BRANCH  31  32
ATOM     32  C   UNL     1       3.023   3.499  17.106  0.00  0.00    +0.000 C 
BRANCH  32  33
ATOM     33  C   UNL     1       2.471   2.170  17.597  0.00  0.00    +0.000 C 
BRANCH  33  34
ATOM     34  C   UNL     1       2.391   2.159  19.116  0.00  0.00    +0.000 C 
BRANCH  34  35
ATOM     35  C   UNL     1       1.115   2.843  19.585  0.00  0.00    +0.000 C 
BRANCH  35  37
ATOM     36  C   UNL     1       2.482   2.872  21.680  0.00  0.00    +0.000 C 
ATOM     37  C   UNL     1       1.079   2.945  21.106  0.00  0.00    +0.000 C 
ENDBRANCH  35  37
ENDBRANCH  34  35
ENDBRANCH  33  34
ENDBRANCH  32  33
ENDBRANCH  31  32
ENDBRANCH  30  31
ENDBRANCH  29  30
ENDBRANCH  28  29
ENDBRANCH  27  28
ENDBRANCH  26  27
ENDBRANCH  25  26
ENDBRANCH  24  25
ENDBRANCH  23  24
ENDBRANCH  22  23
ENDBRANCH  21  22
ENDBRANCH   1  21
TORSDOF 18
ENDMDL
MODEL 4
REMARK VINA RESULT:      -6.4      2.271      3.801
REMARK  Name = 
REMARK  19 active torsions:
REMARK  status: ('A' for Active; 'I' for Inactive)
REMARK    1  A    between atoms: C_1  and  C_2
REMARK    2  A    between atoms: C_2  and  C_3
REMARK    3  A    between atoms: C_3  and  C_4
REMARK    4  A    between atoms: C_4  and  C_5
REMARK    5  A    between atoms: C_5  and  C_6
REMARK    6  A    between atoms: C_6  and  C_7
REMARK    7  A    between atoms: C_7  and  C_8
REMARK    8  A    between atoms: C_8  and  C_9
REMARK    9  A    between atoms: C_9  and  C_10
REMARK   10  A    between atoms: C_10  and  C_11
REMARK   11  A    between atoms: C_11  and  C_12
REMARK   12  A    between atoms: C_12  and  C_13
REMARK   13  A    between atoms: C_13  and  C_14
REMARK   14  A    between atoms: C_14  and  C_15
REMARK   15  A    between atoms: C_15  and  C_16
REMARK   16  A    between atoms: C_16  and  C_17
REMARK   17  A    between atoms: C_17  and  C_18
REMARK   18  A    between atoms: C_18  and  C_20
REMARK   19  A    between atoms: N_27  and  C_28
REMARK                            x       y       z     vdW  Elec       q    Type
REMARK                         _______ _______ _______ _____ _____    ______ ____
ROOT
ATOM      1  C   UNL     1       2.212   7.389  19.157  0.00  0.00    +0.000 C 
ATOM      2  O   UNL     1       2.392   7.706  17.983  0.00  0.00    +0.000 OA
ENDROOT
BRANCH   1   3
ATOM      3  C   UNL     1       1.585   8.309  20.106  0.00  0.00    +0.000 A 
ATOM      4  N   UNL     1       1.119   7.855  21.300  0.00  0.00    +0.000 NA
ATOM      5  N   UNL     1       0.630   8.949  21.923  0.00  0.00    +0.000 N 
ATOM      6  C   UNL     1       0.781  10.051  21.171  0.00  0.00    +0.000 A 
ATOM      7  C   UNL     1       1.365   9.695  19.995  0.00  0.00    +0.000 A 
ATOM      8  C   UNL     1       1.494  10.891  19.196  0.00  0.00    +0.000 C 
ATOM      9  O   UNL     1       1.993  10.984  18.079  0.00  0.00    +0.000 OA
ATOM     10  N   UNL     1       0.957  11.928  20.006  0.00  0.00    +0.000 N 
ATOM     11  C   UNL     1       0.484  11.437  21.231  0.00  0.00    +0.000 C 
ATOM     12  O   UNL     1      -0.126  11.944  22.151  0.00  0.00    +0.000 OA
ATOM     13  H   UNL     1       0.210   8.827  22.844  0.00  0.00    +0.000 HD
BRANCH  10  14
ATOM     14  C   UNL     1       0.896  13.300  19.635  0.00  0.00    +0.000 A 
ATOM     15  C   UNL     1       1.954  14.195  19.886  0.00  0.00    +0.000 A 
ATOM     16  C   UNL     1       1.862  15.546  19.537  0.00  0.00    +0.000 A 
ATOM     17  C   UNL     1       0.708  16.033  18.937  0.00  0.00    +0.000 A 
ATOM     18  C   UNL     1      -0.350  15.171  18.674  0.00  0.00    +0.000 A 
ATOM     19  C   UNL     1      -0.250  13.826  19.016  0.00  0.00    +0.000 A 
ATOM     20  F   UNL     1      -1.348  13.085  18.829  0.00  0.00    +0.000 F 
ENDBRANCH  10  14
ENDBRANCH   1   3
BRANCH   1  21
ATOM     21  C   UNL     1       2.631   6.032  19.702  0.00  0.00    +0.000 C 
BRANCH  21  22
ATOM     22  C   UNL     1       1.628   4.943  19.348  0.00  0.00    +0.000 C 
BRANCH  22  23
ATOM     23  C   UNL     1       1.863   3.689  20.181  0.00  0.00    +0.000 C 
BRANCH  23  24
ATOM     24  C   UNL     1       1.424   2.453  19.406  0.00  0.00    +0.000 C 
BRANCH  24  25
ATOM     25  C   UNL     1       2.078   2.421  18.033  0.00  0.00    +0.000 C 
BRANCH  25  26
ATOM     26  C   UNL     1       3.586   2.561  18.163  0.00  0.00    +0.000 C 
BRANCH  26  27
ATOM     27  C   UNL     1       4.155   3.261  16.939  0.00  0.00    +0.000 C 
BRANCH  27  28
ATOM     28  C   UNL     1       4.977   4.467  17.360  0.00  0.00    +0.000 C 
BRANCH  28  29
ATOM     29  C   UNL     1       6.362   4.395  16.741  0.00  0.00    +0.000 C 
BRANCH  29  30
ATOM     30  C   UNL     1       7.350   5.188  17.580  0.00  0.00    +0.000 C 
BRANCH  30  31
ATOM     31  C   UNL     1       6.744   6.524  17.976  0.00  0.00    +0.000 C 
BRANCH  31  32
ATOM     32  C   UNL     1       7.564   7.662  17.391  0.00  0.00    +0.000 C 
BRANCH  32  33
ATOM     33  C   UNL     1       8.533   8.201  18.431  0.00  0.00    +0.000 C 
BRANCH  33  34
ATOM     34  C   UNL     1       8.641   9.715  18.319  0.00  0.00    +0.000 C 
BRANCH  34  35
ATOM     35  C   UNL     1       9.371  10.285  19.527  0.00  0.00    +0.000 C 
BRANCH  35  37
ATOM     36  C   UNL     1       9.885  12.006  17.786  0.00  0.00    +0.000 C 
ATOM     37  C   UNL     1      10.315  11.408  19.112  0.00  0.00    +0.000 C 
ENDBRANCH  35  37
ENDBRANCH  34  35
ENDBRANCH  33  34
ENDBRANCH  32  33
ENDBRANCH  31  32
ENDBRANCH  30  31
ENDBRANCH  29  30
ENDBRANCH  28  29
ENDBRANCH  27  28
ENDBRANCH  26  27
ENDBRANCH  25  26
ENDBRANCH  24  25
ENDBRANCH  23  24
ENDBRANCH  22  23
ENDBRANCH  21  22
ENDBRANCH   1  21
TORSDOF 18
ENDMDL
MODEL 5
REMARK VINA RESULT:      -6.4      3.428     10.651
REMARK  Name = 
REMARK  19 active torsions:
REMARK  status: ('A' for Active; 'I' for Inactive)
REMARK    1  A    between atoms: C_1  and  C_2
REMARK    2  A    between atoms: C_2  and  C_3
REMARK    3  A    between atoms: C_3  and  C_4
REMARK    4  A    between atoms: C_4  and  C_5
REMARK    5  A    between atoms: C_5  and  C_6
REMARK    6  A    between atoms: C_6  and  C_7
REMARK    7  A    between atoms: C_7  and  C_8
REMARK    8  A    between atoms: C_8  and  C_9
REMARK    9  A    between atoms: C_9  and  C_10
REMARK   10  A    between atoms: C_10  and  C_11
REMARK   11  A    between atoms: C_11  and  C_12
REMARK   12  A    between atoms: C_12  and  C_13
REMARK   13  A    between atoms: C_13  and  C_14
REMARK   14  A    between atoms: C_14  and  C_15
REMARK   15  A    between atoms: C_15  and  C_16
REMARK   16  A    between atoms: C_16  and  C_17
REMARK   17  A    between atoms: C_17  and  C_18
REMARK   18  A    between atoms: C_18  and  C_20
REMARK   19  A    between atoms: N_27  and  C_28
REMARK                            x       y       z     vdW  Elec       q    Type
REMARK                         _______ _______ _______ _____ _____    ______ ____
ROOT
ATOM      1  C   UNL     1       1.360   8.376  20.052  0.00  0.00    +0.000 C 
ATOM      2  O   UNL     1       1.406   9.091  19.054  0.00  0.00    +0.000 OA
ENDROOT
BRANCH   1   3
ATOM      3  C   UNL     1       2.006   7.064  20.080  0.00  0.00    +0.000 A 
ATOM      4  N   UNL     1       1.743   6.188  21.086  0.00  0.00    +0.000 NA
ATOM      5  N   UNL     1       2.478   5.092  20.797  0.00  0.00    +0.000 N 
ATOM      6  C   UNL     1       3.172   5.253  19.658  0.00  0.00    +0.000 A 
ATOM      7  C   UNL     1       2.922   6.499  19.174  0.00  0.00    +0.000 A 
ATOM      8  C   UNL     1       3.697   6.656  17.964  0.00  0.00    +0.000 C 
ATOM      9  O   UNL     1       3.724   7.635  17.225  0.00  0.00    +0.000 OA
ATOM     10  N   UNL     1       4.379   5.419  17.807  0.00  0.00    +0.000 N 
ATOM     11  C   UNL     1       4.092   4.532  18.855  0.00  0.00    +0.000 C 
ATOM     12  O   UNL     1       4.525   3.439  19.162  0.00  0.00    +0.000 OA
ATOM     13  H   UNL     1       2.440   4.306  21.445  0.00  0.00    +0.000 HD
BRANCH  10  14
ATOM     14  C   UNL     1       5.249   5.102  16.728  0.00  0.00    +0.000 A 
ATOM     15  C   UNL     1       4.842   4.302  15.642  0.00  0.00    +0.000 A 
ATOM     16  C   UNL     1       5.723   3.982  14.605  0.00  0.00    +0.000 A 
ATOM     17  C   UNL     1       7.032   4.446  14.634  0.00  0.00    +0.000 A 
ATOM     18  C   UNL     1       7.459   5.239  15.691  0.00  0.00    +0.000 A 
ATOM     19  C   UNL     1       6.576   5.562  16.717  0.00  0.00    +0.000 A 
ATOM     20  F   UNL     1       7.091   6.239  17.749  0.00  0.00    +0.000 F 
ENDBRANCH  10  14
ENDBRANCH   1   3
BRANCH   1  21
ATOM     21  C   UNL     1       0.627   8.800  21.317  0.00  0.00    +0.000 C 
BRANCH  21  22
ATOM     22  C   UNL     1      -0.328   9.956  21.060  0.00  0.00    +0.000 C 
BRANCH  22  23
ATOM     23  C   UNL     1       0.339  11.295  21.354  0.00  0.00    +0.000 C 
BRANCH  23  24
ATOM     24  C   UNL     1      -0.716  12.369  21.583  0.00  0.00    +0.000 C 
BRANCH  24  25
ATOM     25  C   UNL     1      -1.370  12.196  22.946  0.00  0.00    +0.000 C 
BRANCH  25  26
ATOM     26  C   UNL     1      -1.720  13.550  23.540  0.00  0.00    +0.000 C 
BRANCH  26  27
ATOM     27  C   UNL     1      -3.089  13.998  23.054  0.00  0.00    +0.000 C 
BRANCH  27  28
ATOM     28  C   UNL     1      -4.139  12.964  23.421  0.00  0.00    +0.000 C 
BRANCH  28  29
ATOM     29  C   UNL     1      -5.195  12.883  22.332  0.00  0.00    +0.000 C 
BRANCH  29  30
ATOM     30  C   UNL     1      -4.539  12.624  20.987  0.00  0.00    +0.000 C 
BRANCH  30  31
ATOM     31  C   UNL     1      -5.564  12.090  20.001  0.00  0.00    +0.000 C 
BRANCH  31  32
ATOM     32  C   UNL     1      -5.182  12.487  18.584  0.00  0.00    +0.000 C 
BRANCH  32  33
ATOM     33  C   UNL     1      -5.473  11.348  17.621  0.00  0.00    +0.000 C 
BRANCH  33  34
ATOM     34  C   UNL     1      -4.215  10.971  16.853  0.00  0.00    +0.000 C 
BRANCH  34  35
ATOM     35  C   UNL     1      -3.340  10.048  17.689  0.00  0.00    +0.000 C 
BRANCH  35  37
ATOM     36  C   UNL     1      -1.503  11.717  17.999  0.00  0.00    +0.000 C 
ATOM     37  C   UNL     1      -1.863  10.345  17.460  0.00  0.00    +0.000 C 
ENDBRANCH  35  37
ENDBRANCH  34  35
ENDBRANCH  33  34
ENDBRANCH  32  33
ENDBRANCH  31  32
ENDBRANCH  30  31
ENDBRANCH  29  30
ENDBRANCH  28  29
ENDBRANCH  27  28
ENDBRANCH  26  27
ENDBRANCH  25  26
ENDBRANCH  24  25
ENDBRANCH  23  24
ENDBRANCH  22  23
ENDBRANCH  21  22
ENDBRANCH   1  21
TORSDOF 18
ENDMDL
MODEL 6
REMARK VINA RESULT:      -6.4      2.048      4.417
REMARK  Name = 
REMARK  19 active torsions:
REMARK  status: ('A' for Active; 'I' for Inactive)
REMARK    1  A    between atoms: C_1  and  C_2
REMARK    2  A    between atoms: C_2  and  C_3
REMARK    3  A    between atoms: C_3  and  C_4
REMARK    4  A    between atoms: C_4  and  C_5
REMARK    5  A    between atoms: C_5  and  C_6
REMARK    6  A    between atoms: C_6  and  C_7
REMARK    7  A    between atoms: C_7  and  C_8
REMARK    8  A    between atoms: C_8  and  C_9
REMARK    9  A    between atoms: C_9  and  C_10
REMARK   10  A    between atoms: C_10  and  C_11
REMARK   11  A    between atoms: C_11  and  C_12
REMARK   12  A    between atoms: C_12  and  C_13
REMARK   13  A    between atoms: C_13  and  C_14
REMARK   14  A    between atoms: C_14  and  C_15
REMARK   15  A    between atoms: C_15  and  C_16
REMARK   16  A    between atoms: C_16  and  C_17
REMARK   17  A    between atoms: C_17  and  C_18
REMARK   18  A    between atoms: C_18  and  C_20
REMARK   19  A    between atoms: N_27  and  C_28
REMARK                            x       y       z     vdW  Elec       q    Type
REMARK                         _______ _______ _______ _____ _____    ______ ____
ROOT
ATOM      1  C   UNL     1       1.717   9.226  18.404  0.00  0.00    +0.000 C 
ATOM      2  O   UNL     1       2.101  10.295  17.934  0.00  0.00    +0.000 OA
ENDROOT
BRANCH   1   3
ATOM      3  C   UNL     1       1.393   9.091  19.824  0.00  0.00    +0.000 A 
ATOM      4  N   UNL     1       1.855   8.029  20.538  0.00  0.00    +0.000 NA
ATOM      5  N   UNL     1       1.392   8.224  21.792  0.00  0.00    +0.000 N 
ATOM      6  C   UNL     1       0.678   9.357  21.882  0.00  0.00    +0.000 A 
ATOM      7  C   UNL     1       0.630   9.935  20.652  0.00  0.00    +0.000 A 
ATOM      8  C   UNL     1      -0.163  11.137  20.769  0.00  0.00    +0.000 C 
ATOM      9  O   UNL     1      -0.418  11.945  19.881  0.00  0.00    +0.000 OA
ATOM     10  N   UNL     1      -0.540  11.191  22.138  0.00  0.00    +0.000 N 
ATOM     11  C   UNL     1      -0.053  10.087  22.854  0.00  0.00    +0.000 C 
ATOM     12  O   UNL     1      -0.219   9.693  23.991  0.00  0.00    +0.000 OA
ATOM     13  H   UNL     1       1.614   7.522  22.498  0.00  0.00    +0.000 HD
BRANCH  10  14
ATOM     14  C   UNL     1      -1.316  12.227  22.728  0.00  0.00    +0.000 A 
ATOM     15  C   UNL     1      -2.633  12.016  23.180  0.00  0.00    +0.000 A 
ATOM     16  C   UNL     1      -3.387  13.057  23.732  0.00  0.00    +0.000 A 
ATOM     17  C   UNL     1      -2.844  14.330  23.838  0.00  0.00    +0.000 A 
ATOM     18  C   UNL     1      -1.546  14.565  23.403  0.00  0.00    +0.000 A 
ATOM     19  C   UNL     1      -0.797  13.525  22.862  0.00  0.00    +0.000 A 
ATOM     20  F   UNL     1       0.403  13.853  22.369  0.00  0.00    +0.000 F 
ENDBRANCH  10  14
ENDBRANCH   1   3
BRANCH   1  21
ATOM     21  C   UNL     1       1.562   7.977  17.550  0.00  0.00    +0.000 C 
BRANCH  21  22
ATOM     22  C   UNL     1       2.662   6.962  17.822  0.00  0.00    +0.000 C 
BRANCH  22  23
ATOM     23  C   UNL     1       4.038   7.556  17.544  0.00  0.00    +0.000 C 
BRANCH  23  24
ATOM     24  C   UNL     1       4.691   6.843  16.366  0.00  0.00    +0.000 C 
BRANCH  24  25
ATOM     25  C   UNL     1       6.192   6.724  16.577  0.00  0.00    +0.000 C 
BRANCH  25  26
ATOM     26  C   UNL     1       6.489   6.182  17.966  0.00  0.00    +0.000 C 
BRANCH  26  27
ATOM     27  C   UNL     1       6.681   4.675  17.910  0.00  0.00    +0.000 C 
BRANCH  27  28
ATOM     28  C   UNL     1       5.838   3.999  18.977  0.00  0.00    +0.000 C 
BRANCH  28  29
ATOM     29  C   UNL     1       4.372   4.029  18.580  0.00  0.00    +0.000 C 
BRANCH  29  30
ATOM     30  C   UNL     1       4.188   3.391  17.214  0.00  0.00    +0.000 C 
BRANCH  30  31
ATOM     31  C   UNL     1       2.890   2.603  17.177  0.00  0.00    +0.000 C 
BRANCH  31  32
ATOM     32  C   UNL     1       2.432   2.284  18.591  0.00  0.00    +0.000 C 
BRANCH  32  33
ATOM     33  C   UNL     1       0.915   2.330  18.677  0.00  0.00    +0.000 C 
BRANCH  33  34
ATOM     34  C   UNL     1       0.476   3.252  19.804  0.00  0.00    +0.000 C 
BRANCH  34  35
ATOM     35  C   UNL     1       1.525   4.328  20.048  0.00  0.00    +0.000 C 
BRANCH  35  37
ATOM     36  C   UNL     1       1.871   2.804  22.001  0.00  0.00    +0.000 C 
ATOM     37  C   UNL     1       2.137   4.187  21.437  0.00  0.00    +0.000 C 
ENDBRANCH  35  37
ENDBRANCH  34  35
ENDBRANCH  33  34
ENDBRANCH  32  33
ENDBRANCH  31  32
ENDBRANCH  30  31
ENDBRANCH  29  30
ENDBRANCH  28  29
ENDBRANCH  27  28
ENDBRANCH  26  27
ENDBRANCH  25  26
ENDBRANCH  24  25
ENDBRANCH  23  24
ENDBRANCH  22  23
ENDBRANCH  21  22
ENDBRANCH   1  21
TORSDOF 18
ENDMDL
MODEL 7
REMARK VINA RESULT:      -6.3      2.633      5.258
REMARK  Name = 
REMARK  19 active torsions:
REMARK  status: ('A' for Active; 'I' for Inactive)
REMARK    1  A    between atoms: C_1  and  C_2
REMARK    2  A    between atoms: C_2  and  C_3
REMARK    3  A    between atoms: C_3  and  C_4
REMARK    4  A    between atoms: C_4  and  C_5
REMARK    5  A    between atoms: C_5  and  C_6
REMARK    6  A    between atoms: C_6  and  C_7
REMARK    7  A    between atoms: C_7  and  C_8
REMARK    8  A    between atoms: C_8  and  C_9
REMARK    9  A    between atoms: C_9  and  C_10
REMARK   10  A    between atoms: C_10  and  C_11
REMARK   11  A    between atoms: C_11  and  C_12
REMARK   12  A    between atoms: C_12  and  C_13
REMARK   13  A    between atoms: C_13  and  C_14
REMARK   14  A    between atoms: C_14  and  C_15
REMARK   15  A    between atoms: C_15  and  C_16
REMARK   16  A    between atoms: C_16  and  C_17
REMARK   17  A    between atoms: C_17  and  C_18
REMARK   18  A    between atoms: C_18  and  C_20
REMARK   19  A    between atoms: N_27  and  C_28
REMARK                            x       y       z     vdW  Elec       q    Type
REMARK                         _______ _______ _______ _____ _____    ______ ____
ROOT
ATOM      1  C   UNL     1       0.716  12.352  21.154  0.00  0.00    +0.000 C 
ATOM      2  O   UNL     1       1.212  13.475  21.219  0.00  0.00    +0.000 OA
ENDROOT
BRANCH   1   3
ATOM      3  C   UNL     1      -0.400  11.961  22.014  0.00  0.00    +0.000 A 
ATOM      4  N   UNL     1      -0.416  10.738  22.610  0.00  0.00    +0.000 NA
ATOM      5  N   UNL     1      -1.558  10.716  23.331  0.00  0.00    +0.000 N 
ATOM      6  C   UNL     1      -2.237  11.869  23.212  0.00  0.00    +0.000 A 
ATOM      7  C   UNL     1      -1.553  12.687  22.368  0.00  0.00    +0.000 A 
ATOM      8  C   UNL     1      -2.314  13.907  22.238  0.00  0.00    +0.000 C 
ATOM      9  O   UNL     1      -2.015  14.899  21.580  0.00  0.00    +0.000 OA
ATOM     10  N   UNL     1      -3.452  13.716  23.069  0.00  0.00    +0.000 N 
ATOM     11  C   UNL     1      -3.446  12.450  23.672  0.00  0.00    +0.000 C 
ATOM     12  O   UNL     1      -4.252  11.850  24.355  0.00  0.00    +0.000 OA
ATOM     13  H   UNL     1      -1.777   9.868  23.853  0.00  0.00    +0.000 HD
BRANCH  10  14
ATOM     14  C   UNL     1      -4.480  14.678  23.274  0.00  0.00    +0.000 A 
ATOM     15  C   UNL     1      -4.340  15.745  24.182  0.00  0.00    +0.000 A 
ATOM     16  C   UNL     1      -5.375  16.664  24.387  0.00  0.00    +0.000 A 
ATOM     17  C   UNL     1      -6.572  16.531  23.696  0.00  0.00    +0.000 A 
ATOM     18  C   UNL     1      -6.734  15.488  22.792  0.00  0.00    +0.000 A 
ATOM     19  C   UNL     1      -5.699  14.582  22.585  0.00  0.00    +0.000 A 
ATOM     20  F   UNL     1      -5.971  13.548  21.781  0.00  0.00    +0.000 F 
ENDBRANCH  10  14
ENDBRANCH   1   3
BRANCH   1  21
ATOM     21  C   UNL     1       1.231  11.296  20.187  0.00  0.00    +0.000 C 
BRANCH  21  22
ATOM     22  C   UNL     1       0.338  11.166  18.961  0.00  0.00    +0.000 C 
BRANCH  22  23
ATOM     23  C   UNL     1       0.394   9.754  18.389  0.00  0.00    +0.000 C 
BRANCH  23  24
ATOM     24  C   UNL     1       1.778   9.472  17.818  0.00  0.00    +0.000 C 
BRANCH  24  25
ATOM     25  C   UNL     1       2.248   8.081  18.216  0.00  0.00    +0.000 C 
BRANCH  25  26
ATOM     26  C   UNL     1       3.515   7.715  17.459  0.00  0.00    +0.000 C 
BRANCH  26  27
ATOM     27  C   UNL     1       3.943   6.299  17.809  0.00  0.00    +0.000 C 
BRANCH  27  28
ATOM     28  C   UNL     1       5.446   6.151  17.646  0.00  0.00    +0.000 C 
BRANCH  28  29
ATOM     29  C   UNL     1       5.970   5.082  18.590  0.00  0.00    +0.000 C 
BRANCH  29  30
ATOM     30  C   UNL     1       4.815   4.277  19.160  0.00  0.00    +0.000 C 
BRANCH  30  31
ATOM     31  C   UNL     1       4.535   3.071  18.280  0.00  0.00    +0.000 C 
BRANCH  31  32
ATOM     32  C   UNL     1       3.445   2.213  18.902  0.00  0.00    +0.000 C 
BRANCH  32  33
ATOM     33  C   UNL     1       2.240   2.142  17.978  0.00  0.00    +0.000 C 
BRANCH  33  34
ATOM     34  C   UNL     1       0.962   2.426  18.754  0.00  0.00    +0.000 C 
BRANCH  34  35
ATOM     35  C   UNL     1       1.291   2.935  20.150  0.00  0.00    +0.000 C 
BRANCH  35  37
ATOM     36  C   UNL     1       1.929   5.255  20.831  0.00  0.00    +0.000 C 
ATOM     37  C   UNL     1       0.803   4.366  20.338  0.00  0.00    +0.000 C 
ENDBRANCH  35  37
ENDBRANCH  34  35
ENDBRANCH  33  34
ENDBRANCH  32  33
ENDBRANCH  31  32
ENDBRANCH  30  31
ENDBRANCH  29  30
ENDBRANCH  28  29
ENDBRANCH  27  28
ENDBRANCH  26  27
ENDBRANCH  25  26
ENDBRANCH  24  25
ENDBRANCH  23  24
ENDBRANCH  22  23
ENDBRANCH  21  22
ENDBRANCH   1  21
TORSDOF 18
ENDMDL
MODEL 8
REMARK VINA RESULT:      -6.3      3.110      4.904
REMARK  Name = 
REMARK  19 active torsions:
REMARK  status: ('A' for Active; 'I' for Inactive)
REMARK    1  A    between atoms: C_1  and  C_2
REMARK    2  A    between atoms: C_2  and  C_3
REMARK    3  A    between atoms: C_3  and  C_4
REMARK    4  A    between atoms: C_4  and  C_5
REMARK    5  A    between atoms: C_5  and  C_6
REMARK    6  A    between atoms: C_6  and  C_7
REMARK    7  A    between atoms: C_7  and  C_8
REMARK    8  A    between atoms: C_8  and  C_9
REMARK    9  A    between atoms: C_9  and  C_10
REMARK   10  A    between atoms: C_10  and  C_11
REMARK   11  A    between atoms: C_11  and  C_12
REMARK   12  A    between atoms: C_12  and  C_13
REMARK   13  A    between atoms: C_13  and  C_14
REMARK   14  A    between atoms: C_14  and  C_15
REMARK   15  A    between atoms: C_15  and  C_16
REMARK   16  A    between atoms: C_16  and  C_17
REMARK   17  A    between atoms: C_17  and  C_18
REMARK   18  A    between atoms: C_18  and  C_20
REMARK   19  A    between atoms: N_27  and  C_28
REMARK                            x       y       z     vdW  Elec       q    Type
REMARK                         _______ _______ _______ _____ _____    ______ ____
ROOT
ATOM      1  C   UNL     1       0.296   9.756  18.338  0.00  0.00    +0.000 C 
ATOM      2  O   UNL     1      -0.626   9.714  17.527  0.00  0.00    +0.000 OA
ENDROOT
BRANCH   1   3
ATOM      3  C   UNL     1       0.301  10.721  19.437  0.00  0.00    +0.000 A 
ATOM      4  N   UNL     1      -0.557  10.578  20.483  0.00  0.00    +0.000 NA
ATOM      5  N   UNL     1      -0.277  11.611  21.308  0.00  0.00    +0.000 N 
ATOM      6  C   UNL     1       0.716  12.373  20.821  0.00  0.00    +0.000 A 
ATOM      7  C   UNL     1       1.104  11.862  19.622  0.00  0.00    +0.000 A 
ATOM      8  C   UNL     1       2.153  12.712  19.109  0.00  0.00    +0.000 C 
ATOM      9  O   UNL     1       2.775  12.569  18.061  0.00  0.00    +0.000 OA
ATOM     10  N   UNL     1       2.326  13.715  20.102  0.00  0.00    +0.000 N 
ATOM     11  C   UNL     1       1.432  13.547  21.170  0.00  0.00    +0.000 C 
ATOM     12  O   UNL     1       1.174  14.214  22.151  0.00  0.00    +0.000 OA
ATOM     13  H   UNL     1      -0.827  11.703  22.162  0.00  0.00    +0.000 HD
BRANCH  10  14
ATOM     14  C   UNL     1       3.281  14.767  20.037  0.00  0.00    +0.000 A 
ATOM     15  C   UNL     1       4.450  14.772  20.822  0.00  0.00    +0.000 A 
ATOM     16  C   UNL     1       5.362  15.831  20.761  0.00  0.00    +0.000 A 
ATOM     17  C   UNL     1       5.121  16.910  19.920  0.00  0.00    +0.000 A 
ATOM     18  C   UNL     1       3.977  16.929  19.132  0.00  0.00    +0.000 A 
ATOM     19  C   UNL     1       3.077  15.869  19.191  0.00  0.00    +0.000 A 
ATOM     20  F   UNL     1       1.950  16.011  18.484  0.00  0.00    +0.000 F 
ENDBRANCH  10  14
ENDBRANCH   1   3
BRANCH   1  21
ATOM     21  C   UNL     1       1.492   8.820  18.251  0.00  0.00    +0.000 C 
BRANCH  21  22
ATOM     22  C   UNL     1       1.899   8.290  19.618  0.00  0.00    +0.000 C 
BRANCH  22  23
ATOM     23  C   UNL     1       2.489   6.889  19.510  0.00  0.00    +0.000 C 
BRANCH  23  24
ATOM     24  C   UNL     1       1.700   5.917  20.378  0.00  0.00    +0.000 C 
BRANCH  24  25
ATOM     25  C   UNL     1       1.893   4.488  19.894  0.00  0.00    +0.000 C 
BRANCH  25  26
ATOM     26  C   UNL     1       1.400   4.343  18.464  0.00  0.00    +0.000 C 
BRANCH  26  27
ATOM     27  C   UNL     1       2.127   3.202  17.771  0.00  0.00    +0.000 C 
BRANCH  27  28
ATOM     28  C   UNL     1       3.543   3.082  18.305  0.00  0.00    +0.000 C 
BRANCH  28  29
ATOM     29  C   UNL     1       4.527   3.682  17.316  0.00  0.00    +0.000 C 
BRANCH  29  30
ATOM     30  C   UNL     1       5.200   4.901  17.923  0.00  0.00    +0.000 C 
BRANCH  30  31
ATOM     31  C   UNL     1       4.849   6.144  17.123  0.00  0.00    +0.000 C 
BRANCH  31  32
ATOM     32  C   UNL     1       5.342   6.000  15.692  0.00  0.00    +0.000 C 
BRANCH  32  33
ATOM     33  C   UNL     1       6.769   5.474  15.677  0.00  0.00    +0.000 C 
BRANCH  33  34
ATOM     34  C   UNL     1       7.070   4.801  14.346  0.00  0.00    +0.000 C 
BRANCH  34  35
ATOM     35  C   UNL     1       6.110   3.644  14.108  0.00  0.00    +0.000 C 
BRANCH  35  37
ATOM     36  C   UNL     1       6.072   2.599  11.835  0.00  0.00    +0.000 C 
ATOM     37  C   UNL     1       5.515   3.710  12.706  0.00  0.00    +0.000 C 
ENDBRANCH  35  37
ENDBRANCH  34  35
ENDBRANCH  33  34
ENDBRANCH  32  33
ENDBRANCH  31  32
ENDBRANCH  30  31
ENDBRANCH  29  30
ENDBRANCH  28  29
ENDBRANCH  27  28
ENDBRANCH  26  27
ENDBRANCH  25  26
ENDBRANCH  24  25
ENDBRANCH  23  24
ENDBRANCH  22  23
ENDBRANCH  21  22
ENDBRANCH   1  21
TORSDOF 18
ENDMDL
MODEL 9
REMARK VINA RESULT:      -6.3      3.855      8.868
REMARK  Name = 
REMARK  19 active torsions:
REMARK  status: ('A' for Active; 'I' for Inactive)
REMARK    1  A    between atoms: C_1  and  C_2
REMARK    2  A    between atoms: C_2  and  C_3
REMARK    3  A    between atoms: C_3  and  C_4
REMARK    4  A    between atoms: C_4  and  C_5
REMARK    5  A    between atoms: C_5  and  C_6
REMARK    6  A    between atoms: C_6  and  C_7
REMARK    7  A    between atoms: C_7  and  C_8
REMARK    8  A    between atoms: C_8  and  C_9
REMARK    9  A    between atoms: C_9  and  C_10
REMARK   10  A    between atoms: C_10  and  C_11
REMARK   11  A    between atoms: C_11  and  C_12
REMARK   12  A    between atoms: C_12  and  C_13
REMARK   13  A    between atoms: C_13  and  C_14
REMARK   14  A    between atoms: C_14  and  C_15
REMARK   15  A    between atoms: C_15  and  C_16
REMARK   16  A    between atoms: C_16  and  C_17
REMARK   17  A    between atoms: C_17  and  C_18
REMARK   18  A    between atoms: C_18  and  C_20
REMARK   19  A    between atoms: N_27  and  C_28
REMARK                            x       y       z     vdW  Elec       q    Type
REMARK                         _______ _______ _______ _____ _____    ______ ____
ROOT
ATOM      1  C   UNL     1       0.840  11.388  19.269  0.00  0.00    +0.000 C 
ATOM      2  O   UNL     1      -0.279  11.880  19.134  0.00  0.00    +0.000 OA
ENDROOT
BRANCH   1   3
ATOM      3  C   UNL     1       1.036  10.122  19.974  0.00  0.00    +0.000 A 
ATOM      4  N   UNL     1       0.688  10.002  21.284  0.00  0.00    +0.000 NA
ATOM      5  N   UNL     1       0.981   8.724  21.607  0.00  0.00    +0.000 N 
ATOM      6  C   UNL     1       1.483   8.054  20.557  0.00  0.00    +0.000 A 
ATOM      7  C   UNL     1       1.558   8.905  19.499  0.00  0.00    +0.000 A 
ATOM      8  C   UNL     1       2.123   8.170  18.391  0.00  0.00    +0.000 C 
ATOM      9  O   UNL     1       2.328   8.585  17.255  0.00  0.00    +0.000 OA
ATOM     10  N   UNL     1       2.345   6.861  18.900  0.00  0.00    +0.000 N 
ATOM     11  C   UNL     1       1.979   6.761  20.250  0.00  0.00    +0.000 C 
ATOM     12  O   UNL     1       2.092   5.881  21.080  0.00  0.00    +0.000 OA
ATOM     13  H   UNL     1       0.810   8.422  22.566  0.00  0.00    +0.000 HD
BRANCH  10  14
ATOM     14  C   UNL     1       2.873   5.775  18.149  0.00  0.00    +0.000 A 
ATOM     15  C   UNL     1       2.156   4.579  17.950  0.00  0.00    +0.000 A 
ATOM     16  C   UNL     1       2.706   3.514  17.229  0.00  0.00    +0.000 A 
ATOM     17  C   UNL     1       3.986   3.618  16.699  0.00  0.00    +0.000 A 
ATOM     18  C   UNL     1       4.713   4.788  16.878  0.00  0.00    +0.000 A 
ATOM     19  C   UNL     1       4.158   5.848  17.588  0.00  0.00    +0.000 A 
ATOM     20  F   UNL     1       4.959   6.896  17.808  0.00  0.00    +0.000 F 
ENDBRANCH  10  14
ENDBRANCH   1   3
BRANCH   1  21
ATOM     21  C   UNL     1       2.089  12.061  18.721  0.00  0.00    +0.000 C 
BRANCH  21  22
ATOM     22  C   UNL     1       2.199  13.510  19.173  0.00  0.00    +0.000 C 
BRANCH  22  23
ATOM     23  C   UNL     1       2.627  14.413  18.023  0.00  0.00    +0.000 C 
BRANCH  23  24
ATOM     24  C   UNL     1       3.804  15.283  18.446  0.00  0.00    +0.000 C 
BRANCH  24  25
ATOM     25  C   UNL     1       5.118  14.661  17.997  0.00  0.00    +0.000 C 
BRANCH  25  26
ATOM     26  C   UNL     1       6.286  15.546  18.399  0.00  0.00    +0.000 C 
BRANCH  26  27
ATOM     27  C   UNL     1       7.496  14.694  18.746  0.00  0.00    +0.000 C 
BRANCH  27  28
ATOM     28  C   UNL     1       8.695  15.578  19.038  0.00  0.00    +0.000 C 
BRANCH  28  29
ATOM     29  C   UNL     1       9.734  15.427  17.941  0.00  0.00    +0.000 C 
BRANCH  29  30
ATOM     30  C   UNL     1      10.719  14.328  18.303  0.00  0.00    +0.000 C 
BRANCH  30  31
ATOM     31  C   UNL     1      10.971  13.436  17.100  0.00  0.00    +0.000 C 
BRANCH  31  32
ATOM     32  C   UNL     1      10.812  11.976  17.491  0.00  0.00    +0.000 C 
BRANCH  32  33
ATOM     33  C   UNL     1       9.560  11.789  18.333  0.00  0.00    +0.000 C 
BRANCH  33  34
ATOM     34  C   UNL     1       9.780  10.701  19.373  0.00  0.00    +0.000 C 
BRANCH  34  35
ATOM     35  C   UNL     1      10.002  11.317  20.747  0.00  0.00    +0.000 C 
BRANCH  35  37
ATOM     36  C   UNL     1       9.620  13.517  21.873  0.00  0.00    +0.000 C 
ATOM     37  C   UNL     1       8.999  12.434  21.011  0.00  0.00    +0.000 C 
ENDBRANCH  35  37
ENDBRANCH  34  35
ENDBRANCH  33  34
ENDBRANCH  32  33
ENDBRANCH  31  32
ENDBRANCH  30  31
ENDBRANCH  29  30
ENDBRANCH  28  29
ENDBRANCH  27  28
ENDBRANCH  26  27
ENDBRANCH  25  26
ENDBRANCH  24  25
ENDBRANCH  23  24
ENDBRANCH  22  23
ENDBRANCH  21  22
ENDBRANCH   1  21
TORSDOF 18
ENDMDL
