MODEL 1
REMARK VINA RESULT:      -8.6      0.000      0.000
REMARK  Name = 
REMARK  7 active torsions:
REMARK  status: ('A' for Active; 'I' for Inactive)
REMARK    1  A    between atoms: C_1  and  C_2
REMARK    2  A    between atoms: C_2  and  C_3
REMARK    3  A    between atoms: C_3  and  N_4
REMARK    4  A    between atoms: C_6  and  C_7
REMARK    5  A    between atoms: N_12  and  C_13
REMARK    6  A    between atoms: C_16  and  S_17
REMARK    7  A    between atoms: S_17  and  N_18
REMARK                            x       y       z     vdW  Elec       q    Type
REMARK                         _______ _______ _______ _____ _____    ______ ____
ROOT
ATOM      1  C   UNL     1       2.111   7.885  18.915  0.00  0.00    +0.000 A 
ATOM      2  C   UNL     1       1.887   7.796  20.272  0.00  0.00    +0.000 A 
ATOM      3  C   UNL     1       1.063   8.747  20.799  0.00  0.00    +0.000 A 
ATOM      4  N   UNL     1       0.463   9.680  20.047  0.00  0.00    +0.000 NA
ATOM      5  C   UNL     1       0.688   9.670  18.721  0.00  0.00    +0.000 A 
ATOM      6  N   UNL     1      -0.013  10.559  17.909  0.00  0.00    +0.000 N 
ATOM      7  N   UNL     1       1.531   8.824  18.133  0.00  0.00    +0.000 NA
ATOM      8  H   UNL     1       0.318  10.565  16.958  0.00  0.00    +0.000 HD
ENDROOT
BRANCH   1  11
ATOM      9  N   UNL     1       4.702   6.189  17.189  0.00  0.00    +0.000 N 
ATOM     10  N   UNL     1       4.187   7.312  17.726  0.00  0.00    +0.000 NA
ATOM     11  C   UNL     1       3.005   6.928  18.246  0.00  0.00    +0.000 A 
ATOM     12  C   UNL     1       2.794   5.528  18.046  0.00  0.00    +0.000 A 
ATOM     13  C   UNL     1       1.783   4.601  18.377  0.00  0.00    +0.000 A 
ATOM     14  C   UNL     1       1.925   3.263  18.010  0.00  0.00    +0.000 A 
ATOM     15  C   UNL     1       3.053   2.840  17.308  0.00  0.00    +0.000 A 
ATOM     16  C   UNL     1       4.067   3.740  16.959  0.00  0.00    +0.000 A 
ATOM     17  C   UNL     1       3.913   5.078  17.349  0.00  0.00    +0.000 A 
BRANCH   9  18
ATOM     18  C   UNL     1       6.013   6.254  16.568  0.00  0.00    +0.000 C 
BRANCH  18  20
ATOM     19  C   UNL     1       7.616   6.178  18.556  0.00  0.00    +0.000 C 
ATOM     20  C   UNL     1       7.059   6.997  17.400  0.00  0.00    +0.000 C 
ENDBRANCH  18  20
ENDBRANCH   9  18
ENDBRANCH   1  11
BRANCH   6  21
ATOM     21  C   UNL     1      -1.281  11.103  18.165  0.00  0.00    +0.000 A 
ATOM     22  C   UNL     1      -1.442  12.085  19.149  0.00  0.00    +0.000 A 
ATOM     23  C   UNL     1      -2.722  12.463  19.568  0.00  0.00    +0.000 A 
ATOM     24  C   UNL     1      -3.845  11.871  18.981  0.00  0.00    +0.000 A 
ATOM     25  C   UNL     1      -3.707  10.952  17.947  0.00  0.00    +0.000 A 
ATOM     26  C   UNL     1      -2.431  10.580  17.546  0.00  0.00    +0.000 A 
BRANCH  24  27
ATOM     27  S   UNL     1      -5.465  12.223  19.601  0.00  0.00    +0.000 S 
ATOM     28  O   UNL     1      -6.442  11.634  18.710  0.00  0.00    +0.000 OA
ATOM     29  O   UNL     1      -5.469  12.013  21.024  0.00  0.00    +0.000 OA
BRANCH  27  30
ATOM     30  N   UNL     1      -5.505  13.865  19.344  0.00  0.00    +0.000 NA
ATOM     31  H   UNL     1      -6.211  14.405  19.832  0.00  0.00    +0.000 HD
ATOM     32  H   UNL     1      -4.891  14.251  18.637  0.00  0.00    +0.000 HD
ENDBRANCH  27  30
ENDBRANCH  24  27
ENDBRANCH   6  21
TORSDOF 6
ENDMDL
MODEL 2
REMARK VINA RESULT:      -8.5      0.853      1.203
REMARK  Name = 
REMARK  7 active torsions:
REMARK  status: ('A' for Active; 'I' for Inactive)
REMARK    1  A    between atoms: C_1  and  C_2
REMARK    2  A    between atoms: C_2  and  C_3
REMARK    3  A    between atoms: C_3  and  N_4
REMARK    4  A    between atoms: C_6  and  C_7
REMARK    5  A    between atoms: N_12  and  C_13
REMARK    6  A    between atoms: C_16  and  S_17
REMARK    7  A    between atoms: S_17  and  N_18
REMARK                            x       y       z     vdW  Elec       q    Type
REMARK                         _______ _______ _______ _____ _____    ______ ____
ROOT
ATOM      1  C   UNL     1       2.140   7.627  19.083  0.00  0.00    +0.000 A 
ATOM      2  C   UNL     1       1.938   7.551  20.445  0.00  0.00    +0.000 A 
ATOM      3  C   UNL     1       1.227   8.576  20.995  0.00  0.00    +0.000 A 
ATOM      4  N   UNL     1       0.708   9.571  20.262  0.00  0.00    +0.000 NA
ATOM      5  C   UNL     1       0.900   9.549  18.931  0.00  0.00    +0.000 A 
ATOM      6  N   UNL     1       0.274  10.509  18.141  0.00  0.00    +0.000 N 
ATOM      7  N   UNL     1       1.640   8.626  18.320  0.00  0.00    +0.000 NA
ATOM      8  H   UNL     1       0.583  10.489  17.182  0.00  0.00    +0.000 HD
ENDROOT
BRANCH   1  11
ATOM      9  N   UNL     1       4.473   5.703  17.235  0.00  0.00    +0.000 N 
ATOM     10  N   UNL     1       4.073   6.876  17.761  0.00  0.00    +0.000 NA
ATOM     11  C   UNL     1       2.917   6.589  18.389  0.00  0.00    +0.000 A 
ATOM     12  C   UNL     1       2.606   5.199  18.269  0.00  0.00    +0.000 A 
ATOM     13  C   UNL     1       1.571   4.352  18.719  0.00  0.00    +0.000 A 
ATOM     14  C   UNL     1       1.601   2.994  18.401  0.00  0.00    +0.000 A 
ATOM     15  C   UNL     1       2.640   2.473  17.632  0.00  0.00    +0.000 A 
ATOM     16  C   UNL     1       3.675   3.291  17.165  0.00  0.00    +0.000 A 
ATOM     17  C   UNL     1       3.635   4.652  17.506  0.00  0.00    +0.000 A 
BRANCH   9  18
ATOM     18  C   UNL     1       5.731   5.660  16.510  0.00  0.00    +0.000 C 
BRANCH  18  20
ATOM     19  C   UNL     1       6.100   4.198  14.448  0.00  0.00    +0.000 C 
ATOM     20  C   UNL     1       5.573   5.516  14.997  0.00  0.00    +0.000 C 
ENDBRANCH  18  20
ENDBRANCH   9  18
ENDBRANCH   1  11
BRANCH   6  21
ATOM     21  C   UNL     1      -0.926  11.177  18.429  0.00  0.00    +0.000 A 
ATOM     22  C   UNL     1      -0.969  12.145  19.438  0.00  0.00    +0.000 A 
ATOM     23  C   UNL     1      -2.198  12.644  19.886  0.00  0.00    +0.000 A 
ATOM     24  C   UNL     1      -3.384  12.189  19.302  0.00  0.00    +0.000 A 
ATOM     25  C   UNL     1      -3.357  11.288  18.244  0.00  0.00    +0.000 A 
ATOM     26  C   UNL     1      -2.132  10.793  17.815  0.00  0.00    +0.000 A 
BRANCH  24  27
ATOM     27  S   UNL     1      -4.950  12.693  19.955  0.00  0.00    +0.000 S 
ATOM     28  O   UNL     1      -5.967  12.467  18.950  0.00  0.00    +0.000 OA
ATOM     29  O   UNL     1      -5.059  12.217  21.308  0.00  0.00    +0.000 OA
BRANCH  27  30
ATOM     30  N   UNL     1      -4.700  14.336  20.027  0.00  0.00    +0.000 NA
ATOM     31  H   UNL     1      -5.268  14.874  20.671  0.00  0.00    +0.000 HD
ATOM     32  H   UNL     1      -4.062  14.749  19.358  0.00  0.00    +0.000 HD
ENDBRANCH  27  30
ENDBRANCH  24  27
ENDBRANCH   6  21
TORSDOF 6
ENDMDL
MODEL 3
REMARK VINA RESULT:      -8.5      0.821      1.263
REMARK  Name = 
REMARK  7 active torsions:
REMARK  status: ('A' for Active; 'I' for Inactive)
REMARK    1  A    between atoms: C_1  and  C_2
REMARK    2  A    between atoms: C_2  and  C_3
REMARK    3  A    between atoms: C_3  and  N_4
REMARK    4  A    between atoms: C_6  and  C_7
REMARK    5  A    between atoms: N_12  and  C_13
REMARK    6  A    between atoms: C_16  and  S_17
REMARK    7  A    between atoms: S_17  and  N_18
REMARK                            x       y       z     vdW  Elec       q    Type
REMARK                         _______ _______ _______ _____ _____    ______ ____
ROOT
ATOM      1  C   UNL     1       2.141   7.812  18.851  0.00  0.00    +0.000 A 
ATOM      2  C   UNL     1       2.007   7.784  20.222  0.00  0.00    +0.000 A 
ATOM      3  C   UNL     1       1.104   8.661  20.746  0.00  0.00    +0.000 A 
ATOM      4  N   UNL     1       0.352   9.466  19.983  0.00  0.00    +0.000 NA
ATOM      5  C   UNL     1       0.499   9.398  18.648  0.00  0.00    +0.000 A 
ATOM      6  N   UNL     1      -0.351  10.142  17.834  0.00  0.00    +0.000 N 
ATOM      7  N   UNL     1       1.405   8.623  18.056  0.00  0.00    +0.000 NA
ATOM      8  H   UNL     1      -0.078  10.127  16.865  0.00  0.00    +0.000 HD
ENDROOT
BRANCH   1  11
ATOM      9  N   UNL     1       4.874   6.317  17.160  0.00  0.00    +0.000 N 
ATOM     10  N   UNL     1       4.283   7.391  17.718  0.00  0.00    +0.000 NA
ATOM     11  C   UNL     1       3.106   6.928  18.181  0.00  0.00    +0.000 A 
ATOM     12  C   UNL     1       2.976   5.527  17.924  0.00  0.00    +0.000 A 
ATOM     13  C   UNL     1       2.004   4.538  18.186  0.00  0.00    +0.000 A 
ATOM     14  C   UNL     1       2.230   3.223  17.776  0.00  0.00    +0.000 A 
ATOM     15  C   UNL     1       3.401   2.885  17.101  0.00  0.00    +0.000 A 
ATOM     16  C   UNL     1       4.378   3.848  16.821  0.00  0.00    +0.000 A 
ATOM     17  C   UNL     1       4.140   5.162  17.253  0.00  0.00    +0.000 A 
BRANCH   9  18
ATOM     18  C   UNL     1       6.200   6.472  16.590  0.00  0.00    +0.000 C 
BRANCH  18  20
ATOM     19  C   UNL     1       7.797   8.199  17.588  0.00  0.00    +0.000 C 
ATOM     20  C   UNL     1       7.291   6.763  17.620  0.00  0.00    +0.000 C 
ENDBRANCH  18  20
ENDBRANCH   9  18
ENDBRANCH   1  11
BRANCH   6  21
ATOM     21  C   UNL     1      -1.660  10.546  18.140  0.00  0.00    +0.000 A 
ATOM     22  C   UNL     1      -2.753   9.881  17.574  0.00  0.00    +0.000 A 
ATOM     23  C   UNL     1      -4.042  10.416  17.686  0.00  0.00    +0.000 A 
ATOM     24  C   UNL     1      -4.237  11.609  18.390  0.00  0.00    +0.000 A 
ATOM     25  C   UNL     1      -3.175  12.242  19.026  0.00  0.00    +0.000 A 
ATOM     26  C   UNL     1      -1.900  11.705  18.899  0.00  0.00    +0.000 A 
BRANCH  24  27
ATOM     27  S   UNL     1      -5.829  12.380  18.415  0.00  0.00    +0.000 S 
ATOM     28  O   UNL     1      -6.845  11.349  18.417  0.00  0.00    +0.000 OA
ATOM     29  O   UNL     1      -5.802  13.462  19.362  0.00  0.00    +0.000 OA
BRANCH  27  30
ATOM     30  N   UNL     1      -5.830  13.054  16.894  0.00  0.00    +0.000 NA
ATOM     31  H   UNL     1      -5.396  12.529  16.143  0.00  0.00    +0.000 HD
ATOM     32  H   UNL     1      -6.172  14.002  16.795  0.00  0.00    +0.000 HD
ENDBRANCH  27  30
ENDBRANCH  24  27
ENDBRANCH   6  21
TORSDOF 6
ENDMDL
MODEL 4
REMARK VINA RESULT:      -8.4      0.982      1.015
REMARK  Name = 
REMARK  7 active torsions:
REMARK  status: ('A' for Active; 'I' for Inactive)
REMARK    1  A    between atoms: C_1  and  C_2
REMARK    2  A    between atoms: C_2  and  C_3
REMARK    3  A    between atoms: C_3  and  N_4
REMARK    4  A    between atoms: C_6  and  C_7
REMARK    5  A    between atoms: N_12  and  C_13
REMARK    6  A    between atoms: C_16  and  S_17
REMARK    7  A    between atoms: S_17  and  N_18
REMARK                            x       y       z     vdW  Elec       q    Type
REMARK                         _______ _______ _______ _____ _____    ______ ____
ROOT
ATOM      1  C   UNL     1       2.251   7.309  19.293  0.00  0.00    +0.000 A 
ATOM      2  C   UNL     1       1.922   7.397  20.628  0.00  0.00    +0.000 A 
ATOM      3  C   UNL     1       1.116   8.442  20.971  0.00  0.00    +0.000 A 
ATOM      4  N   UNL     1       0.627   9.303  20.068  0.00  0.00    +0.000 NA
ATOM      5  C   UNL     1       0.948   9.121  18.774  0.00  0.00    +0.000 A 
ATOM      6  N   UNL     1       0.360   9.934  17.809  0.00  0.00    +0.000 N 
ATOM      7  N   UNL     1       1.784   8.171  18.361  0.00  0.00    +0.000 NA
ATOM      8  H   UNL     1       0.760   9.808  16.894  0.00  0.00    +0.000 HD
ENDROOT
BRANCH   1  11
ATOM      9  N   UNL     1       4.916   5.267  18.154  0.00  0.00    +0.000 N 
ATOM     10  N   UNL     1       4.448   6.451  18.595  0.00  0.00    +0.000 NA
ATOM     11  C   UNL     1       3.137   6.236  18.816  0.00  0.00    +0.000 A 
ATOM     12  C   UNL     1       2.790   4.880  18.526  0.00  0.00    +0.000 A 
ATOM     13  C   UNL     1       1.612   4.103  18.584  0.00  0.00    +0.000 A 
ATOM     14  C   UNL     1       1.653   2.758  18.214  0.00  0.00    +0.000 A 
ATOM     15  C   UNL     1       2.844   2.183  17.778  0.00  0.00    +0.000 A 
ATOM     16  C   UNL     1       4.025   2.931  17.703  0.00  0.00    +0.000 A 
ATOM     17  C   UNL     1       3.968   4.278  18.091  0.00  0.00    +0.000 A 
BRANCH   9  18
ATOM     18  C   UNL     1       6.332   5.148  17.855  0.00  0.00    +0.000 C 
BRANCH  18  20
ATOM     19  C   UNL     1       7.631   7.332  17.592  0.00  0.00    +0.000 C 
ATOM     20  C   UNL     1       6.858   6.219  16.899  0.00  0.00    +0.000 C 
ENDBRANCH  18  20
ENDBRANCH   9  18
ENDBRANCH   1  11
BRANCH   6  21
ATOM     21  C   UNL     1      -0.891  10.564  17.896  0.00  0.00    +0.000 A 
ATOM     22  C   UNL     1      -1.060  11.689  18.712  0.00  0.00    +0.000 A 
ATOM     23  C   UNL     1      -2.342  12.180  18.984  0.00  0.00    +0.000 A 
ATOM     24  C   UNL     1      -3.457  11.555  18.415  0.00  0.00    +0.000 A 
ATOM     25  C   UNL     1      -3.305  10.486  17.539  0.00  0.00    +0.000 A 
ATOM     26  C   UNL     1      -2.027  10.003  17.285  0.00  0.00    +0.000 A 
BRANCH  24  27
ATOM     27  S   UNL     1      -5.091  12.064  18.866  0.00  0.00    +0.000 S 
ATOM     28  O   UNL     1      -5.913  10.886  19.043  0.00  0.00    +0.000 OA
ATOM     29  O   UNL     1      -4.992  13.111  19.847  0.00  0.00    +0.000 OA
BRANCH  27  30
ATOM     30  N   UNL     1      -5.560  12.770  17.435  0.00  0.00    +0.000 NA
ATOM     31  H   UNL     1      -5.368  12.271  16.574  0.00  0.00    +0.000 HD
ATOM     32  H   UNL     1      -5.929  13.712  17.469  0.00  0.00    +0.000 HD
ENDBRANCH  27  30
ENDBRANCH  24  27
ENDBRANCH   6  21
TORSDOF 6
ENDMDL
MODEL 5
REMARK VINA RESULT:      -8.1      0.868      1.512
REMARK  Name = 
REMARK  7 active torsions:
REMARK  status: ('A' for Active; 'I' for Inactive)
REMARK    1  A    between atoms: C_1  and  C_2
REMARK    2  A    between atoms: C_2  and  C_3
REMARK    3  A    between atoms: C_3  and  N_4
REMARK    4  A    between atoms: C_6  and  C_7
REMARK    5  A    between atoms: N_12  and  C_13
REMARK    6  A    between atoms: C_16  and  S_17
REMARK    7  A    between atoms: S_17  and  N_18
REMARK                            x       y       z     vdW  Elec       q    Type
REMARK                         _______ _______ _______ _____ _____    ______ ____
ROOT
ATOM      1  C   UNL     1       2.015   7.727  18.849  0.00  0.00    +0.000 A 
ATOM      2  C   UNL     1       1.963   7.824  20.223  0.00  0.00    +0.000 A 
ATOM      3  C   UNL     1       1.121   8.776  20.717  0.00  0.00    +0.000 A 
ATOM      4  N   UNL     1       0.349   9.537  19.929  0.00  0.00    +0.000 NA
ATOM      5  C   UNL     1       0.413   9.347  18.599  0.00  0.00    +0.000 A 
ATOM      6  N   UNL     1      -0.461  10.047  17.772  0.00  0.00    +0.000 N 
ATOM      7  N   UNL     1       1.258   8.491  18.028  0.00  0.00    +0.000 NA
ATOM      8  H   UNL     1      -0.248   9.937  16.793  0.00  0.00    +0.000 HD
ENDROOT
BRANCH   1  11
ATOM      9  N   UNL     1       4.578   5.994  17.119  0.00  0.00    +0.000 N 
ATOM     10  N   UNL     1       4.048   7.136  17.598  0.00  0.00    +0.000 NA
ATOM     11  C   UNL     1       2.910   6.753  18.207  0.00  0.00    +0.000 A 
ATOM     12  C   UNL     1       2.743   5.335  18.123  0.00  0.00    +0.000 A 
ATOM     13  C   UNL     1       1.786   4.402  18.575  0.00  0.00    +0.000 A 
ATOM     14  C   UNL     1       1.960   3.045  18.300  0.00  0.00    +0.000 A 
ATOM     15  C   UNL     1       3.067   2.609  17.574  0.00  0.00    +0.000 A 
ATOM     16  C   UNL     1       4.027   3.514  17.106  0.00  0.00    +0.000 A 
ATOM     17  C   UNL     1       3.842   4.872  17.403  0.00  0.00    +0.000 A 
BRANCH   9  18
ATOM     18  C   UNL     1       5.853   6.057  16.427  0.00  0.00    +0.000 C 
BRANCH  18  20
ATOM     19  C   UNL     1       6.685   4.414  14.657  0.00  0.00    +0.000 C 
ATOM     20  C   UNL     1       5.793   5.607  14.967  0.00  0.00    +0.000 C 
ENDBRANCH  18  20
ENDBRANCH   9  18
ENDBRANCH   1  11
BRANCH   6  21
ATOM     21  C   UNL     1      -1.736  10.523  18.115  0.00  0.00    +0.000 A 
ATOM     22  C   UNL     1      -2.881   9.918  17.585  0.00  0.00    +0.000 A 
ATOM     23  C   UNL     1      -4.134  10.523  17.733  0.00  0.00    +0.000 A 
ATOM     24  C   UNL     1      -4.242  11.727  18.437  0.00  0.00    +0.000 A 
ATOM     25  C   UNL     1      -3.128  12.303  19.038  0.00  0.00    +0.000 A 
ATOM     26  C   UNL     1      -1.889  11.696  18.875  0.00  0.00    +0.000 A 
BRANCH  24  27
ATOM     27  S   UNL     1      -5.788  12.584  18.506  0.00  0.00    +0.000 S 
ATOM     28  O   UNL     1      -6.159  12.985  17.165  0.00  0.00    +0.000 OA
ATOM     29  O   UNL     1      -6.672  11.869  19.387  0.00  0.00    +0.000 OA
BRANCH  27  30
ATOM     30  N   UNL     1      -5.302  13.960  19.304  0.00  0.00    +0.000 NA
ATOM     31  H   UNL     1      -5.842  14.806  19.162  0.00  0.00    +0.000 HD
ATOM     32  H   UNL     1      -4.432  13.927  19.820  0.00  0.00    +0.000 HD
ENDBRANCH  27  30
ENDBRANCH  24  27
ENDBRANCH   6  21
TORSDOF 6
ENDMDL
MODEL 6
REMARK VINA RESULT:      -8.1      1.515      2.704
REMARK  Name = 
REMARK  7 active torsions:
REMARK  status: ('A' for Active; 'I' for Inactive)
REMARK    1  A    between atoms: C_1  and  C_2
REMARK    2  A    between atoms: C_2  and  C_3
REMARK    3  A    between atoms: C_3  and  N_4
REMARK    4  A    between atoms: C_6  and  C_7
REMARK    5  A    between atoms: N_12  and  C_13
REMARK    6  A    between atoms: C_16  and  S_17
REMARK    7  A    between atoms: S_17  and  N_18
REMARK                            x       y       z     vdW  Elec       q    Type
REMARK                         _______ _______ _______ _____ _____    ______ ____
ROOT
ATOM      1  C   UNL     1       2.244   7.279  19.529  0.00  0.00    +0.000 A 
ATOM      2  C   UNL     1       1.911   7.450  20.856  0.00  0.00    +0.000 A 
ATOM      3  C   UNL     1       1.116   8.522  21.132  0.00  0.00    +0.000 A 
ATOM      4  N   UNL     1       0.640   9.334  20.177  0.00  0.00    +0.000 NA
ATOM      5  C   UNL     1       0.964   9.072  18.899  0.00  0.00    +0.000 A 
ATOM      6  N   UNL     1       0.390   9.834  17.885  0.00  0.00    +0.000 N 
ATOM      7  N   UNL     1       1.791   8.090  18.546  0.00  0.00    +0.000 NA
ATOM      8  H   UNL     1       0.792   9.650  16.980  0.00  0.00    +0.000 HD
ENDROOT
BRANCH   1  11
ATOM      9  N   UNL     1       4.081   4.268  19.168  0.00  0.00    +0.000 N 
ATOM     10  N   UNL     1       3.171   5.019  19.818  0.00  0.00    +0.000 NA
ATOM     11  C   UNL     1       3.120   6.170  19.121  0.00  0.00    +0.000 A 
ATOM     12  C   UNL     1       4.003   6.122  17.998  0.00  0.00    +0.000 A 
ATOM     13  C   UNL     1       4.345   6.995  16.943  0.00  0.00    +0.000 A 
ATOM     14  C   UNL     1       5.280   6.592  15.988  0.00  0.00    +0.000 A 
ATOM     15  C   UNL     1       5.884   5.340  16.078  0.00  0.00    +0.000 A 
ATOM     16  C   UNL     1       5.570   4.457  17.118  0.00  0.00    +0.000 A 
ATOM     17  C   UNL     1       4.619   4.874  18.061  0.00  0.00    +0.000 A 
BRANCH   9  18
ATOM     18  C   UNL     1       4.349   2.926  19.653  0.00  0.00    +0.000 C 
BRANCH  18  20
ATOM     19  C   UNL     1       2.160   1.928  18.795  0.00  0.00    +0.000 C 
ATOM     20  C   UNL     1       3.678   1.823  18.835  0.00  0.00    +0.000 C 
ENDBRANCH  18  20
ENDBRANCH   9  18
ENDBRANCH   1  11
BRANCH   6  21
ATOM     21  C   UNL     1      -0.854  10.482  17.928  0.00  0.00    +0.000 A 
ATOM     22  C   UNL     1      -1.062  11.551  18.807  0.00  0.00    +0.000 A 
ATOM     23  C   UNL     1      -2.352  12.048  19.023  0.00  0.00    +0.000 A 
ATOM     24  C   UNL     1      -3.434  11.488  18.336  0.00  0.00    +0.000 A 
ATOM     25  C   UNL     1      -3.237  10.479  17.399  0.00  0.00    +0.000 A 
ATOM     26  C   UNL     1      -1.952   9.989  17.201  0.00  0.00    +0.000 A 
BRANCH  24  27
ATOM     27  S   UNL     1      -5.087  11.998  18.706  0.00  0.00    +0.000 S 
ATOM     28  O   UNL     1      -5.912  10.820  18.868  0.00  0.00    +0.000 OA
ATOM     29  O   UNL     1      -5.035  13.063  19.671  0.00  0.00    +0.000 OA
BRANCH  27  30
ATOM     30  N   UNL     1      -5.497  12.676  17.244  0.00  0.00    +0.000 NA
ATOM     31  H   UNL     1      -5.948  12.084  16.556  0.00  0.00    +0.000 HD
ATOM     32  H   UNL     1      -5.193  13.624  17.058  0.00  0.00    +0.000 HD
ENDBRANCH  27  30
ENDBRANCH  24  27
ENDBRANCH   6  21
TORSDOF 6
ENDMDL
MODEL 7
REMARK VINA RESULT:      -8.0      1.142      1.142
REMARK  Name = 
REMARK  7 active torsions:
REMARK  status: ('A' for Active; 'I' for Inactive)
REMARK    1  A    between atoms: C_1  and  C_2
REMARK    2  A    between atoms: C_2  and  C_3
REMARK    3  A    between atoms: C_3  and  N_4
REMARK    4  A    between atoms: C_6  and  C_7
REMARK    5  A    between atoms: N_12  and  C_13
REMARK    6  A    between atoms: C_16  and  S_17
REMARK    7  A    between atoms: S_17  and  N_18
REMARK                            x       y       z     vdW  Elec       q    Type
REMARK                         _______ _______ _______ _____ _____    ______ ____
ROOT
ATOM      1  C   UNL     1       1.983   7.851  19.339  0.00  0.00    +0.000 A 
ATOM      2  C   UNL     1       1.715   8.012  20.681  0.00  0.00    +0.000 A 
ATOM      3  C   UNL     1       0.853   9.022  20.994  0.00  0.00    +0.000 A 
ATOM      4  N   UNL     1       0.260   9.780  20.062  0.00  0.00    +0.000 NA
ATOM      5  C   UNL     1       0.529   9.528  18.769  0.00  0.00    +0.000 A 
ATOM      6  N   UNL     1      -0.162  10.228  17.784  0.00  0.00    +0.000 N 
ATOM      7  N   UNL     1       1.410   8.610  18.377  0.00  0.00    +0.000 NA
ATOM      8  H   UNL     1       0.201  10.064  16.858  0.00  0.00    +0.000 HD
ENDROOT
BRANCH   1  11
ATOM      9  N   UNL     1       4.473   5.875  17.769  0.00  0.00    +0.000 N 
ATOM     10  N   UNL     1       3.824   7.045  17.920  0.00  0.00    +0.000 NA
ATOM     11  C   UNL     1       2.920   6.810  18.890  0.00  0.00    +0.000 A 
ATOM     12  C   UNL     1       3.027   5.466  19.367  0.00  0.00    +0.000 A 
ATOM     13  C   UNL     1       2.378   4.687  20.349  0.00  0.00    +0.000 A 
ATOM     14  C   UNL     1       2.767   3.362  20.548  0.00  0.00    +0.000 A 
ATOM     15  C   UNL     1       3.782   2.802  19.776  0.00  0.00    +0.000 A 
ATOM     16  C   UNL     1       4.437   3.548  18.790  0.00  0.00    +0.000 A 
ATOM     17  C   UNL     1       4.042   4.882  18.613  0.00  0.00    +0.000 A 
BRANCH   9  18
ATOM     18  C   UNL     1       5.557   5.801  16.806  0.00  0.00    +0.000 C 
BRANCH  18  20
ATOM     19  C   UNL     1       7.667   4.653  17.677  0.00  0.00    +0.000 C 
ATOM     20  C   UNL     1       6.947   5.970  17.420  0.00  0.00    +0.000 C 
ENDBRANCH  18  20
ENDBRANCH   9  18
ENDBRANCH   1  11
BRANCH   6  21
ATOM     21  C   UNL     1      -1.449  10.776  17.894  0.00  0.00    +0.000 A 
ATOM     22  C   UNL     1      -1.716  11.761  18.851  0.00  0.00    +0.000 A 
ATOM     23  C   UNL     1      -3.035  12.144  19.124  0.00  0.00    +0.000 A 
ATOM     24  C   UNL     1      -4.087  11.553  18.417  0.00  0.00    +0.000 A 
ATOM     25  C   UNL     1      -3.836  10.630  17.407  0.00  0.00    +0.000 A 
ATOM     26  C   UNL     1      -2.524  10.253  17.153  0.00  0.00    +0.000 A 
BRANCH  24  27
ATOM     27  S   UNL     1      -5.765  11.909  18.851  0.00  0.00    +0.000 S 
ATOM     28  O   UNL     1      -6.636  11.022  18.110  0.00  0.00    +0.000 OA
ATOM     29  O   UNL     1      -5.845  12.083  20.276  0.00  0.00    +0.000 OA
BRANCH  27  30
ATOM     30  N   UNL     1      -5.911  13.416  18.160  0.00  0.00    +0.000 NA
ATOM     31  H   UNL     1      -6.085  13.465  17.163  0.00  0.00    +0.000 HD
ATOM     32  H   UNL     1      -5.721  14.224  18.740  0.00  0.00    +0.000 HD
ENDBRANCH  27  30
ENDBRANCH  24  27
ENDBRANCH   6  21
TORSDOF 6
ENDMDL
MODEL 8
REMARK VINA RESULT:      -7.9      3.454      3.996
REMARK  Name = 
REMARK  7 active torsions:
REMARK  status: ('A' for Active; 'I' for Inactive)
REMARK    1  A    between atoms: C_1  and  C_2
REMARK    2  A    between atoms: C_2  and  C_3
REMARK    3  A    between atoms: C_3  and  N_4
REMARK    4  A    between atoms: C_6  and  C_7
REMARK    5  A    between atoms: N_12  and  C_13
REMARK    6  A    between atoms: C_16  and  S_17
REMARK    7  A    between atoms: S_17  and  N_18
REMARK                            x       y       z     vdW  Elec       q    Type
REMARK                         _______ _______ _______ _____ _____    ______ ____
ROOT
ATOM      1  C   UNL     1       2.098   7.729  19.083  0.00  0.00    +0.000 A 
ATOM      2  C   UNL     1       2.039   8.388  17.874  0.00  0.00    +0.000 A 
ATOM      3  C   UNL     1       1.253   9.502  17.845  0.00  0.00    +0.000 A 
ATOM      4  N   UNL     1       0.615   9.964  18.930  0.00  0.00    +0.000 NA
ATOM      5  C   UNL     1       0.763   9.297  20.088  0.00  0.00    +0.000 A 
ATOM      6  N   UNL     1       0.202   9.823  21.249  0.00  0.00    +0.000 N 
ATOM      7  N   UNL     1       1.454   8.164  20.190  0.00  0.00    +0.000 NA
ATOM      8  H   UNL     1       0.255   9.191  22.031  0.00  0.00    +0.000 HD
ENDROOT
BRANCH   1  11
ATOM      9  N   UNL     1       4.535   5.156  19.016  0.00  0.00    +0.000 N 
ATOM     10  N   UNL     1       4.142   6.410  18.722  0.00  0.00    +0.000 NA
ATOM     11  C   UNL     1       2.894   6.500  19.220  0.00  0.00    +0.000 A 
ATOM     12  C   UNL     1       2.513   5.278  19.857  0.00  0.00    +0.000 A 
ATOM     13  C   UNL     1       1.372   4.809  20.543  0.00  0.00    +0.000 A 
ATOM     14  C   UNL     1       1.359   3.510  21.053  0.00  0.00    +0.000 A 
ATOM     15  C   UNL     1       2.458   2.672  20.878  0.00  0.00    +0.000 A 
ATOM     16  C   UNL     1       3.599   3.108  20.194  0.00  0.00    +0.000 A 
ATOM     17  C   UNL     1       3.600   4.422  19.701  0.00  0.00    +0.000 A 
BRANCH   9  18
ATOM     18  C   UNL     1       5.876   4.742  18.641  0.00  0.00    +0.000 C 
BRANCH  18  20
ATOM     19  C   UNL     1       7.728   6.490  18.439  0.00  0.00    +0.000 C 
ATOM     20  C   UNL     1       6.987   5.519  19.347  0.00  0.00    +0.000 C 
ENDBRANCH  18  20
ENDBRANCH   9  18
ENDBRANCH   1  11
BRANCH   6  21
ATOM     21  C   UNL     1      -0.047  11.178  21.518  0.00  0.00    +0.000 A 
ATOM     22  C   UNL     1       0.764  12.169  20.955  0.00  0.00    +0.000 A 
ATOM     23  C   UNL     1       0.671  13.494  21.396  0.00  0.00    +0.000 A 
ATOM     24  C   UNL     1      -0.256  13.830  22.388  0.00  0.00    +0.000 A 
ATOM     25  C   UNL     1      -1.125  12.874  22.903  0.00  0.00    +0.000 A 
ATOM     26  C   UNL     1      -1.016  11.561  22.462  0.00  0.00    +0.000 A 
BRANCH  24  27
ATOM     27  S   UNL     1      -0.285  15.464  23.066  0.00  0.00    +0.000 S 
ATOM     28  O   UNL     1       1.078  15.926  23.225  0.00  0.00    +0.000 OA
ATOM     29  O   UNL     1      -1.301  16.225  22.390  0.00  0.00    +0.000 OA
BRANCH  27  30
ATOM     30  N   UNL     1      -0.857  15.117  24.588  0.00  0.00    +0.000 NA
ATOM     31  H   UNL     1      -1.555  14.387  24.678  0.00  0.00    +0.000 HD
ATOM     32  H   UNL     1      -0.564  15.712  25.353  0.00  0.00    +0.000 HD
ENDBRANCH  27  30
ENDBRANCH  24  27
ENDBRANCH   6  21
TORSDOF 6
ENDMDL
MODEL 9
REMARK VINA RESULT:      -7.9      1.476      1.795
REMARK  Name = 
REMARK  7 active torsions:
REMARK  status: ('A' for Active; 'I' for Inactive)
REMARK    1  A    between atoms: C_1  and  C_2
REMARK    2  A    between atoms: C_2  and  C_3
REMARK    3  A    between atoms: C_3  and  N_4
REMARK    4  A    between atoms: C_6  and  C_7
REMARK    5  A    between atoms: N_12  and  C_13
REMARK    6  A    between atoms: C_16  and  S_17
REMARK    7  A    between atoms: S_17  and  N_18
REMARK                            x       y       z     vdW  Elec       q    Type
REMARK                         _______ _______ _______ _____ _____    ______ ____
ROOT
ATOM      1  C   UNL     1       2.075   7.655  19.485  0.00  0.00    +0.000 A 
ATOM      2  C   UNL     1       1.748   7.795  20.816  0.00  0.00    +0.000 A 
ATOM      3  C   UNL     1       0.898   8.818  21.112  0.00  0.00    +0.000 A 
ATOM      4  N   UNL     1       0.366   9.611  20.171  0.00  0.00    +0.000 NA
ATOM      5  C   UNL     1       0.689   9.379  18.886  0.00  0.00    +0.000 A 
ATOM      6  N   UNL     1       0.061  10.117  17.886  0.00  0.00    +0.000 N 
ATOM      7  N   UNL     1       1.566   8.448  18.515  0.00  0.00    +0.000 NA
ATOM      8  H   UNL     1       0.463   9.964  16.975  0.00  0.00    +0.000 HD
ENDROOT
BRANCH   1  11
ATOM      9  N   UNL     1       4.565   5.642  17.963  0.00  0.00    +0.000 N 
ATOM     10  N   UNL     1       3.925   6.820  18.095  0.00  0.00    +0.000 NA
ATOM     11  C   UNL     1       3.007   6.601  19.056  0.00  0.00    +0.000 A 
ATOM     12  C   UNL     1       3.096   5.261  19.546  0.00  0.00    +0.000 A 
ATOM     13  C   UNL     1       2.427   4.497  20.527  0.00  0.00    +0.000 A 
ATOM     14  C   UNL     1       2.801   3.170  20.742  0.00  0.00    +0.000 A 
ATOM     15  C   UNL     1       3.820   2.593  19.987  0.00  0.00    +0.000 A 
ATOM     16  C   UNL     1       4.494   3.324  19.003  0.00  0.00    +0.000 A 
ATOM     17  C   UNL     1       4.114   4.661  18.810  0.00  0.00    +0.000 A 
BRANCH   9  18
ATOM     18  C   UNL     1       5.660   5.549  17.014  0.00  0.00    +0.000 C 
BRANCH  18  20
ATOM     19  C   UNL     1       6.267   3.989  15.084  0.00  0.00    +0.000 C 
ATOM     20  C   UNL     1       5.259   4.977  15.654  0.00  0.00    +0.000 C 
ENDBRANCH  18  20
ENDBRANCH   9  18
ENDBRANCH   1  11
BRANCH   6  21
ATOM     21  C   UNL     1      -1.217  10.693  17.950  0.00  0.00    +0.000 A 
ATOM     22  C   UNL     1      -1.450  11.801  18.773  0.00  0.00    +0.000 A 
ATOM     23  C   UNL     1      -2.758  12.235  19.020  0.00  0.00    +0.000 A 
ATOM     24  C   UNL     1      -3.832  11.571  18.419  0.00  0.00    +0.000 A 
ATOM     25  C   UNL     1      -3.616  10.520  17.535  0.00  0.00    +0.000 A 
ATOM     26  C   UNL     1      -2.314  10.093  17.306  0.00  0.00    +0.000 A 
BRANCH  24  27
ATOM     27  S   UNL     1      -5.496  12.007  18.836  0.00  0.00    +0.000 S 
ATOM     28  O   UNL     1      -5.559  12.302  20.251  0.00  0.00    +0.000 OA
ATOM     29  O   UNL     1      -6.008  12.891  17.822  0.00  0.00    +0.000 OA
BRANCH  27  30
ATOM     30  N   UNL     1      -6.228  10.529  18.618  0.00  0.00    +0.000 NA
ATOM     31  H   UNL     1      -5.886   9.937  17.869  0.00  0.00    +0.000 HD
ATOM     32  H   UNL     1      -7.048  10.319  19.173  0.00  0.00    +0.000 HD
ENDBRANCH  27  30
ENDBRANCH  24  27
ENDBRANCH   6  21
TORSDOF 6
ENDMDL
