MODEL 1
REMARK VINA RESULT:      -8.3      0.000      0.000
REMARK  Name = 
REMARK  8 active torsions:
REMARK  status: ('A' for Active; 'I' for Inactive)
REMARK    1  A    between atoms: C_1  and  C_2
REMARK    2  A    between atoms: C_2  and  C_3
REMARK    3  A    between atoms: C_2  and  C_4
REMARK    4  A    between atoms: C_2  and  C_5
REMARK    5  A    between atoms: N_7  and  C_8
REMARK    6  A    between atoms: C_11  and  C_12
REMARK    7  A    between atoms: N_14  and  C_15
REMARK    8  A    between atoms: C_18  and  C_19
REMARK                            x       y       z     vdW  Elec       q    Type
REMARK                         _______ _______ _______ _____ _____    ______ ____
ROOT
ATOM      1  C   UNL     1       0.080  10.987  21.098  0.00  0.00    +0.000 C 
ATOM      2  O   UNL     1       1.198  11.372  21.427  0.00  0.00    +0.000 OA
ATOM      3  N   UNL     1      -0.197   9.932  20.242  0.00  0.00    +0.000 N 
ATOM      4  H   UNL     1      -1.142   9.848  19.890  0.00  0.00    +0.000 HD
ENDROOT
BRANCH   1   8
ATOM      5  C   UNL     1      -3.255  13.421  22.329  0.00  0.00    +0.000 A 
ATOM      6  C   UNL     1      -3.070  13.021  21.005  0.00  0.00    +0.000 A 
ATOM      7  C   UNL     1      -1.993  12.213  20.643  0.00  0.00    +0.000 A 
ATOM      8  C   UNL     1      -1.073  11.781  21.600  0.00  0.00    +0.000 A 
ATOM      9  C   UNL     1      -1.226  12.189  22.928  0.00  0.00    +0.000 A 
ATOM     10  C   UNL     1      -2.308  13.020  23.285  0.00  0.00    +0.000 A 
BRANCH   5  13
ATOM     11  C   UNL     1      -5.600  13.767  23.099  0.00  0.00    +0.000 C 
ATOM     12  O   UNL     1      -5.881  12.576  23.221  0.00  0.00    +0.000 OA
ATOM     13  N   UNL     1      -4.344  14.237  22.729  0.00  0.00    +0.000 N 
ATOM     14  H   UNL     1      -4.150  15.221  22.862  0.00  0.00    +0.000 HD
BRANCH  11  16
ATOM     15  C   UNL     1      -7.231  15.347  22.044  0.00  0.00    +0.000 C 
ATOM     16  C   UNL     1      -6.666  14.847  23.391  0.00  0.00    +0.000 C 
ATOM     17  C   UNL     1      -6.036  16.039  24.124  0.00  0.00    +0.000 C 
ATOM     18  C   UNL     1      -7.819  14.263  24.213  0.00  0.00    +0.000 C 
ENDBRANCH  11  16
ENDBRANCH   5  13
ENDBRANCH   1   8
BRANCH   3  19
ATOM     19  C   UNL     1       0.783   9.090  19.660  0.00  0.00    +0.000 A 
ATOM     20  C   UNL     1       1.358   8.012  20.337  0.00  0.00    +0.000 A 
ATOM     21  C   UNL     1       2.331   7.211  19.730  0.00  0.00    +0.000 A 
ATOM     22  C   UNL     1       2.754   7.461  18.422  0.00  0.00    +0.000 A 
ATOM     23  C   UNL     1       2.180   8.543  17.739  0.00  0.00    +0.000 A 
ATOM     24  C   UNL     1       1.196   9.342  18.347  0.00  0.00    +0.000 A 
BRANCH  22  25
ATOM     25  C   UNL     1       3.733   6.564  17.810  0.00  0.00    +0.000 A 
ATOM     26  N   UNL     1       3.571   5.305  17.437  0.00  0.00    +0.000 NA
ATOM     27  C   UNL     1       4.751   4.994  16.831  0.00  0.00    +0.000 A 
ATOM     28  N   UNL     1       5.070   3.822  16.237  0.00  0.00    +0.000 NA
ATOM     29  C   UNL     1       6.306   3.811  15.687  0.00  0.00    +0.000 A 
ATOM     30  C   UNL     1       7.221   4.865  15.708  0.00  0.00    +0.000 A 
ATOM     31  C   UNL     1       6.881   6.068  16.331  0.00  0.00    +0.000 A 
ATOM     32  C   UNL     1       5.608   6.081  16.881  0.00  0.00    +0.000 A 
ATOM     33  O   UNL     1       4.968   7.097  17.522  0.00  0.00    +0.000 OA
ENDBRANCH  22  25
ENDBRANCH   3  19
TORSDOF 5
ENDMDL
MODEL 2
REMARK VINA RESULT:      -8.3      0.826      1.442
REMARK  Name = 
REMARK  8 active torsions:
REMARK  status: ('A' for Active; 'I' for Inactive)
REMARK    1  A    between atoms: C_1  and  C_2
REMARK    2  A    between atoms: C_2  and  C_3
REMARK    3  A    between atoms: C_2  and  C_4
REMARK    4  A    between atoms: C_2  and  C_5
REMARK    5  A    between atoms: N_7  and  C_8
REMARK    6  A    between atoms: C_11  and  C_12
REMARK    7  A    between atoms: N_14  and  C_15
REMARK    8  A    between atoms: C_18  and  C_19
REMARK                            x       y       z     vdW  Elec       q    Type
REMARK                         _______ _______ _______ _____ _____    ______ ____
ROOT
ATOM      1  C   UNL     1      -0.095  10.616  21.362  0.00  0.00    +0.000 C 
ATOM      2  O   UNL     1       0.919  10.691  22.049  0.00  0.00    +0.000 OA
ATOM      3  N   UNL     1      -0.213   9.937  20.158  0.00  0.00    +0.000 N 
ATOM      4  H   UNL     1      -1.031  10.123  19.592  0.00  0.00    +0.000 HD
ENDROOT
BRANCH   1   8
ATOM      5  C   UNL     1      -3.448  13.056  22.531  0.00  0.00    +0.000 A 
ATOM      6  C   UNL     1      -3.008  12.974  21.209  0.00  0.00    +0.000 A 
ATOM      7  C   UNL     1      -1.934  12.156  20.858  0.00  0.00    +0.000 A 
ATOM      8  C   UNL     1      -1.274  11.395  21.825  0.00  0.00    +0.000 A 
ATOM      9  C   UNL     1      -1.683  11.479  23.159  0.00  0.00    +0.000 A 
ATOM     10  C   UNL     1      -2.760  12.321  23.508  0.00  0.00    +0.000 A 
BRANCH   5  13
ATOM     11  C   UNL     1      -5.874  13.475  22.921  0.00  0.00    +0.000 C 
ATOM     12  O   UNL     1      -6.250  12.327  22.689  0.00  0.00    +0.000 OA
ATOM     13  N   UNL     1      -4.540  13.874  22.916  0.00  0.00    +0.000 N 
ATOM     14  H   UNL     1      -4.315  14.772  23.323  0.00  0.00    +0.000 HD
BRANCH  11  16
ATOM     15  C   UNL     1      -7.916  13.978  24.278  0.00  0.00    +0.000 C 
ATOM     16  C   UNL     1      -6.904  14.570  23.274  0.00  0.00    +0.000 C 
ATOM     17  C   UNL     1      -7.670  15.012  22.019  0.00  0.00    +0.000 C 
ATOM     18  C   UNL     1      -6.217  15.772  23.930  0.00  0.00    +0.000 C 
ENDBRANCH  11  16
ENDBRANCH   5  13
ENDBRANCH   1   8
BRANCH   3  19
ATOM     19  C   UNL     1       0.818   9.166  19.565  0.00  0.00    +0.000 A 
ATOM     20  C   UNL     1       1.328   9.430  18.292  0.00  0.00    +0.000 A 
ATOM     21  C   UNL     1       2.339   8.639  17.738  0.00  0.00    +0.000 A 
ATOM     22  C   UNL     1       2.876   7.560  18.445  0.00  0.00    +0.000 A 
ATOM     23  C   UNL     1       2.367   7.290  19.724  0.00  0.00    +0.000 A 
ATOM     24  C   UNL     1       1.356   8.092  20.283  0.00  0.00    +0.000 A 
BRANCH  22  25
ATOM     25  C   UNL     1       3.970   6.794  17.848  0.00  0.00    +0.000 A 
ATOM     26  N   UNL     1       4.831   5.990  18.450  0.00  0.00    +0.000 NA
ATOM     27  C   UNL     1       5.548   5.458  17.420  0.00  0.00    +0.000 A 
ATOM     28  N   UNL     1       6.532   4.536  17.512  0.00  0.00    +0.000 NA
ATOM     29  C   UNL     1       7.044   4.167  16.315  0.00  0.00    +0.000 A 
ATOM     30  C   UNL     1       6.654   4.663  15.070  0.00  0.00    +0.000 A 
ATOM     31  C   UNL     1       5.641   5.621  14.989  0.00  0.00    +0.000 A 
ATOM     32  C   UNL     1       5.108   5.985  16.216  0.00  0.00    +0.000 A 
ATOM     33  O   UNL     1       4.098   6.860  16.480  0.00  0.00    +0.000 OA
ENDBRANCH  22  25
ENDBRANCH   3  19
TORSDOF 5
ENDMDL
MODEL 3
REMARK VINA RESULT:      -8.2      0.388      1.478
REMARK  Name = 
REMARK  8 active torsions:
REMARK  status: ('A' for Active; 'I' for Inactive)
REMARK    1  A    between atoms: C_1  and  C_2
REMARK    2  A    between atoms: C_2  and  C_3
REMARK    3  A    between atoms: C_2  and  C_4
REMARK    4  A    between atoms: C_2  and  C_5
REMARK    5  A    between atoms: N_7  and  C_8
REMARK    6  A    between atoms: C_11  and  C_12
REMARK    7  A    between atoms: N_14  and  C_15
REMARK    8  A    between atoms: C_18  and  C_19
REMARK                            x       y       z     vdW  Elec       q    Type
REMARK                         _______ _______ _______ _____ _____    ______ ____
ROOT
ATOM      1  C   UNL     1      -0.061  10.829  21.176  0.00  0.00    +0.000 C 
ATOM      2  O   UNL     1       0.950  10.846  21.872  0.00  0.00    +0.000 OA
ATOM      3  N   UNL     1      -0.223  10.121  19.994  0.00  0.00    +0.000 N 
ATOM      4  H   UNL     1      -1.019  10.353  19.414  0.00  0.00    +0.000 HD
ENDROOT
BRANCH   1   8
ATOM      5  C   UNL     1      -3.388  13.199  22.548  0.00  0.00    +0.000 A 
ATOM      6  C   UNL     1      -2.753  12.260  23.363  0.00  0.00    +0.000 A 
ATOM      7  C   UNL     1      -1.663  11.525  22.897  0.00  0.00    +0.000 A 
ATOM      8  C   UNL     1      -1.178  11.715  21.601  0.00  0.00    +0.000 A 
ATOM      9  C   UNL     1      -1.814  12.634  20.761  0.00  0.00    +0.000 A 
ATOM     10  C   UNL     1      -2.925  13.361  21.233  0.00  0.00    +0.000 A 
BRANCH   5  13
ATOM     11  C   UNL     1      -5.826  13.566  22.918  0.00  0.00    +0.000 C 
ATOM     12  O   UNL     1      -6.190  12.453  22.541  0.00  0.00    +0.000 OA
ATOM     13  N   UNL     1      -4.494  13.964  22.997  0.00  0.00    +0.000 N 
ATOM     14  H   UNL     1      -4.284  14.808  23.513  0.00  0.00    +0.000 HD
BRANCH  11  16
ATOM     15  C   UNL     1      -7.794  13.952  24.416  0.00  0.00    +0.000 C 
ATOM     16  C   UNL     1      -6.870  14.611  23.369  0.00  0.00    +0.000 C 
ATOM     17  C   UNL     1      -7.730  15.059  22.180  0.00  0.00    +0.000 C 
ATOM     18  C   UNL     1      -6.186  15.818  24.019  0.00  0.00    +0.000 C 
ENDBRANCH  11  16
ENDBRANCH   5  13
ENDBRANCH   1   8
BRANCH   3  19
ATOM     19  C   UNL     1       0.748   9.251  19.439  0.00  0.00    +0.000 A 
ATOM     20  C   UNL     1       1.234   9.388  18.137  0.00  0.00    +0.000 A 
ATOM     21  C   UNL     1       2.185   8.502  17.621  0.00  0.00    +0.000 A 
ATOM     22  C   UNL     1       2.686   7.453  18.398  0.00  0.00    +0.000 A 
ATOM     23  C   UNL     1       2.200   7.312  19.706  0.00  0.00    +0.000 A 
ATOM     24  C   UNL     1       1.250   8.209  20.226  0.00  0.00    +0.000 A 
BRANCH  22  25
ATOM     25  C   UNL     1       3.720   6.585  17.836  0.00  0.00    +0.000 A 
ATOM     26  N   UNL     1       3.620   5.314  17.482  0.00  0.00    +0.000 NA
ATOM     27  C   UNL     1       4.831   5.040  16.923  0.00  0.00    +0.000 A 
ATOM     28  N   UNL     1       5.216   3.872  16.362  0.00  0.00    +0.000 NA
ATOM     29  C   UNL     1       6.470   3.900  15.854  0.00  0.00    +0.000 A 
ATOM     30  C   UNL     1       7.342   4.990  15.886  0.00  0.00    +0.000 A 
ATOM     31  C   UNL     1       6.934   6.189  16.475  0.00  0.00    +0.000 A 
ATOM     32  C   UNL     1       5.643   6.161  16.981  0.00  0.00    +0.000 A 
ATOM     33  O   UNL     1       4.942   7.162  17.581  0.00  0.00    +0.000 OA
ENDBRANCH  22  25
ENDBRANCH   3  19
TORSDOF 5
ENDMDL
MODEL 4
REMARK VINA RESULT:      -8.2      0.945      1.635
REMARK  Name = 
REMARK  8 active torsions:
REMARK  status: ('A' for Active; 'I' for Inactive)
REMARK    1  A    between atoms: C_1  and  C_2
REMARK    2  A    between atoms: C_2  and  C_3
REMARK    3  A    between atoms: C_2  and  C_4
REMARK    4  A    between atoms: C_2  and  C_5
REMARK    5  A    between atoms: N_7  and  C_8
REMARK    6  A    between atoms: C_11  and  C_12
REMARK    7  A    between atoms: N_14  and  C_15
REMARK    8  A    between atoms: C_18  and  C_19
REMARK                            x       y       z     vdW  Elec       q    Type
REMARK                         _______ _______ _______ _____ _____    ______ ____
ROOT
ATOM      1  C   UNL     1       0.010  10.959  21.153  0.00  0.00    +0.000 C 
ATOM      2  O   UNL     1       1.054  11.061  21.791  0.00  0.00    +0.000 OA
ATOM      3  N   UNL     1      -0.166  10.217  19.994  0.00  0.00    +0.000 N 
ATOM      4  H   UNL     1      -1.006  10.381  19.455  0.00  0.00    +0.000 HD
ENDROOT
BRANCH   1   8
ATOM      5  C   UNL     1      -3.408  13.114  22.649  0.00  0.00    +0.000 A 
ATOM      6  C   UNL     1      -2.729  12.164  23.414  0.00  0.00    +0.000 A 
ATOM      7  C   UNL     1      -1.611  11.501  22.910  0.00  0.00    +0.000 A 
ATOM      8  C   UNL     1      -1.141  11.774  21.624  0.00  0.00    +0.000 A 
ATOM      9  C   UNL     1      -1.819  12.706  20.832  0.00  0.00    +0.000 A 
ATOM     10  C   UNL     1      -2.959  13.361  21.343  0.00  0.00    +0.000 A 
BRANCH   5  13
ATOM     11  C   UNL     1      -5.866  13.461  22.877  0.00  0.00    +0.000 C 
ATOM     12  O   UNL     1      -6.204  12.444  22.273  0.00  0.00    +0.000 OA
ATOM     13  N   UNL     1      -4.544  13.809  23.138  0.00  0.00    +0.000 N 
ATOM     14  H   UNL     1      -4.373  14.538  23.817  0.00  0.00    +0.000 HD
BRANCH  11  16
ATOM     15  C   UNL     1      -7.743  13.691  24.518  0.00  0.00    +0.000 C 
ATOM     16  C   UNL     1      -6.939  14.427  23.425  0.00  0.00    +0.000 C 
ATOM     17  C   UNL     1      -7.907  14.844  22.309  0.00  0.00    +0.000 C 
ATOM     18  C   UNL     1      -6.286  15.663  24.054  0.00  0.00    +0.000 C 
ENDBRANCH  11  16
ENDBRANCH   5  13
ENDBRANCH   1   8
BRANCH   3  19
ATOM     19  C   UNL     1       0.833   9.405  19.400  0.00  0.00    +0.000 A 
ATOM     20  C   UNL     1       1.347   8.262  20.016  0.00  0.00    +0.000 A 
ATOM     21  C   UNL     1       2.340   7.492  19.400  0.00  0.00    +0.000 A 
ATOM     22  C   UNL     1       2.845   7.842  18.145  0.00  0.00    +0.000 A 
ATOM     23  C   UNL     1       2.332   8.990  17.524  0.00  0.00    +0.000 A 
ATOM     24  C   UNL     1       1.327   9.758  18.140  0.00  0.00    +0.000 A 
BRANCH  22  25
ATOM     25  C   UNL     1       3.843   6.977  17.517  0.00  0.00    +0.000 A 
ATOM     26  N   UNL     1       5.076   7.282  17.148  0.00  0.00    +0.000 NA
ATOM     27  C   UNL     1       5.591   6.092  16.731  0.00  0.00    +0.000 A 
ATOM     28  N   UNL     1       6.850   5.865  16.293  0.00  0.00    +0.000 NA
ATOM     29  C   UNL     1       7.090   4.571  15.976  0.00  0.00    +0.000 A 
ATOM     30  C   UNL     1       6.169   3.525  16.053  0.00  0.00    +0.000 A 
ATOM     31  C   UNL     1       4.869   3.775  16.500  0.00  0.00    +0.000 A 
ATOM     32  C   UNL     1       4.632   5.098  16.839  0.00  0.00    +0.000 A 
ATOM     33  O   UNL     1       3.494   5.659  17.332  0.00  0.00    +0.000 OA
ENDBRANCH  22  25
ENDBRANCH   3  19
TORSDOF 5
ENDMDL
MODEL 5
REMARK VINA RESULT:      -7.9      0.908      1.525
REMARK  Name = 
REMARK  8 active torsions:
REMARK  status: ('A' for Active; 'I' for Inactive)
REMARK    1  A    between atoms: C_1  and  C_2
REMARK    2  A    between atoms: C_2  and  C_3
REMARK    3  A    between atoms: C_2  and  C_4
REMARK    4  A    between atoms: C_2  and  C_5
REMARK    5  A    between atoms: N_7  and  C_8
REMARK    6  A    between atoms: C_11  and  C_12
REMARK    7  A    between atoms: N_14  and  C_15
REMARK    8  A    between atoms: C_18  and  C_19
REMARK                            x       y       z     vdW  Elec       q    Type
REMARK                         _______ _______ _______ _____ _____    ______ ____
ROOT
ATOM      1  C   UNL     1      -0.064  11.111  20.542  0.00  0.00    +0.000 C 
ATOM      2  O   UNL     1       0.856  11.860  20.227  0.00  0.00    +0.000 OA
ATOM      3  N   UNL     1      -0.144   9.756  20.255  0.00  0.00    +0.000 N 
ATOM      4  H   UNL     1      -1.039   9.301  20.385  0.00  0.00    +0.000 HD
ENDROOT
BRANCH   1   8
ATOM      5  C   UNL     1      -3.415  13.128  22.347  0.00  0.00    +0.000 A 
ATOM      6  C   UNL     1      -3.127  13.230  20.985  0.00  0.00    +0.000 A 
ATOM      7  C   UNL     1      -2.048  12.545  20.427  0.00  0.00    +0.000 A 
ATOM      8  C   UNL     1      -1.231  11.736  21.219  0.00  0.00    +0.000 A 
ATOM      9  C   UNL     1      -1.488  11.639  22.589  0.00  0.00    +0.000 A 
ATOM     10  C   UNL     1      -2.571  12.347  23.150  0.00  0.00    +0.000 A 
BRANCH   5  13
ATOM     11  C   UNL     1      -5.850  13.492  22.742  0.00  0.00    +0.000 C 
ATOM     12  O   UNL     1      -6.239  12.516  22.103  0.00  0.00    +0.000 OA
ATOM     13  N   UNL     1      -4.509  13.808  22.941  0.00  0.00    +0.000 N 
ATOM     14  H   UNL     1      -4.287  14.496  23.649  0.00  0.00    +0.000 HD
BRANCH  11  16
ATOM     15  C   UNL     1      -7.608  13.658  24.516  0.00  0.00    +0.000 C 
ATOM     16  C   UNL     1      -6.873  14.440  23.407  0.00  0.00    +0.000 C 
ATOM     17  C   UNL     1      -7.910  14.915  22.381  0.00  0.00    +0.000 C 
ATOM     18  C   UNL     1      -6.166  15.639  24.047  0.00  0.00    +0.000 C 
ENDBRANCH  11  16
ENDBRANCH   5  13
ENDBRANCH   1   8
BRANCH   3  19
ATOM     19  C   UNL     1       0.867   9.012  19.598  0.00  0.00    +0.000 A 
ATOM     20  C   UNL     1       1.323   9.319  18.314  0.00  0.00    +0.000 A 
ATOM     21  C   UNL     1       2.317   8.553  17.696  0.00  0.00    +0.000 A 
ATOM     22  C   UNL     1       2.890   7.457  18.347  0.00  0.00    +0.000 A 
ATOM     23  C   UNL     1       2.434   7.146  19.636  0.00  0.00    +0.000 A 
ATOM     24  C   UNL     1       1.441   7.922  20.261  0.00  0.00    +0.000 A 
BRANCH  22  25
ATOM     25  C   UNL     1       3.964   6.719  17.684  0.00  0.00    +0.000 A 
ATOM     26  N   UNL     1       4.269   6.696  16.397  0.00  0.00    +0.000 NA
ATOM     27  C   UNL     1       5.408   5.951  16.349  0.00  0.00    +0.000 A 
ATOM     28  N   UNL     1       6.144   5.669  15.252  0.00  0.00    +0.000 NA
ATOM     29  C   UNL     1       7.248   4.931  15.512  0.00  0.00    +0.000 A 
ATOM     30  C   UNL     1       7.640   4.458  16.765  0.00  0.00    +0.000 A 
ATOM     31  C   UNL     1       6.866   4.751  17.891  0.00  0.00    +0.000 A 
ATOM     32  C   UNL     1       5.744   5.520  17.623  0.00  0.00    +0.000 A 
ATOM     33  O   UNL     1       4.811   5.998  18.492  0.00  0.00    +0.000 OA
ENDBRANCH  22  25
ENDBRANCH   3  19
TORSDOF 5
ENDMDL
MODEL 6
REMARK VINA RESULT:      -7.8      1.145      1.456
REMARK  Name = 
REMARK  8 active torsions:
REMARK  status: ('A' for Active; 'I' for Inactive)
REMARK    1  A    between atoms: C_1  and  C_2
REMARK    2  A    between atoms: C_2  and  C_3
REMARK    3  A    between atoms: C_2  and  C_4
REMARK    4  A    between atoms: C_2  and  C_5
REMARK    5  A    between atoms: N_7  and  C_8
REMARK    6  A    between atoms: C_11  and  C_12
REMARK    7  A    between atoms: N_14  and  C_15
REMARK    8  A    between atoms: C_18  and  C_19
REMARK                            x       y       z     vdW  Elec       q    Type
REMARK                         _______ _______ _______ _____ _____    ______ ____
ROOT
ATOM      1  C   UNL     1       0.160  11.165  21.082  0.00  0.00    +0.000 C 
ATOM      2  O   UNL     1       1.293  11.546  21.358  0.00  0.00    +0.000 OA
ATOM      3  N   UNL     1      -0.161  10.084  20.276  0.00  0.00    +0.000 N 
ATOM      4  H   UNL     1      -1.120  10.001  19.960  0.00  0.00    +0.000 HD
ENDROOT
BRANCH   1   8
ATOM      5  C   UNL     1      -3.059  13.726  22.366  0.00  0.00    +0.000 A 
ATOM      6  C   UNL     1      -2.783  13.491  21.018  0.00  0.00    +0.000 A 
ATOM      7  C   UNL     1      -1.749  12.638  20.635  0.00  0.00    +0.000 A 
ATOM      8  C   UNL     1      -0.964  11.994  21.594  0.00  0.00    +0.000 A 
ATOM      9  C   UNL     1      -1.210  12.232  22.950  0.00  0.00    +0.000 A 
ATOM     10  C   UNL     1      -2.247  13.109  23.330  0.00  0.00    +0.000 A 
BRANCH   5  13
ATOM     11  C   UNL     1      -3.939  15.884  23.249  0.00  0.00    +0.000 C 
ATOM     12  O   UNL     1      -2.862  16.480  23.252  0.00  0.00    +0.000 OA
ATOM     13  N   UNL     1      -4.108  14.583  22.785  0.00  0.00    +0.000 N 
ATOM     14  H   UNL     1      -5.052  14.259  22.624  0.00  0.00    +0.000 HD
BRANCH  11  16
ATOM     15  C   UNL     1      -6.305  15.523  23.982  0.00  0.00    +0.000 C 
ATOM     16  C   UNL     1      -5.215  16.593  23.754  0.00  0.00    +0.000 C 
ATOM     17  C   UNL     1      -5.726  17.590  22.706  0.00  0.00    +0.000 C 
ATOM     18  C   UNL     1      -4.950  17.305  25.085  0.00  0.00    +0.000 C 
ENDBRANCH  11  16
ENDBRANCH   5  13
ENDBRANCH   1   8
BRANCH   3  19
ATOM     19  C   UNL     1       0.787   9.207  19.691  0.00  0.00    +0.000 A 
ATOM     20  C   UNL     1       1.361   8.139  20.383  0.00  0.00    +0.000 A 
ATOM     21  C   UNL     1       2.302   7.303  19.773  0.00  0.00    +0.000 A 
ATOM     22  C   UNL     1       2.692   7.507  18.447  0.00  0.00    +0.000 A 
ATOM     23  C   UNL     1       2.118   8.579  17.749  0.00  0.00    +0.000 A 
ATOM     24  C   UNL     1       1.165   9.414  18.360  0.00  0.00    +0.000 A 
BRANCH  22  25
ATOM     25  C   UNL     1       3.637   6.574  17.834  0.00  0.00    +0.000 A 
ATOM     26  N   UNL     1       3.453   5.299  17.535  0.00  0.00    +0.000 NA
ATOM     27  C   UNL     1       4.600   4.951  16.888  0.00  0.00    +0.000 A 
ATOM     28  N   UNL     1       4.887   3.749  16.340  0.00  0.00    +0.000 NA
ATOM     29  C   UNL     1       6.094   3.703  15.731  0.00  0.00    +0.000 A 
ATOM     30  C   UNL     1       7.012   4.751  15.653  0.00  0.00    +0.000 A 
ATOM     31  C   UNL     1       6.707   5.987  16.230  0.00  0.00    +0.000 A 
ATOM     32  C   UNL     1       5.463   6.035  16.840  0.00  0.00    +0.000 A 
ATOM     33  O   UNL     1       4.858   7.086  17.459  0.00  0.00    +0.000 OA
ENDBRANCH  22  25
ENDBRANCH   3  19
TORSDOF 5
ENDMDL
MODEL 7
REMARK VINA RESULT:      -7.8      0.973      1.395
REMARK  Name = 
REMARK  8 active torsions:
REMARK  status: ('A' for Active; 'I' for Inactive)
REMARK    1  A    between atoms: C_1  and  C_2
REMARK    2  A    between atoms: C_2  and  C_3
REMARK    3  A    between atoms: C_2  and  C_4
REMARK    4  A    between atoms: C_2  and  C_5
REMARK    5  A    between atoms: N_7  and  C_8
REMARK    6  A    between atoms: C_11  and  C_12
REMARK    7  A    between atoms: N_14  and  C_15
REMARK    8  A    between atoms: C_18  and  C_19
REMARK                            x       y       z     vdW  Elec       q    Type
REMARK                         _______ _______ _______ _____ _____    ______ ____
ROOT
ATOM      1  C   UNL     1       0.282  11.526  21.121  0.00  0.00    +0.000 C 
ATOM      2  O   UNL     1       1.439  11.923  21.228  0.00  0.00    +0.000 OA
ATOM      3  N   UNL     1      -0.126  10.379  20.457  0.00  0.00    +0.000 N 
ATOM      4  H   UNL     1      -1.114  10.274  20.264  0.00  0.00    +0.000 HD
ENDROOT
BRANCH   1   8
ATOM      5  C   UNL     1      -2.951  13.867  22.743  0.00  0.00    +0.000 A 
ATOM      6  C   UNL     1      -2.775  12.518  23.055  0.00  0.00    +0.000 A 
ATOM      7  C   UNL     1      -1.705  11.794  22.532  0.00  0.00    +0.000 A 
ATOM      8  C   UNL     1      -0.778  12.404  21.684  0.00  0.00    +0.000 A 
ATOM      9  C   UNL     1      -0.948  13.748  21.341  0.00  0.00    +0.000 A 
ATOM     10  C   UNL     1      -2.042  14.470  21.860  0.00  0.00    +0.000 A 
BRANCH   5  13
ATOM     11  C   UNL     1      -5.249  14.826  22.628  0.00  0.00    +0.000 C 
ATOM     12  O   UNL     1      -5.576  14.271  21.580  0.00  0.00    +0.000 OA
ATOM     13  N   UNL     1      -4.027  14.630  23.264  0.00  0.00    +0.000 N 
ATOM     14  H   UNL     1      -3.933  14.957  24.217  0.00  0.00    +0.000 HD
BRANCH  11  16
ATOM     15  C   UNL     1      -5.479  16.493  24.482  0.00  0.00    +0.000 C 
ATOM     16  C   UNL     1      -6.232  15.785  23.335  0.00  0.00    +0.000 C 
ATOM     17  C   UNL     1      -7.407  15.003  23.937  0.00  0.00    +0.000 C 
ATOM     18  C   UNL     1      -6.744  16.852  22.361  0.00  0.00    +0.000 C 
ENDBRANCH  11  16
ENDBRANCH   5  13
ENDBRANCH   1   8
BRANCH   3  19
ATOM     19  C   UNL     1       0.751   9.447  19.847  0.00  0.00    +0.000 A 
ATOM     20  C   UNL     1       1.305   8.364  20.533  0.00  0.00    +0.000 A 
ATOM     21  C   UNL     1       2.176   7.473  19.897  0.00  0.00    +0.000 A 
ATOM     22  C   UNL     1       2.514   7.636  18.551  0.00  0.00    +0.000 A 
ATOM     23  C   UNL     1       1.960   8.722  17.859  0.00  0.00    +0.000 A 
ATOM     24  C   UNL     1       1.078   9.613  18.497  0.00  0.00    +0.000 A 
BRANCH  22  25
ATOM     25  C   UNL     1       3.384   6.648  17.914  0.00  0.00    +0.000 A 
ATOM     26  N   UNL     1       3.369   5.333  18.052  0.00  0.00    +0.000 NA
ATOM     27  C   UNL     1       4.303   4.905  17.157  0.00  0.00    +0.000 A 
ATOM     28  N   UNL     1       4.633   3.623  16.884  0.00  0.00    +0.000 NA
ATOM     29  C   UNL     1       5.575   3.497  15.920  0.00  0.00    +0.000 A 
ATOM     30  C   UNL     1       6.199   4.546  15.244  0.00  0.00    +0.000 A 
ATOM     31  C   UNL     1       5.853   5.867  15.540  0.00  0.00    +0.000 A 
ATOM     32  C   UNL     1       4.877   5.992  16.517  0.00  0.00    +0.000 A 
ATOM     33  O   UNL     1       4.302   7.124  17.007  0.00  0.00    +0.000 OA
ENDBRANCH  22  25
ENDBRANCH   3  19
TORSDOF 5
ENDMDL
MODEL 8
REMARK VINA RESULT:      -7.8      1.716     12.625
REMARK  Name = 
REMARK  8 active torsions:
REMARK  status: ('A' for Active; 'I' for Inactive)
REMARK    1  A    between atoms: C_1  and  C_2
REMARK    2  A    between atoms: C_2  and  C_3
REMARK    3  A    between atoms: C_2  and  C_4
REMARK    4  A    between atoms: C_2  and  C_5
REMARK    5  A    between atoms: N_7  and  C_8
REMARK    6  A    between atoms: C_11  and  C_12
REMARK    7  A    between atoms: N_14  and  C_15
REMARK    8  A    between atoms: C_18  and  C_19
REMARK                            x       y       z     vdW  Elec       q    Type
REMARK                         _______ _______ _______ _____ _____    ______ ____
ROOT
ATOM      1  C   UNL     1       0.571   9.890  19.856  0.00  0.00    +0.000 C 
ATOM      2  O   UNL     1      -0.245  10.335  19.055  0.00  0.00    +0.000 OA
ATOM      3  N   UNL     1       0.760  10.335  21.157  0.00  0.00    +0.000 N 
ATOM      4  H   UNL     1       1.595  10.031  21.640  0.00  0.00    +0.000 HD
ENDROOT
BRANCH   1   8
ATOM      5  C   UNL     1       3.138   6.872  18.164  0.00  0.00    +0.000 A 
ATOM      6  C   UNL     1       2.763   8.016  17.458  0.00  0.00    +0.000 A 
ATOM      7  C   UNL     1       1.950   8.986  18.042  0.00  0.00    +0.000 A 
ATOM      8  C   UNL     1       1.493   8.837  19.353  0.00  0.00    +0.000 A 
ATOM      9  C   UNL     1       1.838   7.688  20.071  0.00  0.00    +0.000 A 
ATOM     10  C   UNL     1       2.648   6.703  19.468  0.00  0.00    +0.000 A 
BRANCH   5  13
ATOM     11  C   UNL     1       5.247   6.087  17.091  0.00  0.00    +0.000 C 
ATOM     12  O   UNL     1       5.847   7.158  17.170  0.00  0.00    +0.000 OA
ATOM     13  N   UNL     1       3.969   5.871  17.598  0.00  0.00    +0.000 N 
ATOM     14  H   UNL     1       3.648   4.916  17.677  0.00  0.00    +0.000 HD
BRANCH  11  16
ATOM     15  C   UNL     1       4.980   3.654  16.564  0.00  0.00    +0.000 C 
ATOM     16  C   UNL     1       5.923   4.869  16.424  0.00  0.00    +0.000 C 
ATOM     17  C   UNL     1       7.247   4.538  17.125  0.00  0.00    +0.000 C 
ATOM     18  C   UNL     1       6.159   5.129  14.932  0.00  0.00    +0.000 C 
ENDBRANCH  11  16
ENDBRANCH   5  13
ENDBRANCH   1   8
BRANCH   3  19
ATOM     19  C   UNL     1      -0.015  11.343  21.782  0.00  0.00    +0.000 A 
ATOM     20  C   UNL     1       0.187  12.706  21.555  0.00  0.00    +0.000 A 
ATOM     21  C   UNL     1      -0.593  13.671  22.201  0.00  0.00    +0.000 A 
ATOM     22  C   UNL     1      -1.606  13.300  23.090  0.00  0.00    +0.000 A 
ATOM     23  C   UNL     1      -1.811  11.932  23.321  0.00  0.00    +0.000 A 
ATOM     24  C   UNL     1      -1.032  10.963  22.664  0.00  0.00    +0.000 A 
BRANCH  22  25
ATOM     25  C   UNL     1      -2.432  14.342  23.699  0.00  0.00    +0.000 A 
ATOM     26  N   UNL     1      -2.057  15.311  24.518  0.00  0.00    +0.000 NA
ATOM     27  C   UNL     1      -3.189  16.050  24.682  0.00  0.00    +0.000 A 
ATOM     28  N   UNL     1      -3.316  17.186  25.403  0.00  0.00    +0.000 NA
ATOM     29  C   UNL     1      -4.557  17.723  25.358  0.00  0.00    +0.000 A 
ATOM     30  C   UNL     1      -5.652  17.199  24.668  0.00  0.00    +0.000 A 
ATOM     31  C   UNL     1      -5.509  16.020  23.932  0.00  0.00    +0.000 A 
ATOM     32  C   UNL     1      -4.232  15.481  23.968  0.00  0.00    +0.000 A 
ATOM     33  O   UNL     1      -3.759  14.369  23.340  0.00  0.00    +0.000 OA
ENDBRANCH  22  25
ENDBRANCH   3  19
TORSDOF 5
ENDMDL
MODEL 9
REMARK VINA RESULT:      -7.7      1.282      1.594
REMARK  Name = 
REMARK  8 active torsions:
REMARK  status: ('A' for Active; 'I' for Inactive)
REMARK    1  A    between atoms: C_1  and  C_2
REMARK    2  A    between atoms: C_2  and  C_3
REMARK    3  A    between atoms: C_2  and  C_4
REMARK    4  A    between atoms: C_2  and  C_5
REMARK    5  A    between atoms: N_7  and  C_8
REMARK    6  A    between atoms: C_11  and  C_12
REMARK    7  A    between atoms: N_14  and  C_15
REMARK    8  A    between atoms: C_18  and  C_19
REMARK                            x       y       z     vdW  Elec       q    Type
REMARK                         _______ _______ _______ _____ _____    ______ ____
ROOT
ATOM      1  C   UNL     1      -0.121  10.752  21.286  0.00  0.00    +0.000 C 
ATOM      2  O   UNL     1       0.879  10.802  21.996  0.00  0.00    +0.000 OA
ATOM      3  N   UNL     1      -0.225  10.085  20.074  0.00  0.00    +0.000 N 
ATOM      4  H   UNL     1      -1.027  10.292  19.493  0.00  0.00    +0.000 HD
ENDROOT
BRANCH   1   8
ATOM      5  C   UNL     1      -3.458  13.240  22.398  0.00  0.00    +0.000 A 
ATOM      6  C   UNL     1      -3.019  13.124  21.078  0.00  0.00    +0.000 A 
ATOM      7  C   UNL     1      -1.951  12.291  20.747  0.00  0.00    +0.000 A 
ATOM      8  C   UNL     1      -1.295  11.549  21.731  0.00  0.00    +0.000 A 
ATOM      9  C   UNL     1      -1.703  11.668  23.063  0.00  0.00    +0.000 A 
ATOM     10  C   UNL     1      -2.774  12.524  23.392  0.00  0.00    +0.000 A 
BRANCH   5  13
ATOM     11  C   UNL     1      -4.461  15.445  22.984  0.00  0.00    +0.000 C 
ATOM     12  O   UNL     1      -3.447  16.113  22.787  0.00  0.00    +0.000 OA
ATOM     13  N   UNL     1      -4.546  14.074  22.763  0.00  0.00    +0.000 N 
ATOM     14  H   UNL     1      -5.466  13.654  22.747  0.00  0.00    +0.000 HD
BRANCH  11  16
ATOM     15  C   UNL     1      -5.401  17.005  24.702  0.00  0.00    +0.000 C 
ATOM     16  C   UNL     1      -5.754  16.130  23.480  0.00  0.00    +0.000 C 
ATOM     17  C   UNL     1      -6.784  15.080  23.918  0.00  0.00    +0.000 C 
ATOM     18  C   UNL     1      -6.342  17.033  22.391  0.00  0.00    +0.000 C 
ENDBRANCH  11  16
ENDBRANCH   5  13
ENDBRANCH   1   8
BRANCH   3  19
ATOM     19  C   UNL     1       0.804   9.300  19.497  0.00  0.00    +0.000 A 
ATOM     20  C   UNL     1       1.366   8.195  20.139  0.00  0.00    +0.000 A 
ATOM     21  C   UNL     1       2.388   7.452  19.539  0.00  0.00    +0.000 A 
ATOM     22  C   UNL     1       2.875   7.790  18.274  0.00  0.00    +0.000 A 
ATOM     23  C   UNL     1       2.313   8.900  17.626  0.00  0.00    +0.000 A 
ATOM     24  C   UNL     1       1.280   9.641  18.226  0.00  0.00    +0.000 A 
BRANCH  22  25
ATOM     25  C   UNL     1       3.906   6.951  17.663  0.00  0.00    +0.000 A 
ATOM     26  N   UNL     1       4.289   6.914  16.397  0.00  0.00    +0.000 NA
ATOM     27  C   UNL     1       5.344   6.053  16.405  0.00  0.00    +0.000 A 
ATOM     28  N   UNL     1       6.116   5.709  15.350  0.00  0.00    +0.000 NA
ATOM     29  C   UNL     1       7.117   4.855  15.663  0.00  0.00    +0.000 A 
ATOM     30  C   UNL     1       7.376   4.327  16.929  0.00  0.00    +0.000 A 
ATOM     31  C   UNL     1       6.567   4.684  18.010  0.00  0.00    +0.000 A 
ATOM     32  C   UNL     1       5.551   5.571  17.688  0.00  0.00    +0.000 A 
ATOM     33  O   UNL     1       4.620   6.133  18.508  0.00  0.00    +0.000 OA
ENDBRANCH  22  25
ENDBRANCH   3  19
TORSDOF 5
ENDMDL
