MODEL 1
REMARK VINA RESULT:      -7.0      0.000      0.000
REMARK  Name = 
REMARK  8 active torsions:
REMARK  status: ('A' for Active; 'I' for Inactive)
REMARK    1  A    between atoms: C_1  and  O_2
REMARK    2  A    between atoms: O_2  and  C_3
REMARK    3  A    between atoms: C_6  and  C_7
REMARK    4  A    between atoms: N_8  and  N_9
REMARK    5  A    between atoms: N_9  and  C_10
REMARK    6  A    between atoms: C_10  and  N_12
REMARK    7  A    between atoms: N_12  and  C_13
REMARK    8  A    between atoms: C_16  and  C_17
REMARK                            x       y       z     vdW  Elec       q    Type
REMARK                         _______ _______ _______ _____ _____    ______ ____
ROOT
ATOM      1  N   UNL     1       3.251   4.013  19.976  0.00  0.00    +0.000 N 
ATOM      2  H   UNL     1       3.248   3.650  20.923  0.00  0.00    +0.000 HD
ENDROOT
BRANCH   1   4
ATOM      3  C   UNL     1       3.063   6.219  19.586  0.00  0.00    +0.000 C 
ATOM      4  N   UNL     1       2.469   5.073  19.666  0.00  0.00    +0.000 NA
BRANCH   3   8
ATOM      5  C   UNL     1       0.814   9.805  19.033  0.00  0.00    +0.000 A 
ATOM      6  C   UNL     1       0.884   9.198  20.287  0.00  0.00    +0.000 A 
ATOM      7  C   UNL     1       1.616   8.028  20.462  0.00  0.00    +0.000 A 
ATOM      8  C   UNL     1       2.270   7.445  19.376  0.00  0.00    +0.000 A 
ATOM      9  C   UNL     1       2.206   8.041  18.116  0.00  0.00    +0.000 A 
ATOM     10  C   UNL     1       1.468   9.221  17.946  0.00  0.00    +0.000 A 
BRANCH   5  12
ATOM     11  C   UNL     1       0.226  11.846  20.068  0.00  0.00    +0.000 C 
ATOM     12  O   UNL     1       0.053  10.938  18.991  0.00  0.00    +0.000 OA
ENDBRANCH   5  12
ENDBRANCH   3   8
ENDBRANCH   1   4
BRANCH   1  13
ATOM     13  C   UNL     1       3.863   3.256  18.994  0.00  0.00    +0.000 C 
ATOM     14  S   UNL     1       3.093   2.267  17.888  0.00  0.00    +0.000 S 
BRANCH  13  15
ATOM     15  N   UNL     1       5.227   3.414  18.919  0.00  0.00    +0.000 N 
ATOM     16  H   UNL     1       5.772   2.697  19.385  0.00  0.00    +0.000 HD
BRANCH  15  17
ATOM     17  C   UNL     1       5.913   4.604  18.591  0.00  0.00    +0.000 A 
ATOM     18  C   UNL     1       7.008   5.062  19.332  0.00  0.00    +0.000 A 
ATOM     19  C   UNL     1       7.674   6.233  18.967  0.00  0.00    +0.000 A 
ATOM     20  C   UNL     1       7.251   6.964  17.855  0.00  0.00    +0.000 A 
ATOM     21  C   UNL     1       7.948   8.232  17.462  0.00  0.00    +0.000 C 
ATOM     22  C   UNL     1       6.171   6.489  17.099  0.00  0.00    +0.000 A 
ATOM     23  C   UNL     1       5.518   5.305  17.453  0.00  0.00    +0.000 A 
ENDBRANCH  15  17
ENDBRANCH  13  15
ENDBRANCH   1  13
TORSDOF 6
ENDMDL
MODEL 2
REMARK VINA RESULT:      -7.0      2.447      4.210
REMARK  Name = 
REMARK  8 active torsions:
REMARK  status: ('A' for Active; 'I' for Inactive)
REMARK    1  A    between atoms: C_1  and  O_2
REMARK    2  A    between atoms: O_2  and  C_3
REMARK    3  A    between atoms: C_6  and  C_7
REMARK    4  A    between atoms: N_8  and  N_9
REMARK    5  A    between atoms: N_9  and  C_10
REMARK    6  A    between atoms: C_10  and  N_12
REMARK    7  A    between atoms: N_12  and  C_13
REMARK    8  A    between atoms: C_16  and  C_17
REMARK                            x       y       z     vdW  Elec       q    Type
REMARK                         _______ _______ _______ _____ _____    ______ ____
ROOT
ATOM      1  N   UNL     1       4.861   6.412  16.627  0.00  0.00    +0.000 N 
ATOM      2  H   UNL     1       5.227   7.097  15.975  0.00  0.00    +0.000 HD
ENDROOT
BRANCH   1   4
ATOM      3  C   UNL     1       3.056   7.476  17.443  0.00  0.00    +0.000 C 
ATOM      4  N   UNL     1       4.145   6.828  17.698  0.00  0.00    +0.000 NA
BRANCH   3   8
ATOM      5  C   UNL     1       0.745   9.202  20.590  0.00  0.00    +0.000 A 
ATOM      6  C   UNL     1       0.861   9.848  19.359  0.00  0.00    +0.000 A 
ATOM      7  C   UNL     1       1.617   9.283  18.337  0.00  0.00    +0.000 A 
ATOM      8  C   UNL     1       2.281   8.073  18.546  0.00  0.00    +0.000 A 
ATOM      9  C   UNL     1       2.174   7.418  19.773  0.00  0.00    +0.000 A 
ATOM     10  C   UNL     1       1.409   7.991  20.800  0.00  0.00    +0.000 A 
BRANCH   5  12
ATOM     11  C   UNL     1       0.171   9.479  22.866  0.00  0.00    +0.000 C 
ATOM     12  O   UNL     1      -0.012   9.866  21.512  0.00  0.00    +0.000 OA
ENDBRANCH   5  12
ENDBRANCH   3   8
ENDBRANCH   1   4
BRANCH   1  13
ATOM     13  C   UNL     1       5.317   5.111  16.525  0.00  0.00    +0.000 C 
ATOM     14  S   UNL     1       6.915   4.632  16.417  0.00  0.00    +0.000 S 
BRANCH  13  15
ATOM     15  N   UNL     1       4.331   4.154  16.587  0.00  0.00    +0.000 N 
ATOM     16  H   UNL     1       3.976   3.840  15.690  0.00  0.00    +0.000 HD
BRANCH  15  17
ATOM     17  C   UNL     1       3.541   3.841  17.714  0.00  0.00    +0.000 A 
ATOM     18  C   UNL     1       2.144   3.918  17.691  0.00  0.00    +0.000 A 
ATOM     19  C   UNL     1       1.394   3.582  18.819  0.00  0.00    +0.000 A 
ATOM     20  C   UNL     1       2.034   3.165  19.989  0.00  0.00    +0.000 A 
ATOM     21  C   UNL     1       1.240   2.816  21.212  0.00  0.00    +0.000 C 
ATOM     22  C   UNL     1       3.431   3.062  20.001  0.00  0.00    +0.000 A 
ATOM     23  C   UNL     1       4.180   3.379  18.864  0.00  0.00    +0.000 A 
ENDBRANCH  15  17
ENDBRANCH  13  15
ENDBRANCH   1  13
TORSDOF 6
ENDMDL
MODEL 3
REMARK VINA RESULT:      -6.9      0.971      1.767
REMARK  Name = 
REMARK  8 active torsions:
REMARK  status: ('A' for Active; 'I' for Inactive)
REMARK    1  A    between atoms: C_1  and  O_2
REMARK    2  A    between atoms: O_2  and  C_3
REMARK    3  A    between atoms: C_6  and  C_7
REMARK    4  A    between atoms: N_8  and  N_9
REMARK    5  A    between atoms: N_9  and  C_10
REMARK    6  A    between atoms: C_10  and  N_12
REMARK    7  A    between atoms: N_12  and  C_13
REMARK    8  A    between atoms: C_16  and  C_17
REMARK                            x       y       z     vdW  Elec       q    Type
REMARK                         _______ _______ _______ _____ _____    ______ ____
ROOT
ATOM      1  N   UNL     1       2.691   3.686  18.259  0.00  0.00    +0.000 N 
ATOM      2  H   UNL     1       2.034   2.991  17.919  0.00  0.00    +0.000 HD
ENDROOT
BRANCH   1   4
ATOM      3  C   UNL     1       2.579   5.730  19.188  0.00  0.00    +0.000 C 
ATOM      4  N   UNL     1       2.393   5.000  18.137  0.00  0.00    +0.000 NA
BRANCH   3   8
ATOM      5  C   UNL     1       1.327   9.811  19.113  0.00  0.00    +0.000 A 
ATOM      6  C   UNL     1       1.901   9.224  17.985  0.00  0.00    +0.000 A 
ATOM      7  C   UNL     1       2.311   7.895  18.014  0.00  0.00    +0.000 A 
ATOM      8  C   UNL     1       2.164   7.145  19.183  0.00  0.00    +0.000 A 
ATOM      9  C   UNL     1       1.592   7.721  20.318  0.00  0.00    +0.000 A 
ATOM     10  C   UNL     1       1.181   9.061  20.282  0.00  0.00    +0.000 A 
BRANCH   5  12
ATOM     11  C   UNL     1      -0.390  11.434  19.145  0.00  0.00    +0.000 C 
ATOM     12  O   UNL     1       0.983  11.123  18.959  0.00  0.00    +0.000 OA
ENDBRANCH   5  12
ENDBRANCH   3   8
ENDBRANCH   1   4
BRANCH   1  13
ATOM     13  C   UNL     1       3.961   3.263  18.604  0.00  0.00    +0.000 C 
ATOM     14  S   UNL     1       4.368   2.363  19.952  0.00  0.00    +0.000 S 
BRANCH  13  15
ATOM     15  N   UNL     1       4.937   3.582  17.688  0.00  0.00    +0.000 N 
ATOM     16  H   UNL     1       5.302   2.800  17.155  0.00  0.00    +0.000 HD
BRANCH  15  17
ATOM     17  C   UNL     1       5.706   4.766  17.667  0.00  0.00    +0.000 A 
ATOM     18  C   UNL     1       5.387   5.848  16.839  0.00  0.00    +0.000 A 
ATOM     19  C   UNL     1       6.158   7.011  16.859  0.00  0.00    +0.000 A 
ATOM     20  C   UNL     1       7.263   7.106  17.709  0.00  0.00    +0.000 A 
ATOM     21  C   UNL     1       8.109   8.343  17.728  0.00  0.00    +0.000 C 
ATOM     22  C   UNL     1       7.564   6.032  18.556  0.00  0.00    +0.000 A 
ATOM     23  C   UNL     1       6.778   4.876  18.550  0.00  0.00    +0.000 A 
ENDBRANCH  15  17
ENDBRANCH  13  15
ENDBRANCH   1  13
TORSDOF 6
ENDMDL
MODEL 4
REMARK VINA RESULT:      -6.9      2.472      3.901
REMARK  Name = 
REMARK  8 active torsions:
REMARK  status: ('A' for Active; 'I' for Inactive)
REMARK    1  A    between atoms: C_1  and  O_2
REMARK    2  A    between atoms: O_2  and  C_3
REMARK    3  A    between atoms: C_6  and  C_7
REMARK    4  A    between atoms: N_8  and  N_9
REMARK    5  A    between atoms: N_9  and  C_10
REMARK    6  A    between atoms: C_10  and  N_12
REMARK    7  A    between atoms: N_12  and  C_13
REMARK    8  A    between atoms: C_16  and  C_17
REMARK                            x       y       z     vdW  Elec       q    Type
REMARK                         _______ _______ _______ _____ _____    ______ ____
ROOT
ATOM      1  N   UNL     1       5.908   6.181  16.627  0.00  0.00    +0.000 N 
ATOM      2  H   UNL     1       6.720   6.723  16.350  0.00  0.00    +0.000 HD
ENDROOT
BRANCH   1   4
ATOM      3  C   UNL     1       3.876   7.009  17.118  0.00  0.00    +0.000 C 
ATOM      4  N   UNL     1       5.052   6.686  17.546  0.00  0.00    +0.000 NA
BRANCH   3   8
ATOM      5  C   UNL     1       1.175   8.956  19.790  0.00  0.00    +0.000 A 
ATOM      6  C   UNL     1       1.765   7.741  20.139  0.00  0.00    +0.000 A 
ATOM      7  C   UNL     1       2.643   7.108  19.263  0.00  0.00    +0.000 A 
ATOM      8  C   UNL     1       2.923   7.680  18.021  0.00  0.00    +0.000 A 
ATOM      9  C   UNL     1       2.338   8.894  17.661  0.00  0.00    +0.000 A 
ATOM     10  C   UNL     1       1.456   9.528  18.547  0.00  0.00    +0.000 A 
BRANCH   5  12
ATOM     11  C   UNL     1       0.029   8.617  21.828  0.00  0.00    +0.000 C 
ATOM     12  O   UNL     1       0.324   9.465  20.728  0.00  0.00    +0.000 OA
ENDBRANCH   5  12
ENDBRANCH   3   8
ENDBRANCH   1   4
BRANCH   1  13
ATOM     13  C   UNL     1       5.850   4.857  16.237  0.00  0.00    +0.000 C 
ATOM     14  S   UNL     1       6.054   4.275  14.684  0.00  0.00    +0.000 S 
BRANCH  13  15
ATOM     15  N   UNL     1       5.668   3.966  17.270  0.00  0.00    +0.000 N 
ATOM     16  H   UNL     1       6.383   3.252  17.357  0.00  0.00    +0.000 HD
BRANCH  15  17
ATOM     17  C   UNL     1       4.461   3.727  17.963  0.00  0.00    +0.000 A 
ATOM     18  C   UNL     1       4.398   3.694  19.361  0.00  0.00    +0.000 A 
ATOM     19  C   UNL     1       3.183   3.475  20.013  0.00  0.00    +0.000 A 
ATOM     20  C   UNL     1       2.014   3.284  19.273  0.00  0.00    +0.000 A 
ATOM     21  C   UNL     1       0.706   3.032  19.961  0.00  0.00    +0.000 C 
ATOM     22  C   UNL     1       2.075   3.344  17.875  0.00  0.00    +0.000 A 
ATOM     23  C   UNL     1       3.288   3.584  17.223  0.00  0.00    +0.000 A 
ENDBRANCH  15  17
ENDBRANCH  13  15
ENDBRANCH   1  13
TORSDOF 6
ENDMDL
MODEL 5
REMARK VINA RESULT:      -6.9      4.620      7.252
REMARK  Name = 
REMARK  8 active torsions:
REMARK  status: ('A' for Active; 'I' for Inactive)
REMARK    1  A    between atoms: C_1  and  O_2
REMARK    2  A    between atoms: O_2  and  C_3
REMARK    3  A    between atoms: C_6  and  C_7
REMARK    4  A    between atoms: N_8  and  N_9
REMARK    5  A    between atoms: N_9  and  C_10
REMARK    6  A    between atoms: C_10  and  N_12
REMARK    7  A    between atoms: N_12  and  C_13
REMARK    8  A    between atoms: C_16  and  C_17
REMARK                            x       y       z     vdW  Elec       q    Type
REMARK                         _______ _______ _______ _____ _____    ______ ____
ROOT
ATOM      1  N   UNL     1       7.649   7.743  17.119  0.00  0.00    +0.000 N 
ATOM      2  H   UNL     1       7.908   7.815  16.141  0.00  0.00    +0.000 HD
ENDROOT
BRANCH   1   4
ATOM      3  C   UNL     1       8.331   9.829  17.606  0.00  0.00    +0.000 C 
ATOM      4  N   UNL     1       8.176   8.611  18.013  0.00  0.00    +0.000 NA
BRANCH   3   8
ATOM      5  C   UNL     1      10.235  12.721  20.103  0.00  0.00    +0.000 A 
ATOM      6  C   UNL     1       9.830  13.056  18.811  0.00  0.00    +0.000 A 
ATOM      7  C   UNL     1       9.212  12.110  17.999  0.00  0.00    +0.000 A 
ATOM      8  C   UNL     1       9.011  10.811  18.470  0.00  0.00    +0.000 A 
ATOM      9  C   UNL     1       9.413  10.463  19.760  0.00  0.00    +0.000 A 
ATOM     10  C   UNL     1      10.034  11.422  20.574  0.00  0.00    +0.000 A 
BRANCH   5  12
ATOM     11  C   UNL     1      11.301  14.828  20.011  0.00  0.00    +0.000 C 
ATOM     12  O   UNL     1      10.841  13.733  20.790  0.00  0.00    +0.000 OA
ENDBRANCH   5  12
ENDBRANCH   3   8
ENDBRANCH   1   4
BRANCH   1  13
ATOM     13  C   UNL     1       6.967   6.612  17.527  0.00  0.00    +0.000 C 
ATOM     14  S   UNL     1       7.274   5.720  18.907  0.00  0.00    +0.000 S 
BRANCH  13  15
ATOM     15  N   UNL     1       5.906   6.264  16.724  0.00  0.00    +0.000 N 
ATOM     16  H   UNL     1       5.856   6.754  15.837  0.00  0.00    +0.000 HD
BRANCH  15  17
ATOM     17  C   UNL     1       4.731   5.598  17.136  0.00  0.00    +0.000 A 
ATOM     18  C   UNL     1       3.700   6.256  17.816  0.00  0.00    +0.000 A 
ATOM     19  C   UNL     1       2.543   5.569  18.190  0.00  0.00    +0.000 A 
ATOM     20  C   UNL     1       2.405   4.212  17.890  0.00  0.00    +0.000 A 
ATOM     21  C   UNL     1       1.174   3.459  18.300  0.00  0.00    +0.000 C 
ATOM     22  C   UNL     1       3.426   3.562  17.185  0.00  0.00    +0.000 A 
ATOM     23  C   UNL     1       4.575   4.256  16.792  0.00  0.00    +0.000 A 
ENDBRANCH  15  17
ENDBRANCH  13  15
ENDBRANCH   1  13
TORSDOF 6
ENDMDL
MODEL 6
REMARK VINA RESULT:      -6.9      2.508      4.036
REMARK  Name = 
REMARK  8 active torsions:
REMARK  status: ('A' for Active; 'I' for Inactive)
REMARK    1  A    between atoms: C_1  and  O_2
REMARK    2  A    between atoms: O_2  and  C_3
REMARK    3  A    between atoms: C_6  and  C_7
REMARK    4  A    between atoms: N_8  and  N_9
REMARK    5  A    between atoms: N_9  and  C_10
REMARK    6  A    between atoms: C_10  and  N_12
REMARK    7  A    between atoms: N_12  and  C_13
REMARK    8  A    between atoms: C_16  and  C_17
REMARK                            x       y       z     vdW  Elec       q    Type
REMARK                         _______ _______ _______ _____ _____    ______ ____
ROOT
ATOM      1  N   UNL     1       5.970   6.273  16.522  0.00  0.00    +0.000 N 
ATOM      2  H   UNL     1       6.829   6.756  16.282  0.00  0.00    +0.000 HD
ENDROOT
BRANCH   1   4
ATOM      3  C   UNL     1       3.901   6.949  17.083  0.00  0.00    +0.000 C 
ATOM      4  N   UNL     1       5.136   6.815  17.440  0.00  0.00    +0.000 NA
BRANCH   3   8
ATOM      5  C   UNL     1       1.207   8.963  19.712  0.00  0.00    +0.000 A 
ATOM      6  C   UNL     1       1.808   7.764  20.095  0.00  0.00    +0.000 A 
ATOM      7  C   UNL     1       2.683   7.109  19.234  0.00  0.00    +0.000 A 
ATOM      8  C   UNL     1       2.950   7.642  17.972  0.00  0.00    +0.000 A 
ATOM      9  C   UNL     1       2.354   8.840  17.577  0.00  0.00    +0.000 A 
ATOM     10  C   UNL     1       1.474   9.496  18.449  0.00  0.00    +0.000 A 
BRANCH   5  12
ATOM     11  C   UNL     1      -0.130   8.600  21.627  0.00  0.00    +0.000 C 
ATOM     12  O   UNL     1       0.359   9.496  20.639  0.00  0.00    +0.000 OA
ENDBRANCH   5  12
ENDBRANCH   3   8
ENDBRANCH   1   4
BRANCH   1  13
ATOM     13  C   UNL     1       5.815   4.970  16.086  0.00  0.00    +0.000 C 
ATOM     14  S   UNL     1       5.873   4.448  14.500  0.00  0.00    +0.000 S 
BRANCH  13  15
ATOM     15  N   UNL     1       5.665   4.045  17.094  0.00  0.00    +0.000 N 
ATOM     16  H   UNL     1       6.380   3.328  17.133  0.00  0.00    +0.000 HD
BRANCH  15  17
ATOM     17  C   UNL     1       4.481   3.786  17.818  0.00  0.00    +0.000 A 
ATOM     18  C   UNL     1       3.259   3.536  17.185  0.00  0.00    +0.000 A 
ATOM     19  C   UNL     1       2.112   3.263  17.933  0.00  0.00    +0.000 A 
ATOM     20  C   UNL     1       2.174   3.240  19.329  0.00  0.00    +0.000 A 
ATOM     21  C   UNL     1       0.946   2.965  20.144  0.00  0.00    +0.000 C 
ATOM     22  C   UNL     1       3.404   3.464  19.960  0.00  0.00    +0.000 A 
ATOM     23  C   UNL     1       4.556   3.716  19.209  0.00  0.00    +0.000 A 
ENDBRANCH  15  17
ENDBRANCH  13  15
ENDBRANCH   1  13
TORSDOF 6
ENDMDL
MODEL 7
REMARK VINA RESULT:      -6.8      0.513      1.166
REMARK  Name = 
REMARK  8 active torsions:
REMARK  status: ('A' for Active; 'I' for Inactive)
REMARK    1  A    between atoms: C_1  and  O_2
REMARK    2  A    between atoms: O_2  and  C_3
REMARK    3  A    between atoms: C_6  and  C_7
REMARK    4  A    between atoms: N_8  and  N_9
REMARK    5  A    between atoms: N_9  and  C_10
REMARK    6  A    between atoms: C_10  and  N_12
REMARK    7  A    between atoms: N_12  and  C_13
REMARK    8  A    between atoms: C_16  and  C_17
REMARK                            x       y       z     vdW  Elec       q    Type
REMARK                         _______ _______ _______ _____ _____    ______ ____
ROOT
ATOM      1  N   UNL     1       3.492   4.035  19.831  0.00  0.00    +0.000 N 
ATOM      2  H   UNL     1       3.725   3.674  20.749  0.00  0.00    +0.000 HD
ENDROOT
BRANCH   1   4
ATOM      3  C   UNL     1       3.182   6.160  19.164  0.00  0.00    +0.000 C 
ATOM      4  N   UNL     1       2.676   5.110  19.725  0.00  0.00    +0.000 NA
BRANCH   3   8
ATOM      5  C   UNL     1       0.983   9.819  19.094  0.00  0.00    +0.000 A 
ATOM      6  C   UNL     1       1.016   9.033  20.246  0.00  0.00    +0.000 A 
ATOM      7  C   UNL     1       1.731   7.840  20.264  0.00  0.00    +0.000 A 
ATOM      8  C   UNL     1       2.406   7.414  19.119  0.00  0.00    +0.000 A 
ATOM      9  C   UNL     1       2.380   8.190  17.960  0.00  0.00    +0.000 A 
ATOM     10  C   UNL     1       1.658   9.392  17.948  0.00  0.00    +0.000 A 
BRANCH   5  12
ATOM     11  C   UNL     1      -1.149  10.770  19.461  0.00  0.00    +0.000 C 
ATOM     12  O   UNL     1       0.235  10.955  19.201  0.00  0.00    +0.000 OA
ENDBRANCH   5  12
ENDBRANCH   3   8
ENDBRANCH   1   4
BRANCH   1  13
ATOM     13  C   UNL     1       3.819   3.266  18.730  0.00  0.00    +0.000 C 
ATOM     14  S   UNL     1       2.768   2.313  17.846  0.00  0.00    +0.000 S 
BRANCH  13  15
ATOM     15  N   UNL     1       5.129   3.377  18.323  0.00  0.00    +0.000 N 
ATOM     16  H   UNL     1       5.693   2.544  18.449  0.00  0.00    +0.000 HD
BRANCH  15  17
ATOM     17  C   UNL     1       5.833   4.580  18.099  0.00  0.00    +0.000 A 
ATOM     18  C   UNL     1       5.555   5.415  17.011  0.00  0.00    +0.000 A 
ATOM     19  C   UNL     1       6.258   6.608  16.831  0.00  0.00    +0.000 A 
ATOM     20  C   UNL     1       7.252   6.980  17.739  0.00  0.00    +0.000 A 
ATOM     21  C   UNL     1       8.025   8.251  17.549  0.00  0.00    +0.000 C 
ATOM     22  C   UNL     1       7.509   6.156  18.842  0.00  0.00    +0.000 A 
ATOM     23  C   UNL     1       6.790   4.973  19.033  0.00  0.00    +0.000 A 
ENDBRANCH  15  17
ENDBRANCH  13  15
ENDBRANCH   1  13
TORSDOF 6
ENDMDL
MODEL 8
REMARK VINA RESULT:      -6.8      1.138      1.199
REMARK  Name = 
REMARK  8 active torsions:
REMARK  status: ('A' for Active; 'I' for Inactive)
REMARK    1  A    between atoms: C_1  and  O_2
REMARK    2  A    between atoms: O_2  and  C_3
REMARK    3  A    between atoms: C_6  and  C_7
REMARK    4  A    between atoms: N_8  and  N_9
REMARK    5  A    between atoms: N_9  and  C_10
REMARK    6  A    between atoms: C_10  and  N_12
REMARK    7  A    between atoms: N_12  and  C_13
REMARK    8  A    between atoms: C_16  and  C_17
REMARK                            x       y       z     vdW  Elec       q    Type
REMARK                         _______ _______ _______ _____ _____    ______ ____
ROOT
ATOM      1  N   UNL     1       3.085   3.969  17.541  0.00  0.00    +0.000 N 
ATOM      2  H   UNL     1       2.938   3.642  16.592  0.00  0.00    +0.000 HD
ENDROOT
BRANCH   1   4
ATOM      3  C   UNL     1       2.940   6.141  18.103  0.00  0.00    +0.000 C 
ATOM      4  N   UNL     1       2.343   4.998  18.013  0.00  0.00    +0.000 NA
BRANCH   3   8
ATOM      5  C   UNL     1       0.996   9.467  19.943  0.00  0.00    +0.000 A 
ATOM      6  C   UNL     1       1.386   8.364  20.703  0.00  0.00    +0.000 A 
ATOM      7  C   UNL     1       2.017   7.281  20.099  0.00  0.00    +0.000 A 
ATOM      8  C   UNL     1       2.246   7.286  18.722  0.00  0.00    +0.000 A 
ATOM      9  C   UNL     1       1.860   8.383  17.951  0.00  0.00    +0.000 A 
ATOM     10  C   UNL     1       1.226   9.472  18.565  0.00  0.00    +0.000 A 
BRANCH   5  12
ATOM     11  C   UNL     1       0.919  11.760  20.512  0.00  0.00    +0.000 C 
ATOM     12  O   UNL     1       0.375  10.455  20.651  0.00  0.00    +0.000 OA
ENDBRANCH   5  12
ENDBRANCH   3   8
ENDBRANCH   1   4
BRANCH   1  13
ATOM     13  C   UNL     1       4.200   3.514  18.219  0.00  0.00    +0.000 C 
ATOM     14  S   UNL     1       4.200   2.617  19.629  0.00  0.00    +0.000 S 
BRANCH  13  15
ATOM     15  N   UNL     1       5.397   3.797  17.602  0.00  0.00    +0.000 N 
ATOM     16  H   UNL     1       5.899   2.993  17.242  0.00  0.00    +0.000 HD
BRANCH  15  17
ATOM     17  C   UNL     1       6.142   4.989  17.733  0.00  0.00    +0.000 A 
ATOM     18  C   UNL     1       7.111   5.158  18.728  0.00  0.00    +0.000 A 
ATOM     19  C   UNL     1       7.843   6.344  18.815  0.00  0.00    +0.000 A 
ATOM     20  C   UNL     1       7.612   7.379  17.906  0.00  0.00    +0.000 A 
ATOM     21  C   UNL     1       8.380   8.664  17.999  0.00  0.00    +0.000 C 
ATOM     22  C   UNL     1       6.661   7.198  16.894  0.00  0.00    +0.000 A 
ATOM     23  C   UNL     1       5.943   6.002  16.795  0.00  0.00    +0.000 A 
ENDBRANCH  15  17
ENDBRANCH  13  15
ENDBRANCH   1  13
TORSDOF 6
ENDMDL
MODEL 9
REMARK VINA RESULT:      -6.8      2.391      4.064
REMARK  Name = 
REMARK  8 active torsions:
REMARK  status: ('A' for Active; 'I' for Inactive)
REMARK    1  A    between atoms: C_1  and  O_2
REMARK    2  A    between atoms: O_2  and  C_3
REMARK    3  A    between atoms: C_6  and  C_7
REMARK    4  A    between atoms: N_8  and  N_9
REMARK    5  A    between atoms: N_9  and  C_10
REMARK    6  A    between atoms: C_10  and  N_12
REMARK    7  A    between atoms: N_12  and  C_13
REMARK    8  A    between atoms: C_16  and  C_17
REMARK                            x       y       z     vdW  Elec       q    Type
REMARK                         _______ _______ _______ _____ _____    ______ ____
ROOT
ATOM      1  N   UNL     1       4.979   6.440  16.596  0.00  0.00    +0.000 N 
ATOM      2  H   UNL     1       5.363   7.086  15.914  0.00  0.00    +0.000 HD
ENDROOT
BRANCH   1   4
ATOM      3  C   UNL     1       3.105   7.454  17.313  0.00  0.00    +0.000 C 
ATOM      4  N   UNL     1       4.240   6.919  17.624  0.00  0.00    +0.000 NA
BRANCH   3   8
ATOM      5  C   UNL     1       0.819   9.362  20.372  0.00  0.00    +0.000 A 
ATOM      6  C   UNL     1       1.444   8.138  20.613  0.00  0.00    +0.000 A 
ATOM      7  C   UNL     1       2.186   7.519  19.612  0.00  0.00    +0.000 A 
ATOM      8  C   UNL     1       2.292   8.112  18.353  0.00  0.00    +0.000 A 
ATOM      9  C   UNL     1       1.671   9.335  18.100  0.00  0.00    +0.000 A 
ATOM     10  C   UNL     1       0.925   9.956  19.113  0.00  0.00    +0.000 A 
BRANCH   5  12
ATOM     11  C   UNL     1       0.048  11.271  21.532  0.00  0.00    +0.000 C 
ATOM     12  O   UNL     1       0.111   9.856  21.429  0.00  0.00    +0.000 OA
ENDBRANCH   5  12
ENDBRANCH   3   8
ENDBRANCH   1   4
BRANCH   1  13
ATOM     13  C   UNL     1       5.434   5.135  16.582  0.00  0.00    +0.000 C 
ATOM     14  S   UNL     1       7.032   4.647  16.613  0.00  0.00    +0.000 S 
BRANCH  13  15
ATOM     15  N   UNL     1       4.440   4.184  16.608  0.00  0.00    +0.000 N 
ATOM     16  H   UNL     1       4.107   3.881  15.700  0.00  0.00    +0.000 HD
BRANCH  15  17
ATOM     17  C   UNL     1       3.619   3.866  17.712  0.00  0.00    +0.000 A 
ATOM     18  C   UNL     1       2.222   3.900  17.636  0.00  0.00    +0.000 A 
ATOM     19  C   UNL     1       1.441   3.560  18.742  0.00  0.00    +0.000 A 
ATOM     20  C   UNL     1       2.049   3.184  19.942  0.00  0.00    +0.000 A 
ATOM     21  C   UNL     1       1.221   2.831  21.141  0.00  0.00    +0.000 C 
ATOM     22  C   UNL     1       3.447   3.125  20.007  0.00  0.00    +0.000 A 
ATOM     23  C   UNL     1       4.228   3.445  18.893  0.00  0.00    +0.000 A 
ENDBRANCH  15  17
ENDBRANCH  13  15
ENDBRANCH   1  13
TORSDOF 6
ENDMDL
