MODEL 1
REMARK VINA RESULT:      -6.7      0.000      0.000
REMARK  Name = 
REMARK  7 active torsions:
REMARK  status: ('A' for Active; 'I' for Inactive)
REMARK    1  A    between atoms: C_2  and  O_3
REMARK    2  A    between atoms: C_2  and  C_4
REMARK    3  A    between atoms: C_4  and  C_5
REMARK    4  A    between atoms: C_5  and  C_6
REMARK    5  A    between atoms: C_6  and  C_7
REMARK    6  A    between atoms: C_7  and  C_9
REMARK    7  A    between atoms: C_10  and  C_11
REMARK                            x       y       z     vdW  Elec       q    Type
REMARK                         _______ _______ _______ _____ _____    ______ ____
ROOT
ATOM      1  C   UNL     1       5.187   6.532  16.320  0.00  0.00    +0.000 C 
ATOM      2  O   UNL     1       5.352   6.574  15.102  0.00  0.00    +0.000 OA
ENDROOT
BRANCH   1   3
ATOM      3  C   UNL     1       4.233   5.574  16.933  0.00  0.00    +0.000 C 
ATOM      4  C   UNL     1       3.486   5.937  17.982  0.00  0.00    +0.000 C 
BRANCH   4   5
ATOM      5  C   UNL     1       2.556   5.012  18.639  0.00  0.00    +0.000 A 
ATOM      6  C   UNL     1       2.188   5.175  19.982  0.00  0.00    +0.000 A 
ATOM      7  C   UNL     1       1.325   4.270  20.598  0.00  0.00    +0.000 A 
ATOM      8  C   UNL     1       0.797   3.208  19.868  0.00  0.00    +0.000 A 
ATOM      9  C   UNL     1       1.124   3.057  18.522  0.00  0.00    +0.000 A 
ATOM     10  C   UNL     1       1.997   3.958  17.907  0.00  0.00    +0.000 A 
ENDBRANCH   4   5
ENDBRANCH   1   3
BRANCH   1  11
ATOM     11  C   UNL     1       5.918   7.459  17.270  0.00  0.00    +0.000 C 
BRANCH  11  12
ATOM     12  C   UNL     1       7.416   7.143  17.329  0.00  0.00    +0.000 C 
BRANCH  12  13
ATOM     13  C   UNL     1       7.815   6.258  18.516  0.00  0.00    +0.000 C 
BRANCH  13  15
ATOM     14  O   UNL     1       6.513   4.265  18.969  0.00  0.00    +0.000 OA
ATOM     15  C   UNL     1       7.399   4.817  18.332  0.00  0.00    +0.000 C 
BRANCH  15  16
ATOM     16  O   UNL     1       8.102   4.174  17.375  0.00  0.00    +0.000 OA
ATOM     17  H   UNL     1       8.957   3.811  17.674  0.00  0.00    +0.000 HD
ENDBRANCH  15  16
ENDBRANCH  13  15
ENDBRANCH  12  13
ENDBRANCH  11  12
ENDBRANCH   1  11
TORSDOF 7
ENDMDL
MODEL 2
REMARK VINA RESULT:      -6.7      1.347      1.974
REMARK  Name = 
REMARK  7 active torsions:
REMARK  status: ('A' for Active; 'I' for Inactive)
REMARK    1  A    between atoms: C_2  and  O_3
REMARK    2  A    between atoms: C_2  and  C_4
REMARK    3  A    between atoms: C_4  and  C_5
REMARK    4  A    between atoms: C_5  and  C_6
REMARK    5  A    between atoms: C_6  and  C_7
REMARK    6  A    between atoms: C_7  and  C_9
REMARK    7  A    between atoms: C_10  and  C_11
REMARK                            x       y       z     vdW  Elec       q    Type
REMARK                         _______ _______ _______ _____ _____    ______ ____
ROOT
ATOM      1  C   UNL     1       5.472   4.435  15.877  0.00  0.00    +0.000 C 
ATOM      2  O   UNL     1       6.098   3.700  15.116  0.00  0.00    +0.000 OA
ENDROOT
BRANCH   1   3
ATOM      3  C   UNL     1       4.467   3.887  16.821  0.00  0.00    +0.000 C 
ATOM      4  C   UNL     1       3.572   4.692  17.405  0.00  0.00    +0.000 C 
BRANCH   4   5
ATOM      5  C   UNL     1       2.583   4.197  18.368  0.00  0.00    +0.000 A 
ATOM      6  C   UNL     1       1.850   3.025  18.127  0.00  0.00    +0.000 A 
ATOM      7  C   UNL     1       0.893   2.584  19.039  0.00  0.00    +0.000 A 
ATOM      8  C   UNL     1       0.680   3.294  20.219  0.00  0.00    +0.000 A 
ATOM      9  C   UNL     1       1.430   4.437  20.489  0.00  0.00    +0.000 A 
ATOM     10  C   UNL     1       2.381   4.885  19.569  0.00  0.00    +0.000 A 
ENDBRANCH   4   5
ENDBRANCH   1   3
BRANCH   1  11
ATOM     11  C   UNL     1       5.663   5.939  15.892  0.00  0.00    +0.000 C 
BRANCH  11  12
ATOM     12  C   UNL     1       6.976   6.337  16.572  0.00  0.00    +0.000 C 
BRANCH  12  13
ATOM     13  C   UNL     1       6.875   6.441  18.099  0.00  0.00    +0.000 C 
BRANCH  13  15
ATOM     14  O   UNL     1       8.063   4.337  18.271  0.00  0.00    +0.000 OA
ATOM     15  C   UNL     1       7.647   5.353  18.808  0.00  0.00    +0.000 C 
BRANCH  15  16
ATOM     16  O   UNL     1       7.848   5.606  20.119  0.00  0.00    +0.000 OA
ATOM     17  H   UNL     1       8.319   4.900  20.602  0.00  0.00    +0.000 HD
ENDBRANCH  15  16
ENDBRANCH  13  15
ENDBRANCH  12  13
ENDBRANCH  11  12
ENDBRANCH   1  11
TORSDOF 7
ENDMDL
MODEL 3
REMARK VINA RESULT:      -6.6      1.379      2.061
REMARK  Name = 
REMARK  7 active torsions:
REMARK  status: ('A' for Active; 'I' for Inactive)
REMARK    1  A    between atoms: C_2  and  O_3
REMARK    2  A    between atoms: C_2  and  C_4
REMARK    3  A    between atoms: C_4  and  C_5
REMARK    4  A    between atoms: C_5  and  C_6
REMARK    5  A    between atoms: C_6  and  C_7
REMARK    6  A    between atoms: C_7  and  C_9
REMARK    7  A    between atoms: C_10  and  C_11
REMARK                            x       y       z     vdW  Elec       q    Type
REMARK                         _______ _______ _______ _____ _____    ______ ____
ROOT
ATOM      1  C   UNL     1       5.119   5.782  16.056  0.00  0.00    +0.000 C 
ATOM      2  O   UNL     1       5.171   6.859  15.464  0.00  0.00    +0.000 OA
ENDROOT
BRANCH   1   3
ATOM      3  C   UNL     1       4.131   5.547  17.137  0.00  0.00    +0.000 C 
ATOM      4  C   UNL     1       3.860   4.304  17.552  0.00  0.00    +0.000 C 
BRANCH   4   5
ATOM      5  C   UNL     1       2.867   4.025  18.594  0.00  0.00    +0.000 A 
ATOM      6  C   UNL     1       1.789   3.156  18.365  0.00  0.00    +0.000 A 
ATOM      7  C   UNL     1       0.838   2.924  19.357  0.00  0.00    +0.000 A 
ATOM      8  C   UNL     1       0.971   3.536  20.601  0.00  0.00    +0.000 A 
ATOM      9  C   UNL     1       2.058   4.370  20.855  0.00  0.00    +0.000 A 
ATOM     10  C   UNL     1       3.005   4.611  19.857  0.00  0.00    +0.000 A 
ENDBRANCH   4   5
ENDBRANCH   1   3
BRANCH   1  11
ATOM     11  C   UNL     1       6.064   4.639  15.744  0.00  0.00    +0.000 C 
BRANCH  11  12
ATOM     12  C   UNL     1       7.462   4.886  16.320  0.00  0.00    +0.000 C 
BRANCH  12  13
ATOM     13  C   UNL     1       7.578   4.571  17.817  0.00  0.00    +0.000 C 
BRANCH  13  15
ATOM     14  O   UNL     1       7.696   6.952  18.245  0.00  0.00    +0.000 OA
ATOM     15  C   UNL     1       7.811   5.806  18.654  0.00  0.00    +0.000 C 
BRANCH  15  16
ATOM     16  O   UNL     1       8.161   5.530  19.929  0.00  0.00    +0.000 OA
ATOM     17  H   UNL     1       8.003   6.259  20.560  0.00  0.00    +0.000 HD
ENDBRANCH  15  16
ENDBRANCH  13  15
ENDBRANCH  12  13
ENDBRANCH  11  12
ENDBRANCH   1  11
TORSDOF 7
ENDMDL
MODEL 4
REMARK VINA RESULT:      -6.6      1.305      1.441
REMARK  Name = 
REMARK  7 active torsions:
REMARK  status: ('A' for Active; 'I' for Inactive)
REMARK    1  A    between atoms: C_2  and  O_3
REMARK    2  A    between atoms: C_2  and  C_4
REMARK    3  A    between atoms: C_4  and  C_5
REMARK    4  A    between atoms: C_5  and  C_6
REMARK    5  A    between atoms: C_6  and  C_7
REMARK    6  A    between atoms: C_7  and  C_9
REMARK    7  A    between atoms: C_10  and  C_11
REMARK                            x       y       z     vdW  Elec       q    Type
REMARK                         _______ _______ _______ _____ _____    ______ ____
ROOT
ATOM      1  C   UNL     1       5.366   4.422  16.052  0.00  0.00    +0.000 C 
ATOM      2  O   UNL     1       5.824   3.684  15.182  0.00  0.00    +0.000 OA
ENDROOT
BRANCH   1   3
ATOM      3  C   UNL     1       4.485   3.891  17.123  0.00  0.00    +0.000 C 
ATOM      4  C   UNL     1       3.509   4.648  17.637  0.00  0.00    +0.000 C 
BRANCH   4   5
ATOM      5  C   UNL     1       2.638   4.174  18.718  0.00  0.00    +0.000 A 
ATOM      6  C   UNL     1       2.774   4.653  20.030  0.00  0.00    +0.000 A 
ATOM      7  C   UNL     1       1.957   4.170  21.051  0.00  0.00    +0.000 A 
ATOM      8  C   UNL     1       0.974   3.226  20.766  0.00  0.00    +0.000 A 
ATOM      9  C   UNL     1       0.803   2.772  19.459  0.00  0.00    +0.000 A 
ATOM     10  C   UNL     1       1.629   3.247  18.438  0.00  0.00    +0.000 A 
ENDBRANCH   4   5
ENDBRANCH   1   3
BRANCH   1  11
ATOM     11  C   UNL     1       5.643   5.911  16.082  0.00  0.00    +0.000 C 
BRANCH  11  12
ATOM     12  C   UNL     1       7.108   6.208  16.414  0.00  0.00    +0.000 C 
BRANCH  12  13
ATOM     13  C   UNL     1       7.340   6.628  17.871  0.00  0.00    +0.000 C 
BRANCH  13  15
ATOM     14  O   UNL     1       7.138   5.435  19.970  0.00  0.00    +0.000 OA
ATOM     15  C   UNL     1       7.490   5.445  18.799  0.00  0.00    +0.000 C 
BRANCH  15  16
ATOM     16  O   UNL     1       8.054   4.369  18.209  0.00  0.00    +0.000 OA
ATOM     17  H   UNL     1       8.985   4.494  17.942  0.00  0.00    +0.000 HD
ENDBRANCH  15  16
ENDBRANCH  13  15
ENDBRANCH  12  13
ENDBRANCH  11  12
ENDBRANCH   1  11
TORSDOF 7
ENDMDL
MODEL 5
REMARK VINA RESULT:      -6.5      1.032      1.209
REMARK  Name = 
REMARK  7 active torsions:
REMARK  status: ('A' for Active; 'I' for Inactive)
REMARK    1  A    between atoms: C_2  and  O_3
REMARK    2  A    between atoms: C_2  and  C_4
REMARK    3  A    between atoms: C_4  and  C_5
REMARK    4  A    between atoms: C_5  and  C_6
REMARK    5  A    between atoms: C_6  and  C_7
REMARK    6  A    between atoms: C_7  and  C_9
REMARK    7  A    between atoms: C_10  and  C_11
REMARK                            x       y       z     vdW  Elec       q    Type
REMARK                         _______ _______ _______ _____ _____    ______ ____
ROOT
ATOM      1  C   UNL     1       5.122   6.546  16.478  0.00  0.00    +0.000 C 
ATOM      2  O   UNL     1       5.314   6.387  15.274  0.00  0.00    +0.000 OA
ENDROOT
BRANCH   1   3
ATOM      3  C   UNL     1       4.010   5.854  17.176  0.00  0.00    +0.000 C 
ATOM      4  C   UNL     1       4.222   5.229  18.339  0.00  0.00    +0.000 C 
BRANCH   4   5
ATOM      5  C   UNL     1       3.160   4.506  19.046  0.00  0.00    +0.000 A 
ATOM      6  C   UNL     1       2.246   5.173  19.874  0.00  0.00    +0.000 A 
ATOM      7  C   UNL     1       1.260   4.467  20.561  0.00  0.00    +0.000 A 
ATOM      8  C   UNL     1       1.157   3.087  20.402  0.00  0.00    +0.000 A 
ATOM      9  C   UNL     1       2.034   2.417  19.551  0.00  0.00    +0.000 A 
ATOM     10  C   UNL     1       3.029   3.123  18.871  0.00  0.00    +0.000 A 
ENDBRANCH   4   5
ENDBRANCH   1   3
BRANCH   1  11
ATOM     11  C   UNL     1       5.980   7.466  17.321  0.00  0.00    +0.000 C 
BRANCH  11  12
ATOM     12  C   UNL     1       7.457   7.061  17.277  0.00  0.00    +0.000 C 
BRANCH  12  13
ATOM     13  C   UNL     1       8.096   6.900  18.662  0.00  0.00    +0.000 C 
BRANCH  13  15
ATOM     14  O   UNL     1       7.759   4.504  18.534  0.00  0.00    +0.000 OA
ATOM     15  C   UNL     1       7.938   5.504  19.215  0.00  0.00    +0.000 C 
BRANCH  15  16
ATOM     16  O   UNL     1       8.017   5.449  20.563  0.00  0.00    +0.000 OA
ATOM     17  H   UNL     1       7.184   5.205  21.009  0.00  0.00    +0.000 HD
ENDBRANCH  15  16
ENDBRANCH  13  15
ENDBRANCH  12  13
ENDBRANCH  11  12
ENDBRANCH   1  11
TORSDOF 7
ENDMDL
MODEL 6
REMARK VINA RESULT:      -6.5      1.906      3.029
REMARK  Name = 
REMARK  7 active torsions:
REMARK  status: ('A' for Active; 'I' for Inactive)
REMARK    1  A    between atoms: C_2  and  O_3
REMARK    2  A    between atoms: C_2  and  C_4
REMARK    3  A    between atoms: C_4  and  C_5
REMARK    4  A    between atoms: C_5  and  C_6
REMARK    5  A    between atoms: C_6  and  C_7
REMARK    6  A    between atoms: C_7  and  C_9
REMARK    7  A    between atoms: C_10  and  C_11
REMARK                            x       y       z     vdW  Elec       q    Type
REMARK                         _______ _______ _______ _____ _____    ______ ____
ROOT
ATOM      1  C   UNL     1       6.850   5.379  19.077  0.00  0.00    +0.000 C 
ATOM      2  O   UNL     1       7.459   5.575  20.127  0.00  0.00    +0.000 OA
ENDROOT
BRANCH   1   3
ATOM      3  C   UNL     1       5.587   4.599  19.057  0.00  0.00    +0.000 C 
ATOM      4  C   UNL     1       4.441   5.152  19.471  0.00  0.00    +0.000 C 
BRANCH   4   5
ATOM      5  C   UNL     1       3.177   4.407  19.497  0.00  0.00    +0.000 A 
ATOM      6  C   UNL     1       2.116   4.795  20.329  0.00  0.00    +0.000 A 
ATOM      7  C   UNL     1       0.933   4.059  20.363  0.00  0.00    +0.000 A 
ATOM      8  C   UNL     1       0.786   2.943  19.543  0.00  0.00    +0.000 A 
ATOM      9  C   UNL     1       1.818   2.570  18.683  0.00  0.00    +0.000 A 
ATOM     10  C   UNL     1       3.008   3.301  18.657  0.00  0.00    +0.000 A 
ENDBRANCH   4   5
ENDBRANCH   1   3
BRANCH   1  11
ATOM     11  C   UNL     1       7.349   5.892  17.742  0.00  0.00    +0.000 C 
BRANCH  11  12
ATOM     12  C   UNL     1       7.436   4.772  16.701  0.00  0.00    +0.000 C 
BRANCH  12  13
ATOM     13  C   UNL     1       6.355   4.850  15.616  0.00  0.00    +0.000 C 
BRANCH  13  15
ATOM     14  O   UNL     1       7.742   5.414  13.712  0.00  0.00    +0.000 OA
ATOM     15  C   UNL     1       6.915   4.674  14.224  0.00  0.00    +0.000 C 
BRANCH  15  16
ATOM     16  O   UNL     1       6.416   3.598  13.578  0.00  0.00    +0.000 OA
ATOM     17  H   UNL     1       6.001   3.798  12.717  0.00  0.00    +0.000 HD
ENDBRANCH  15  16
ENDBRANCH  13  15
ENDBRANCH  12  13
ENDBRANCH  11  12
ENDBRANCH   1  11
TORSDOF 7
ENDMDL
MODEL 7
REMARK VINA RESULT:      -6.4      2.965      3.932
REMARK  Name = 
REMARK  7 active torsions:
REMARK  status: ('A' for Active; 'I' for Inactive)
REMARK    1  A    between atoms: C_2  and  O_3
REMARK    2  A    between atoms: C_2  and  C_4
REMARK    3  A    between atoms: C_4  and  C_5
REMARK    4  A    between atoms: C_5  and  C_6
REMARK    5  A    between atoms: C_6  and  C_7
REMARK    6  A    between atoms: C_7  and  C_9
REMARK    7  A    between atoms: C_10  and  C_11
REMARK                            x       y       z     vdW  Elec       q    Type
REMARK                         _______ _______ _______ _____ _____    ______ ____
ROOT
ATOM      1  C   UNL     1       5.503   5.602  15.856  0.00  0.00    +0.000 C 
ATOM      2  O   UNL     1       5.526   6.830  15.817  0.00  0.00    +0.000 OA
ENDROOT
BRANCH   1   3
ATOM      3  C   UNL     1       4.533   4.878  16.715  0.00  0.00    +0.000 C 
ATOM      4  C   UNL     1       3.686   5.553  17.500  0.00  0.00    +0.000 C 
BRANCH   4   5
ATOM      5  C   UNL     1       2.734   4.877  18.389  0.00  0.00    +0.000 A 
ATOM      6  C   UNL     1       2.508   5.327  19.698  0.00  0.00    +0.000 A 
ATOM      7  C   UNL     1       1.622   4.656  20.538  0.00  0.00    +0.000 A 
ATOM      8  C   UNL     1       0.928   3.543  20.069  0.00  0.00    +0.000 A 
ATOM      9  C   UNL     1       1.114   3.109  18.757  0.00  0.00    +0.000 A 
ATOM     10  C   UNL     1       2.011   3.776  17.918  0.00  0.00    +0.000 A 
ENDBRANCH   4   5
ENDBRANCH   1   3
BRANCH   1  11
ATOM     11  C   UNL     1       6.467   4.747  15.057  0.00  0.00    +0.000 C 
BRANCH  11  12
ATOM     12  C   UNL     1       5.729   3.744  14.165  0.00  0.00    +0.000 C 
BRANCH  12  13
ATOM     13  C   UNL     1       6.283   3.661  12.738  0.00  0.00    +0.000 C 
BRANCH  13  15
ATOM     14  O   UNL     1       5.713   1.695  11.443  0.00  0.00    +0.000 OA
ATOM     15  C   UNL     1       5.421   2.818  11.828  0.00  0.00    +0.000 C 
BRANCH  15  16
ATOM     16  O   UNL     1       4.268   3.423  11.470  0.00  0.00    +0.000 OA
ATOM     17  H   UNL     1       4.377   4.322  11.106  0.00  0.00    +0.000 HD
ENDBRANCH  15  16
ENDBRANCH  13  15
ENDBRANCH  12  13
ENDBRANCH  11  12
ENDBRANCH   1  11
TORSDOF 7
ENDMDL
MODEL 8
REMARK VINA RESULT:      -6.4      2.649      3.625
REMARK  Name = 
REMARK  7 active torsions:
REMARK  status: ('A' for Active; 'I' for Inactive)
REMARK    1  A    between atoms: C_2  and  O_3
REMARK    2  A    between atoms: C_2  and  C_4
REMARK    3  A    between atoms: C_4  and  C_5
REMARK    4  A    between atoms: C_5  and  C_6
REMARK    5  A    between atoms: C_6  and  C_7
REMARK    6  A    between atoms: C_7  and  C_9
REMARK    7  A    between atoms: C_10  and  C_11
REMARK                            x       y       z     vdW  Elec       q    Type
REMARK                         _______ _______ _______ _____ _____    ______ ____
ROOT
ATOM      1  C   UNL     1       6.612   4.811  17.070  0.00  0.00    +0.000 C 
ATOM      2  O   UNL     1       7.758   4.433  17.310  0.00  0.00    +0.000 OA
ENDROOT
BRANCH   1   3
ATOM      3  C   UNL     1       5.514   4.597  18.045  0.00  0.00    +0.000 C 
ATOM      4  C   UNL     1       4.289   4.261  17.625  0.00  0.00    +0.000 C 
BRANCH   4   5
ATOM      5  C   UNL     1       3.167   4.072  18.552  0.00  0.00    +0.000 A 
ATOM      6  C   UNL     1       3.143   4.695  19.808  0.00  0.00    +0.000 A 
ATOM      7  C   UNL     1       2.084   4.482  20.688  0.00  0.00    +0.000 A 
ATOM      8  C   UNL     1       1.020   3.667  20.309  0.00  0.00    +0.000 A 
ATOM      9  C   UNL     1       1.013   3.073  19.048  0.00  0.00    +0.000 A 
ATOM     10  C   UNL     1       2.080   3.278  18.170  0.00  0.00    +0.000 A 
ENDBRANCH   4   5
ENDBRANCH   1   3
BRANCH   1  11
ATOM     11  C   UNL     1       6.238   5.493  15.770  0.00  0.00    +0.000 C 
BRANCH  11  12
ATOM     12  C   UNL     1       6.884   4.805  14.564  0.00  0.00    +0.000 C 
BRANCH  12  13
ATOM     13  C   UNL     1       5.945   3.844  13.824  0.00  0.00    +0.000 C 
BRANCH  13  15
ATOM     14  O   UNL     1       7.208   4.192  11.786  0.00  0.00    +0.000 OA
ATOM     15  C   UNL     1       6.440   3.500  12.438  0.00  0.00    +0.000 C 
BRANCH  15  16
ATOM     16  O   UNL     1       5.954   2.330  11.971  0.00  0.00    +0.000 OA
ATOM     17  H   UNL     1       5.526   2.389  11.095  0.00  0.00    +0.000 HD
ENDBRANCH  15  16
ENDBRANCH  13  15
ENDBRANCH  12  13
ENDBRANCH  11  12
ENDBRANCH   1  11
TORSDOF 7
ENDMDL
MODEL 9
REMARK VINA RESULT:      -6.4      1.287      1.818
REMARK  Name = 
REMARK  7 active torsions:
REMARK  status: ('A' for Active; 'I' for Inactive)
REMARK    1  A    between atoms: C_2  and  O_3
REMARK    2  A    between atoms: C_2  and  C_4
REMARK    3  A    between atoms: C_4  and  C_5
REMARK    4  A    between atoms: C_5  and  C_6
REMARK    5  A    between atoms: C_6  and  C_7
REMARK    6  A    between atoms: C_7  and  C_9
REMARK    7  A    between atoms: C_10  and  C_11
REMARK                            x       y       z     vdW  Elec       q    Type
REMARK                         _______ _______ _______ _____ _____    ______ ____
ROOT
ATOM      1  C   UNL     1       5.313   4.908  15.803  0.00  0.00    +0.000 C 
ATOM      2  O   UNL     1       5.305   4.066  14.908  0.00  0.00    +0.000 OA
ENDROOT
BRANCH   1   3
ATOM      3  C   UNL     1       4.289   4.897  16.878  0.00  0.00    +0.000 C 
ATOM      4  C   UNL     1       4.022   3.772  17.551  0.00  0.00    +0.000 C 
BRANCH   4   5
ATOM      5  C   UNL     1       2.995   3.709  18.596  0.00  0.00    +0.000 A 
ATOM      6  C   UNL     1       1.844   2.923  18.445  0.00  0.00    +0.000 A 
ATOM      7  C   UNL     1       0.864   2.898  19.436  0.00  0.00    +0.000 A 
ATOM      8  C   UNL     1       1.040   3.635  20.604  0.00  0.00    +0.000 A 
ATOM      9  C   UNL     1       2.198   4.389  20.784  0.00  0.00    +0.000 A 
ATOM     10  C   UNL     1       3.175   4.423  19.786  0.00  0.00    +0.000 A 
ENDBRANCH   4   5
ENDBRANCH   1   3
BRANCH   1  11
ATOM     11  C   UNL     1       6.342   6.019  15.863  0.00  0.00    +0.000 C 
BRANCH  11  12
ATOM     12  C   UNL     1       6.288   6.770  17.197  0.00  0.00    +0.000 C 
BRANCH  12  13
ATOM     13  C   UNL     1       7.583   6.672  18.014  0.00  0.00    +0.000 C 
BRANCH  13  15
ATOM     14  O   UNL     1       7.442   5.441  20.095  0.00  0.00    +0.000 OA
ATOM     15  C   UNL     1       7.628   5.440  18.887  0.00  0.00    +0.000 C 
BRANCH  15  16
ATOM     16  O   UNL     1       7.891   4.307  18.201  0.00  0.00    +0.000 OA
ATOM     17  H   UNL     1       7.354   4.186  17.395  0.00  0.00    +0.000 HD
ENDBRANCH  15  16
ENDBRANCH  13  15
ENDBRANCH  12  13
ENDBRANCH  11  12
ENDBRANCH   1  11
TORSDOF 7
ENDMDL
