MODEL 1
REMARK VINA RESULT:      -8.1      0.000      0.000
REMARK  Name = 
REMARK  9 active torsions:
REMARK  status: ('A' for Active; 'I' for Inactive)
REMARK    1  A    between atoms: C_1  and  C_2
REMARK    2  A    between atoms: C_3  and  C_4
REMARK    3  A    between atoms: C_4  and  C_5
REMARK    4  A    between atoms: C_15  and  C_16
REMARK    5  A    between atoms: C_17  and  O_18
REMARK    6  A    between atoms: O_18  and  C_19
REMARK    7  A    between atoms: C_19  and  C_20
REMARK    8  A    between atoms: N_22  and  C_23
REMARK    9  A    between atoms: C_23  and  C_24
REMARK                            x       y       z     vdW  Elec       q    Type
REMARK                         _______ _______ _______ _____ _____    ______ ____
ROOT
ATOM      1  C   UNL     1       1.892   5.612  20.626  0.00  0.00    +0.000 C 
ATOM      2  C   UNL     1       1.949   6.890  19.826  0.00  0.00    +0.000 A 
ATOM      3  C   UNL     1       2.475   6.969  18.584  0.00  0.00    +0.000 A 
ATOM      4  C   UNL     1       2.458   8.248  17.821  0.00  0.00    +0.000 A 
ATOM      5  O   UNL     1       2.918   8.343  16.688  0.00  0.00    +0.000 OA
ATOM      6  O   UNL     1       1.895   9.349  18.439  0.00  0.00    +0.000 OA
ATOM      7  C   UNL     1       1.421   9.316  19.763  0.00  0.00    +0.000 A 
ATOM      8  C   UNL     1       0.978  10.530  20.320  0.00  0.00    +0.000 A 
ATOM      9  C   UNL     1       0.972  11.809  19.526  0.00  0.00    +0.000 C 
ATOM     10  C   UNL     1       0.530  10.535  21.651  0.00  0.00    +0.000 A 
ATOM     11  C   UNL     1       0.559   9.352  22.389  0.00  0.00    +0.000 A 
ATOM     12  C   UNL     1       0.981   8.154  21.797  0.00  0.00    +0.000 A 
ATOM     13  C   UNL     1       1.425   8.114  20.470  0.00  0.00    +0.000 A 
ENDROOT
BRANCH   3  14
ATOM     14  C   UNL     1       3.234   5.854  17.896  0.00  0.00    +0.000 C 
BRANCH  14  15
ATOM     15  C   UNL     1       4.740   5.853  18.051  0.00  0.00    +0.000 A 
ATOM     16  C   UNL     1       5.567   6.483  17.110  0.00  0.00    +0.000 A 
ATOM     17  C   UNL     1       6.938   6.615  17.340  0.00  0.00    +0.000 A 
ATOM     18  C   UNL     1       7.502   6.118  18.511  0.00  0.00    +0.000 A 
ATOM     19  C   UNL     1       6.700   5.466  19.443  0.00  0.00    +0.000 A 
ATOM     20  C   UNL     1       5.329   5.332  19.215  0.00  0.00    +0.000 A 
ENDBRANCH  14  15
ENDBRANCH   3  14
BRANCH  10  21
ATOM     21  O   UNL     1       0.151  11.749  22.154  0.00  0.00    +0.000 OA
BRANCH  21  22
ATOM     22  C   UNL     1      -1.224  11.948  22.463  0.00  0.00    +0.000 C 
BRANCH  22  23
ATOM     23  C   UNL     1      -1.970  12.632  21.320  0.00  0.00    +0.000 C 
ATOM     24  O   UNL     1      -1.898  13.841  21.121  0.00  0.00    +0.000 OA
ATOM     25  N   UNL     1      -2.783  11.791  20.591  0.00  0.00    +0.000 N 
ATOM     26  H   UNL     1      -2.593  10.795  20.655  0.00  0.00    +0.000 HD
BRANCH  25  27
ATOM     27  C   UNL     1      -3.536  12.254  19.445  0.00  0.00    +0.000 C 
BRANCH  27  28
ATOM     28  C   UNL     1      -3.208  11.472  18.195  0.00  0.00    +0.000 A 
ATOM     29  C   UNL     1      -2.152  10.563  18.194  0.00  0.00    +0.000 A 
ATOM     30  C   UNL     1      -1.885   9.841  17.033  0.00  0.00    +0.000 A 
ATOM     31  C   UNL     1      -2.680  10.039  15.911  0.00  0.00    +0.000 A 
ATOM     32  C   UNL     1      -3.716  10.954  15.998  0.00  0.00    +0.000 A 
ATOM     33  N   UNL     1      -4.003  11.666  17.111  0.00  0.00    +0.000 NA
ENDBRANCH  27  28
ENDBRANCH  25  27
ENDBRANCH  22  23
ENDBRANCH  21  22
ENDBRANCH  10  21
TORSDOF 7
ENDMDL
MODEL 2
REMARK VINA RESULT:      -8.1      1.425      2.155
REMARK  Name = 
REMARK  9 active torsions:
REMARK  status: ('A' for Active; 'I' for Inactive)
REMARK    1  A    between atoms: C_1  and  C_2
REMARK    2  A    between atoms: C_3  and  C_4
REMARK    3  A    between atoms: C_4  and  C_5
REMARK    4  A    between atoms: C_15  and  C_16
REMARK    5  A    between atoms: C_17  and  O_18
REMARK    6  A    between atoms: O_18  and  C_19
REMARK    7  A    between atoms: C_19  and  C_20
REMARK    8  A    between atoms: N_22  and  C_23
REMARK    9  A    between atoms: C_23  and  C_24
REMARK                            x       y       z     vdW  Elec       q    Type
REMARK                         _______ _______ _______ _____ _____    ______ ____
ROOT
ATOM      1  C   UNL     1       2.337   9.165  17.487  0.00  0.00    +0.000 C 
ATOM      2  C   UNL     1       1.918   8.666  18.848  0.00  0.00    +0.000 A 
ATOM      3  C   UNL     1       2.077   7.387  19.255  0.00  0.00    +0.000 A 
ATOM      4  C   UNL     1       1.690   6.963  20.628  0.00  0.00    +0.000 A 
ATOM      5  O   UNL     1       1.836   5.812  21.025  0.00  0.00    +0.000 OA
ATOM      6  O   UNL     1       1.154   7.926  21.463  0.00  0.00    +0.000 OA
ATOM      7  C   UNL     1       0.897   9.241  21.037  0.00  0.00    +0.000 A 
ATOM      8  C   UNL     1       0.240  10.095  21.942  0.00  0.00    +0.000 A 
ATOM      9  C   UNL     1      -0.140   9.640  23.327  0.00  0.00    +0.000 C 
ATOM     10  C   UNL     1      -0.061  11.405  21.533  0.00  0.00    +0.000 A 
ATOM     11  C   UNL     1       0.274  11.814  20.243  0.00  0.00    +0.000 A 
ATOM     12  C   UNL     1       0.950  10.948  19.374  0.00  0.00    +0.000 A 
ATOM     13  C   UNL     1       1.272   9.639  19.754  0.00  0.00    +0.000 A 
ENDROOT
BRANCH   3  14
ATOM     14  C   UNL     1       2.521   6.247  18.362  0.00  0.00    +0.000 C 
BRANCH  14  15
ATOM     15  C   UNL     1       4.012   6.078  18.158  0.00  0.00    +0.000 A 
ATOM     16  C   UNL     1       4.705   6.833  17.202  0.00  0.00    +0.000 A 
ATOM     17  C   UNL     1       6.099   6.786  17.128  0.00  0.00    +0.000 A 
ATOM     18  C   UNL     1       6.819   5.983  18.008  0.00  0.00    +0.000 A 
ATOM     19  C   UNL     1       6.145   5.206  18.946  0.00  0.00    +0.000 A 
ATOM     20  C   UNL     1       4.751   5.250  19.020  0.00  0.00    +0.000 A 
ENDBRANCH  14  15
ENDBRANCH   3  14
BRANCH  10  21
ATOM     21  O   UNL     1      -0.735  12.178  22.438  0.00  0.00    +0.000 OA
BRANCH  21  22
ATOM     22  C   UNL     1      -1.576  13.214  21.942  0.00  0.00    +0.000 C 
BRANCH  22  23
ATOM     23  C   UNL     1      -2.854  12.657  21.319  0.00  0.00    +0.000 C 
ATOM     24  O   UNL     1      -3.718  12.097  21.987  0.00  0.00    +0.000 OA
ATOM     25  N   UNL     1      -2.910  12.767  19.947  0.00  0.00    +0.000 N 
ATOM     26  H   UNL     1      -2.296  13.450  19.513  0.00  0.00    +0.000 HD
BRANCH  25  27
ATOM     27  C   UNL     1      -4.062  12.330  19.187  0.00  0.00    +0.000 C 
BRANCH  27  28
ATOM     28  C   UNL     1      -3.673  11.471  18.007  0.00  0.00    +0.000 A 
ATOM     29  C   UNL     1      -2.604  10.583  18.109  0.00  0.00    +0.000 A 
ATOM     30  C   UNL     1      -2.280   9.789  17.011  0.00  0.00    +0.000 A 
ATOM     31  C   UNL     1      -3.032   9.898  15.849  0.00  0.00    +0.000 A 
ATOM     32  C   UNL     1      -4.085  10.797  15.832  0.00  0.00    +0.000 A 
ATOM     33  N   UNL     1      -4.427  11.578  16.883  0.00  0.00    +0.000 NA
ENDBRANCH  27  28
ENDBRANCH  25  27
ENDBRANCH  22  23
ENDBRANCH  21  22
ENDBRANCH  10  21
TORSDOF 7
ENDMDL
MODEL 3
REMARK VINA RESULT:      -8.1      4.011      9.234
REMARK  Name = 
REMARK  9 active torsions:
REMARK  status: ('A' for Active; 'I' for Inactive)
REMARK    1  A    between atoms: C_1  and  C_2
REMARK    2  A    between atoms: C_3  and  C_4
REMARK    3  A    between atoms: C_4  and  C_5
REMARK    4  A    between atoms: C_15  and  C_16
REMARK    5  A    between atoms: C_17  and  O_18
REMARK    6  A    between atoms: O_18  and  C_19
REMARK    7  A    between atoms: C_19  and  C_20
REMARK    8  A    between atoms: N_22  and  C_23
REMARK    9  A    between atoms: C_23  and  C_24
REMARK                            x       y       z     vdW  Elec       q    Type
REMARK                         _______ _______ _______ _____ _____    ______ ____
ROOT
ATOM      1  C   UNL     1       1.699  10.745  18.053  0.00  0.00    +0.000 C 
ATOM      2  C   UNL     1       1.490   9.717  19.137  0.00  0.00    +0.000 A 
ATOM      3  C   UNL     1       0.863   9.981  20.304  0.00  0.00    +0.000 A 
ATOM      4  C   UNL     1       0.642   8.912  21.318  0.00  0.00    +0.000 A 
ATOM      5  O   UNL     1       0.065   9.124  22.379  0.00  0.00    +0.000 OA
ATOM      6  O   UNL     1       1.111   7.647  21.019  0.00  0.00    +0.000 OA
ATOM      7  C   UNL     1       1.843   7.365  19.852  0.00  0.00    +0.000 A 
ATOM      8  C   UNL     1       2.369   6.066  19.718  0.00  0.00    +0.000 A 
ATOM      9  C   UNL     1       2.129   5.004  20.758  0.00  0.00    +0.000 C 
ATOM     10  C   UNL     1       3.133   5.765  18.578  0.00  0.00    +0.000 A 
ATOM     11  C   UNL     1       3.370   6.758  17.629  0.00  0.00    +0.000 A 
ATOM     12  C   UNL     1       2.811   8.034  17.779  0.00  0.00    +0.000 A 
ATOM     13  C   UNL     1       2.038   8.364  18.899  0.00  0.00    +0.000 A 
ENDROOT
BRANCH   3  14
ATOM     14  C   UNL     1       0.448  11.362  20.767  0.00  0.00    +0.000 C 
BRANCH  14  15
ATOM     15  C   UNL     1      -0.938  11.829  20.372  0.00  0.00    +0.000 A 
ATOM     16  C   UNL     1      -1.543  11.385  19.188  0.00  0.00    +0.000 A 
ATOM     17  C   UNL     1      -2.876  11.693  18.910  0.00  0.00    +0.000 A 
ATOM     18  C   UNL     1      -3.623  12.449  19.809  0.00  0.00    +0.000 A 
ATOM     19  C   UNL     1      -3.029  12.921  20.977  0.00  0.00    +0.000 A 
ATOM     20  C   UNL     1      -1.695  12.615  21.257  0.00  0.00    +0.000 A 
ENDBRANCH  14  15
ENDBRANCH   3  14
BRANCH  10  21
ATOM     21  O   UNL     1       3.652   4.501  18.520  0.00  0.00    +0.000 OA
BRANCH  21  22
ATOM     22  C   UNL     1       4.809   4.213  19.298  0.00  0.00    +0.000 C 
BRANCH  22  23
ATOM     23  C   UNL     1       6.080   4.751  18.644  0.00  0.00    +0.000 C 
ATOM     24  O   UNL     1       7.033   5.159  19.301  0.00  0.00    +0.000 OA
ATOM     25  N   UNL     1       6.026   4.813  17.269  0.00  0.00    +0.000 N 
ATOM     26  H   UNL     1       5.329   4.237  16.807  0.00  0.00    +0.000 HD
BRANCH  25  27
ATOM     27  C   UNL     1       7.152   5.259  16.475  0.00  0.00    +0.000 C 
BRANCH  27  28
ATOM     28  C   UNL     1       7.026   4.851  15.027  0.00  0.00    +0.000 A 
ATOM     29  C   UNL     1       6.089   3.891  14.649  0.00  0.00    +0.000 A 
ATOM     30  C   UNL     1       5.980   3.547  13.303  0.00  0.00    +0.000 A 
ATOM     31  C   UNL     1       6.801   4.173  12.374  0.00  0.00    +0.000 A 
ATOM     32  C   UNL     1       7.699   5.124  12.830  0.00  0.00    +0.000 A 
ATOM     33  N   UNL     1       7.825   5.482  14.129  0.00  0.00    +0.000 NA
ENDBRANCH  27  28
ENDBRANCH  25  27
ENDBRANCH  22  23
ENDBRANCH  21  22
ENDBRANCH  10  21
TORSDOF 7
ENDMDL
MODEL 4
REMARK VINA RESULT:      -8.0      2.123      3.028
REMARK  Name = 
REMARK  9 active torsions:
REMARK  status: ('A' for Active; 'I' for Inactive)
REMARK    1  A    between atoms: C_1  and  C_2
REMARK    2  A    between atoms: C_3  and  C_4
REMARK    3  A    between atoms: C_4  and  C_5
REMARK    4  A    between atoms: C_15  and  C_16
REMARK    5  A    between atoms: C_17  and  O_18
REMARK    6  A    between atoms: O_18  and  C_19
REMARK    7  A    between atoms: C_19  and  C_20
REMARK    8  A    between atoms: N_22  and  C_23
REMARK    9  A    between atoms: C_23  and  C_24
REMARK                            x       y       z     vdW  Elec       q    Type
REMARK                         _______ _______ _______ _____ _____    ______ ____
ROOT
ATOM      1  C   UNL     1       2.110   6.167  21.105  0.00  0.00    +0.000 C 
ATOM      2  C   UNL     1       1.946   7.324  20.152  0.00  0.00    +0.000 A 
ATOM      3  C   UNL     1       2.528   7.375  18.934  0.00  0.00    +0.000 A 
ATOM      4  C   UNL     1       2.291   8.523  18.015  0.00  0.00    +0.000 A 
ATOM      5  O   UNL     1       2.797   8.586  16.900  0.00  0.00    +0.000 OA
ATOM      6  O   UNL     1       1.461   9.534  18.463  0.00  0.00    +0.000 OA
ATOM      7  C   UNL     1       0.914   9.549  19.758  0.00  0.00    +0.000 A 
ATOM      8  C   UNL     1       0.183  10.690  20.137  0.00  0.00    +0.000 A 
ATOM      9  C   UNL     1      -0.042  11.837  19.187  0.00  0.00    +0.000 C 
ATOM     10  C   UNL     1      -0.347  10.749  21.436  0.00  0.00    +0.000 A 
ATOM     11  C   UNL     1      -0.117   9.694  22.319  0.00  0.00    +0.000 A 
ATOM     12  C   UNL     1       0.593   8.560  21.903  0.00  0.00    +0.000 A 
ATOM     13  C   UNL     1       1.128   8.467  20.613  0.00  0.00    +0.000 A 
ENDROOT
BRANCH   3  14
ATOM     14  C   UNL     1       3.555   6.384  18.427  0.00  0.00    +0.000 C 
BRANCH  14  15
ATOM     15  C   UNL     1       3.099   4.950  18.262  0.00  0.00    +0.000 A 
ATOM     16  C   UNL     1       3.923   3.879  18.633  0.00  0.00    +0.000 A 
ATOM     17  C   UNL     1       3.438   2.569  18.625  0.00  0.00    +0.000 A 
ATOM     18  C   UNL     1       2.124   2.312  18.244  0.00  0.00    +0.000 A 
ATOM     19  C   UNL     1       1.301   3.361  17.846  0.00  0.00    +0.000 A 
ATOM     20  C   UNL     1       1.785   4.672  17.852  0.00  0.00    +0.000 A 
ENDBRANCH  14  15
ENDBRANCH   3  14
BRANCH  10  21
ATOM     21  O   UNL     1      -1.013  11.898  21.763  0.00  0.00    +0.000 OA
BRANCH  21  22
ATOM     22  C   UNL     1      -1.614  11.983  23.051  0.00  0.00    +0.000 C 
BRANCH  22  23
ATOM     23  C   UNL     1      -3.108  12.282  22.960  0.00  0.00    +0.000 C 
ATOM     24  O   UNL     1      -3.883  12.037  23.880  0.00  0.00    +0.000 OA
ATOM     25  N   UNL     1      -3.515  12.771  21.738  0.00  0.00    +0.000 N 
ATOM     26  H   UNL     1      -2.799  13.174  21.140  0.00  0.00    +0.000 HD
BRANCH  25  27
ATOM     27  C   UNL     1      -4.888  13.149  21.480  0.00  0.00    +0.000 C 
BRANCH  27  28
ATOM     28  C   UNL     1      -5.557  12.223  20.491  0.00  0.00    +0.000 A 
ATOM     29  C   UNL     1      -5.049  12.092  19.201  0.00  0.00    +0.000 A 
ATOM     30  C   UNL     1      -5.674  11.216  18.315  0.00  0.00    +0.000 A 
ATOM     31  C   UNL     1      -6.781  10.494  18.743  0.00  0.00    +0.000 A 
ATOM     32  C   UNL     1      -7.218  10.675  20.044  0.00  0.00    +0.000 A 
ATOM     33  N   UNL     1      -6.629  11.514  20.928  0.00  0.00    +0.000 NA
ENDBRANCH  27  28
ENDBRANCH  25  27
ENDBRANCH  22  23
ENDBRANCH  21  22
ENDBRANCH  10  21
TORSDOF 7
ENDMDL
MODEL 5
REMARK VINA RESULT:      -8.0      3.369      9.109
REMARK  Name = 
REMARK  9 active torsions:
REMARK  status: ('A' for Active; 'I' for Inactive)
REMARK    1  A    between atoms: C_1  and  C_2
REMARK    2  A    between atoms: C_3  and  C_4
REMARK    3  A    between atoms: C_4  and  C_5
REMARK    4  A    between atoms: C_15  and  C_16
REMARK    5  A    between atoms: C_17  and  O_18
REMARK    6  A    between atoms: O_18  and  C_19
REMARK    7  A    between atoms: C_19  and  C_20
REMARK    8  A    between atoms: N_22  and  C_23
REMARK    9  A    between atoms: C_23  and  C_24
REMARK                            x       y       z     vdW  Elec       q    Type
REMARK                         _______ _______ _______ _____ _____    ______ ____
ROOT
ATOM      1  C   UNL     1      -1.513  11.444  22.789  0.00  0.00    +0.000 C 
ATOM      2  C   UNL     1      -0.968  11.423  21.382  0.00  0.00    +0.000 A 
ATOM      3  C   UNL     1      -1.303  12.331  20.439  0.00  0.00    +0.000 A 
ATOM      4  C   UNL     1      -0.695  12.289  19.080  0.00  0.00    +0.000 A 
ATOM      5  O   UNL     1      -0.973  13.109  18.211  0.00  0.00    +0.000 OA
ATOM      6  O   UNL     1       0.215  11.281  18.822  0.00  0.00    +0.000 OA
ATOM      7  C   UNL     1       0.515  10.273  19.756  0.00  0.00    +0.000 A 
ATOM      8  C   UNL     1       1.367   9.235  19.333  0.00  0.00    +0.000 A 
ATOM      9  C   UNL     1       1.969   9.218  17.953  0.00  0.00    +0.000 C 
ATOM     10  C   UNL     1       1.658   8.196  20.232  0.00  0.00    +0.000 A 
ATOM     11  C   UNL     1       1.081   8.206  21.501  0.00  0.00    +0.000 A 
ATOM     12  C   UNL     1       0.257   9.267  21.901  0.00  0.00    +0.000 A 
ATOM     13  C   UNL     1      -0.046  10.321  21.032  0.00  0.00    +0.000 A 
ENDROOT
BRANCH   3  14
ATOM     14  C   UNL     1      -2.390  13.374  20.594  0.00  0.00    +0.000 C 
BRANCH  14  15
ATOM     15  C   UNL     1      -3.820  12.904  20.423  0.00  0.00    +0.000 A 
ATOM     16  C   UNL     1      -4.233  12.246  19.257  0.00  0.00    +0.000 A 
ATOM     17  C   UNL     1      -5.506  11.678  19.171  0.00  0.00    +0.000 A 
ATOM     18  C   UNL     1      -6.384  11.761  20.248  0.00  0.00    +0.000 A 
ATOM     19  C   UNL     1      -5.998  12.435  21.404  0.00  0.00    +0.000 A 
ATOM     20  C   UNL     1      -4.726  13.004  21.492  0.00  0.00    +0.000 A 
ENDBRANCH  14  15
ENDBRANCH   3  14
BRANCH  10  21
ATOM     21  O   UNL     1       2.458   7.194  19.755  0.00  0.00    +0.000 OA
BRANCH  21  22
ATOM     22  C   UNL     1       2.066   5.848  19.999  0.00  0.00    +0.000 C 
BRANCH  22  23
ATOM     23  C   UNL     1       2.411   4.936  18.824  0.00  0.00    +0.000 C 
ATOM     24  O   UNL     1       1.706   4.863  17.821  0.00  0.00    +0.000 OA
ATOM     25  N   UNL     1       3.527   4.153  19.024  0.00  0.00    +0.000 N 
ATOM     26  H   UNL     1       4.176   4.450  19.746  0.00  0.00    +0.000 HD
BRANCH  25  27
ATOM     27  C   UNL     1       4.028   3.256  18.005  0.00  0.00    +0.000 C 
BRANCH  27  28
ATOM     28  C   UNL     1       5.115   3.893  17.170  0.00  0.00    +0.000 A 
ATOM     29  C   UNL     1       4.970   3.987  15.787  0.00  0.00    +0.000 A 
ATOM     30  C   UNL     1       5.978   4.597  15.044  0.00  0.00    +0.000 A 
ATOM     31  C   UNL     1       7.096   5.100  15.699  0.00  0.00    +0.000 A 
ATOM     32  C   UNL     1       7.158   4.974  17.076  0.00  0.00    +0.000 A 
ATOM     33  N   UNL     1       6.193   4.392  17.826  0.00  0.00    +0.000 NA
ENDBRANCH  27  28
ENDBRANCH  25  27
ENDBRANCH  22  23
ENDBRANCH  21  22
ENDBRANCH  10  21
TORSDOF 7
ENDMDL
MODEL 6
REMARK VINA RESULT:      -7.9      1.577      2.345
REMARK  Name = 
REMARK  9 active torsions:
REMARK  status: ('A' for Active; 'I' for Inactive)
REMARK    1  A    between atoms: C_1  and  C_2
REMARK    2  A    between atoms: C_3  and  C_4
REMARK    3  A    between atoms: C_4  and  C_5
REMARK    4  A    between atoms: C_15  and  C_16
REMARK    5  A    between atoms: C_17  and  O_18
REMARK    6  A    between atoms: O_18  and  C_19
REMARK    7  A    between atoms: C_19  and  C_20
REMARK    8  A    between atoms: N_22  and  C_23
REMARK    9  A    between atoms: C_23  and  C_24
REMARK                            x       y       z     vdW  Elec       q    Type
REMARK                         _______ _______ _______ _____ _____    ______ ____
ROOT
ATOM      1  C   UNL     1       3.273   7.726  17.113  0.00  0.00    +0.000 C 
ATOM      2  C   UNL     1       2.661   7.358  18.442  0.00  0.00    +0.000 A 
ATOM      3  C   UNL     1       2.681   6.107  18.951  0.00  0.00    +0.000 A 
ATOM      4  C   UNL     1       2.103   5.813  20.292  0.00  0.00    +0.000 A 
ATOM      5  O   UNL     1       2.121   4.688  20.781  0.00  0.00    +0.000 OA
ATOM      6  O   UNL     1       1.538   6.866  20.985  0.00  0.00    +0.000 OA
ATOM      7  C   UNL     1       1.425   8.159  20.442  0.00  0.00    +0.000 A 
ATOM      8  C   UNL     1       0.724   9.117  21.198  0.00  0.00    +0.000 A 
ATOM      9  C   UNL     1       0.151   8.792  22.551  0.00  0.00    +0.000 C 
ATOM     10  C   UNL     1       0.566  10.408  20.666  0.00  0.00    +0.000 A 
ATOM     11  C   UNL     1       1.080  10.697  19.403  0.00  0.00    +0.000 A 
ATOM     12  C   UNL     1       1.796   9.728  18.686  0.00  0.00    +0.000 A 
ATOM     13  C   UNL     1       1.978   8.435  19.192  0.00  0.00    +0.000 A 
ENDROOT
BRANCH   3  14
ATOM     14  C   UNL     1       3.149   4.878  18.201  0.00  0.00    +0.000 C 
BRANCH  14  15
ATOM     15  C   UNL     1       4.591   4.868  17.736  0.00  0.00    +0.000 A 
ATOM     16  C   UNL     1       5.640   5.156  18.620  0.00  0.00    +0.000 A 
ATOM     17  C   UNL     1       6.970   4.991  18.226  0.00  0.00    +0.000 A 
ATOM     18  C   UNL     1       7.270   4.537  16.945  0.00  0.00    +0.000 A 
ATOM     19  C   UNL     1       6.240   4.272  16.046  0.00  0.00    +0.000 A 
ATOM     20  C   UNL     1       4.909   4.438  16.437  0.00  0.00    +0.000 A 
ENDBRANCH  14  15
ENDBRANCH   3  14
BRANCH  10  21
ATOM     21  O   UNL     1      -0.158  11.286  21.424  0.00  0.00    +0.000 OA
BRANCH  21  22
ATOM     22  C   UNL     1      -0.141  12.662  21.059  0.00  0.00    +0.000 C 
BRANCH  22  23
ATOM     23  C   UNL     1      -1.298  13.015  20.128  0.00  0.00    +0.000 C 
ATOM     24  O   UNL     1      -1.379  14.104  19.566  0.00  0.00    +0.000 OA
ATOM     25  N   UNL     1      -2.271  12.043  20.040  0.00  0.00    +0.000 N 
ATOM     26  H   UNL     1      -2.011  11.103  20.321  0.00  0.00    +0.000 HD
BRANCH  25  27
ATOM     27  C   UNL     1      -3.423  12.186  19.175  0.00  0.00    +0.000 C 
BRANCH  27  28
ATOM     28  C   UNL     1      -3.271  11.406  17.891  0.00  0.00    +0.000 A 
ATOM     29  C   UNL     1      -2.266  10.448  17.768  0.00  0.00    +0.000 A 
ATOM     30  C   UNL     1      -2.160   9.729  16.579  0.00  0.00    +0.000 A 
ATOM     31  C   UNL     1      -3.061   9.980  15.552  0.00  0.00    +0.000 A 
ATOM     32  C   UNL     1      -4.037  10.941  15.757  0.00  0.00    +0.000 A 
ATOM     33  N   UNL     1      -4.167  11.651  16.901  0.00  0.00    +0.000 NA
ENDBRANCH  27  28
ENDBRANCH  25  27
ENDBRANCH  22  23
ENDBRANCH  21  22
ENDBRANCH  10  21
TORSDOF 7
ENDMDL
MODEL 7
REMARK VINA RESULT:      -7.8      2.525      3.857
REMARK  Name = 
REMARK  9 active torsions:
REMARK  status: ('A' for Active; 'I' for Inactive)
REMARK    1  A    between atoms: C_1  and  C_2
REMARK    2  A    between atoms: C_3  and  C_4
REMARK    3  A    between atoms: C_4  and  C_5
REMARK    4  A    between atoms: C_15  and  C_16
REMARK    5  A    between atoms: C_17  and  O_18
REMARK    6  A    between atoms: O_18  and  C_19
REMARK    7  A    between atoms: C_19  and  C_20
REMARK    8  A    between atoms: N_22  and  C_23
REMARK    9  A    between atoms: C_23  and  C_24
REMARK                            x       y       z     vdW  Elec       q    Type
REMARK                         _______ _______ _______ _____ _____    ______ ____
ROOT
ATOM      1  C   UNL     1       3.335   7.587  17.222  0.00  0.00    +0.000 C 
ATOM      2  C   UNL     1       2.646   7.267  18.525  0.00  0.00    +0.000 A 
ATOM      3  C   UNL     1       2.726   6.064  19.135  0.00  0.00    +0.000 A 
ATOM      4  C   UNL     1       2.064   5.821  20.447  0.00  0.00    +0.000 A 
ATOM      5  O   UNL     1       2.133   4.742  21.027  0.00  0.00    +0.000 OA
ATOM      6  O   UNL     1       1.359   6.869  21.007  0.00  0.00    +0.000 OA
ATOM      7  C   UNL     1       1.186   8.102  20.352  0.00  0.00    +0.000 A 
ATOM      8  C   UNL     1       0.348   9.049  20.971  0.00  0.00    +0.000 A 
ATOM      9  C   UNL     1      -0.308   8.777  22.299  0.00  0.00    +0.000 C 
ATOM     10  C   UNL     1       0.129  10.277  20.326  0.00  0.00    +0.000 A 
ATOM     11  C   UNL     1       0.722  10.515  19.086  0.00  0.00    +0.000 A 
ATOM     12  C   UNL     1       1.572   9.562  18.508  0.00  0.00    +0.000 A 
ATOM     13  C   UNL     1       1.817   8.332  19.130  0.00  0.00    +0.000 A 
ENDROOT
BRANCH   3  14
ATOM     14  C   UNL     1       3.355   4.829  18.526  0.00  0.00    +0.000 C 
BRANCH  14  15
ATOM     15  C   UNL     1       4.860   4.838  18.358  0.00  0.00    +0.000 A 
ATOM     16  C   UNL     1       5.460   4.423  17.161  0.00  0.00    +0.000 A 
ATOM     17  C   UNL     1       6.832   4.583  16.958  0.00  0.00    +0.000 A 
ATOM     18  C   UNL     1       7.624   5.157  17.949  0.00  0.00    +0.000 A 
ATOM     19  C   UNL     1       7.049   5.550  19.154  0.00  0.00    +0.000 A 
ATOM     20  C   UNL     1       5.676   5.390  19.360  0.00  0.00    +0.000 A 
ENDBRANCH  14  15
ENDBRANCH   3  14
BRANCH  10  21
ATOM     21  O   UNL     1      -0.725  11.142  20.952  0.00  0.00    +0.000 OA
BRANCH  21  22
ATOM     22  C   UNL     1      -0.165  12.228  21.683  0.00  0.00    +0.000 C 
BRANCH  22  23
ATOM     23  C   UNL     1      -1.104  12.714  22.784  0.00  0.00    +0.000 C 
ATOM     24  O   UNL     1      -0.787  13.601  23.572  0.00  0.00    +0.000 OA
ATOM     25  N   UNL     1      -2.290  12.019  22.863  0.00  0.00    +0.000 N 
ATOM     26  H   UNL     1      -2.574  11.493  22.042  0.00  0.00    +0.000 HD
BRANCH  25  27
ATOM     27  C   UNL     1      -3.320  12.365  23.821  0.00  0.00    +0.000 C 
BRANCH  27  28
ATOM     28  C   UNL     1      -4.530  12.982  23.159  0.00  0.00    +0.000 A 
ATOM     29  C   UNL     1      -5.125  14.116  23.707  0.00  0.00    +0.000 A 
ATOM     30  C   UNL     1      -6.228  14.676  23.065  0.00  0.00    +0.000 A 
ATOM     31  C   UNL     1      -6.699  14.095  21.894  0.00  0.00    +0.000 A 
ATOM     32  C   UNL     1      -6.045  12.976  21.410  0.00  0.00    +0.000 A 
ATOM     33  N   UNL     1      -4.970  12.412  22.008  0.00  0.00    +0.000 NA
ENDBRANCH  27  28
ENDBRANCH  25  27
ENDBRANCH  22  23
ENDBRANCH  21  22
ENDBRANCH  10  21
TORSDOF 7
ENDMDL
MODEL 8
REMARK VINA RESULT:      -7.7      2.553      3.815
REMARK  Name = 
REMARK  9 active torsions:
REMARK  status: ('A' for Active; 'I' for Inactive)
REMARK    1  A    between atoms: C_1  and  C_2
REMARK    2  A    between atoms: C_3  and  C_4
REMARK    3  A    between atoms: C_4  and  C_5
REMARK    4  A    between atoms: C_15  and  C_16
REMARK    5  A    between atoms: C_17  and  O_18
REMARK    6  A    between atoms: O_18  and  C_19
REMARK    7  A    between atoms: C_19  and  C_20
REMARK    8  A    between atoms: N_22  and  C_23
REMARK    9  A    between atoms: C_23  and  C_24
REMARK                            x       y       z     vdW  Elec       q    Type
REMARK                         _______ _______ _______ _____ _____    ______ ____
ROOT
ATOM      1  C   UNL     1       3.391   7.620  17.182  0.00  0.00    +0.000 C 
ATOM      2  C   UNL     1       2.683   7.341  18.485  0.00  0.00    +0.000 A 
ATOM      3  C   UNL     1       2.733   6.150  19.120  0.00  0.00    +0.000 A 
ATOM      4  C   UNL     1       2.054   5.947  20.430  0.00  0.00    +0.000 A 
ATOM      5  O   UNL     1       2.096   4.879  21.032  0.00  0.00    +0.000 OA
ATOM      6  O   UNL     1       1.366   7.021  20.962  0.00  0.00    +0.000 OA
ATOM      7  C   UNL     1       1.224   8.244  20.280  0.00  0.00    +0.000 A 
ATOM      8  C   UNL     1       0.401   9.220  20.872  0.00  0.00    +0.000 A 
ATOM      9  C   UNL     1      -0.273   8.989  22.199  0.00  0.00    +0.000 C 
ATOM     10  C   UNL     1       0.213  10.439  20.199  0.00  0.00    +0.000 A 
ATOM     11  C   UNL     1       0.822  10.639  18.961  0.00  0.00    +0.000 A 
ATOM     12  C   UNL     1       1.657   9.657  18.411  0.00  0.00    +0.000 A 
ATOM     13  C   UNL     1       1.871   8.435  19.060  0.00  0.00    +0.000 A 
ENDROOT
BRANCH   3  14
ATOM     14  C   UNL     1       3.342   4.889  18.542  0.00  0.00    +0.000 C 
BRANCH  14  15
ATOM     15  C   UNL     1       4.815   4.937  18.196  0.00  0.00    +0.000 A 
ATOM     16  C   UNL     1       5.777   5.264  19.162  0.00  0.00    +0.000 A 
ATOM     17  C   UNL     1       7.140   5.152  18.878  0.00  0.00    +0.000 A 
ATOM     18  C   UNL     1       7.561   4.715  17.625  0.00  0.00    +0.000 A 
ATOM     19  C   UNL     1       6.618   4.412  16.646  0.00  0.00    +0.000 A 
ATOM     20  C   UNL     1       5.255   4.524  16.928  0.00  0.00    +0.000 A 
ENDBRANCH  14  15
ENDBRANCH   3  14
BRANCH  10  21
ATOM     21  O   UNL     1      -0.628  11.334  20.799  0.00  0.00    +0.000 OA
BRANCH  21  22
ATOM     22  C   UNL     1      -0.056  12.353  21.613  0.00  0.00    +0.000 C 
BRANCH  22  23
ATOM     23  C   UNL     1      -1.014  12.804  22.713  0.00  0.00    +0.000 C 
ATOM     24  O   UNL     1      -0.687  13.614  23.575  0.00  0.00    +0.000 OA
ATOM     25  N   UNL     1      -2.235  12.166  22.697  0.00  0.00    +0.000 N 
ATOM     26  H   UNL     1      -2.510  11.715  21.830  0.00  0.00    +0.000 HD
BRANCH  25  27
ATOM     27  C   UNL     1      -3.284  12.492  23.640  0.00  0.00    +0.000 C 
BRANCH  27  28
ATOM     28  C   UNL     1      -4.608  12.739  22.955  0.00  0.00    +0.000 A 
ATOM     29  C   UNL     1      -4.641  13.197  21.640  0.00  0.00    +0.000 A 
ATOM     30  C   UNL     1      -5.876  13.398  21.026  0.00  0.00    +0.000 A 
ATOM     31  C   UNL     1      -7.039  13.132  21.737  0.00  0.00    +0.000 A 
ATOM     32  C   UNL     1      -6.919  12.670  23.037  0.00  0.00    +0.000 A 
ATOM     33  N   UNL     1      -5.736  12.461  23.658  0.00  0.00    +0.000 NA
ENDBRANCH  27  28
ENDBRANCH  25  27
ENDBRANCH  22  23
ENDBRANCH  21  22
ENDBRANCH  10  21
TORSDOF 7
ENDMDL
MODEL 9
REMARK VINA RESULT:      -7.7      3.382      4.344
REMARK  Name = 
REMARK  9 active torsions:
REMARK  status: ('A' for Active; 'I' for Inactive)
REMARK    1  A    between atoms: C_1  and  C_2
REMARK    2  A    between atoms: C_3  and  C_4
REMARK    3  A    between atoms: C_4  and  C_5
REMARK    4  A    between atoms: C_15  and  C_16
REMARK    5  A    between atoms: C_17  and  O_18
REMARK    6  A    between atoms: O_18  and  C_19
REMARK    7  A    between atoms: C_19  and  C_20
REMARK    8  A    between atoms: N_22  and  C_23
REMARK    9  A    between atoms: C_23  and  C_24
REMARK                            x       y       z     vdW  Elec       q    Type
REMARK                         _______ _______ _______ _____ _____    ______ ____
ROOT
ATOM      1  C   UNL     1       3.405   7.521  17.075  0.00  0.00    +0.000 C 
ATOM      2  C   UNL     1       2.703   7.313  18.394  0.00  0.00    +0.000 A 
ATOM      3  C   UNL     1       2.800   6.177  19.120  0.00  0.00    +0.000 A 
ATOM      4  C   UNL     1       2.124   6.046  20.440  0.00  0.00    +0.000 A 
ATOM      5  O   UNL     1       2.209   5.031  21.123  0.00  0.00    +0.000 OA
ATOM      6  O   UNL     1       1.387   7.127  20.886  0.00  0.00    +0.000 OA
ATOM      7  C   UNL     1       1.197   8.286  20.112  0.00  0.00    +0.000 A 
ATOM      8  C   UNL     1       0.328   9.268  20.625  0.00  0.00    +0.000 A 
ATOM      9  C   UNL     1      -0.342   9.111  21.964  0.00  0.00    +0.000 C 
ATOM     10  C   UNL     1       0.092  10.422  19.859  0.00  0.00    +0.000 A 
ATOM     11  C   UNL     1       0.699  10.553  18.611  0.00  0.00    +0.000 A 
ATOM     12  C   UNL     1       1.578   9.569  18.139  0.00  0.00    +0.000 A 
ATOM     13  C   UNL     1       1.841   8.411  18.881  0.00  0.00    +0.000 A 
ENDROOT
BRANCH   3  14
ATOM     14  C   UNL     1       3.467   4.903  18.642  0.00  0.00    +0.000 C 
BRANCH  14  15
ATOM     15  C   UNL     1       4.944   4.983  18.319  0.00  0.00    +0.000 A 
ATOM     16  C   UNL     1       5.868   5.454  19.262  0.00  0.00    +0.000 A 
ATOM     17  C   UNL     1       7.241   5.377  19.016  0.00  0.00    +0.000 A 
ATOM     18  C   UNL     1       7.709   4.829  17.825  0.00  0.00    +0.000 A 
ATOM     19  C   UNL     1       6.803   4.381  16.866  0.00  0.00    +0.000 A 
ATOM     20  C   UNL     1       5.430   4.459  17.110  0.00  0.00    +0.000 A 
ENDBRANCH  14  15
ENDBRANCH   3  14
BRANCH  10  21
ATOM     21  O   UNL     1      -0.791  11.324  20.387  0.00  0.00    +0.000 OA
BRANCH  21  22
ATOM     22  C   UNL     1      -1.170  12.440  19.588  0.00  0.00    +0.000 C 
BRANCH  22  23
ATOM     23  C   UNL     1      -0.586  13.745  20.125  0.00  0.00    +0.000 C 
ATOM     24  O   UNL     1       0.189  13.773  21.076  0.00  0.00    +0.000 OA
ATOM     25  N   UNL     1      -1.067  14.877  19.505  0.00  0.00    +0.000 N 
ATOM     26  H   UNL     1      -1.492  14.758  18.591  0.00  0.00    +0.000 HD
BRANCH  25  27
ATOM     27  C   UNL     1      -0.598  16.201  19.854  0.00  0.00    +0.000 C 
BRANCH  27  28
ATOM     28  C   UNL     1       0.002  16.924  18.671  0.00  0.00    +0.000 A 
ATOM     29  C   UNL     1      -0.810  17.676  17.825  0.00  0.00    +0.000 A 
ATOM     30  C   UNL     1      -0.228  18.348  16.752  0.00  0.00    +0.000 A 
ATOM     31  C   UNL     1       1.145  18.256  16.559  0.00  0.00    +0.000 A 
ATOM     32  C   UNL     1       1.882  17.496  17.451  0.00  0.00    +0.000 A 
ATOM     33  N   UNL     1       1.346  16.836  18.503  0.00  0.00    +0.000 NA
ENDBRANCH  27  28
ENDBRANCH  25  27
ENDBRANCH  22  23
ENDBRANCH  21  22
ENDBRANCH  10  21
TORSDOF 7
ENDMDL
