MODEL 1
REMARK VINA RESULT:      -7.0      0.000      0.000
REMARK  Name = 
REMARK  9 active torsions:
REMARK  status: ('A' for Active; 'I' for Inactive)
REMARK    1  A    between atoms: C_1  and  C_2
REMARK    2  A    between atoms: C_2  and  O_3
REMARK    3  A    between atoms: O_3  and  C_4
REMARK    4  A    between atoms: C_9  and  S_10
REMARK    5  A    between atoms: S_10  and  C_11
REMARK    6  A    between atoms: C_11  and  C_12
REMARK    7  A    between atoms: C_12  and  N_13
REMARK    8  A    between atoms: N_13  and  S_14
REMARK    9  A    between atoms: S_14  and  C_17
REMARK                            x       y       z     vdW  Elec       q    Type
REMARK                         _______ _______ _______ _____ _____    ______ ____
ROOT
ATOM      1  S   UNL     1       7.201   5.230  18.133  0.00  0.00    +0.000 S 
ENDROOT
BRANCH   1   7
ATOM      2  C   UNL     1       5.834   3.689  11.977  0.00  0.00    +0.000 A 
ATOM      3  C   UNL     1       7.029   4.406  11.881  0.00  0.00    +0.000 A 
ATOM      4  C   UNL     1       7.653   4.912  13.024  0.00  0.00    +0.000 A 
ATOM      5  C   UNL     1       7.084   4.701  14.292  0.00  0.00    +0.000 A 
ATOM      6  N   UNL     1       7.611   5.150  15.492  0.00  0.00    +0.000 NA
ATOM      7  C   UNL     1       6.829   4.777  16.477  0.00  0.00    +0.000 A 
ATOM      8  S   UNL     1       5.438   3.880  16.043  0.00  0.00    +0.000 S 
ATOM      9  C   UNL     1       5.892   3.983  14.381  0.00  0.00    +0.000 A 
ATOM     10  C   UNL     1       5.250   3.471  13.233  0.00  0.00    +0.000 A 
BRANCH   2  11
ATOM     11  O   UNL     1       5.149   3.158  10.914  0.00  0.00    +0.000 OA
BRANCH  11  13
ATOM     12  C   UNL     1       3.085   3.742   9.825  0.00  0.00    +0.000 C 
ATOM     13  C   UNL     1       3.725   3.098  11.040  0.00  0.00    +0.000 C 
ENDBRANCH  11  13
ENDBRANCH   2  11
ENDBRANCH   1   7
BRANCH   1  14
ATOM     14  C   UNL     1       5.778   4.492  19.019  0.00  0.00    +0.000 C 
BRANCH  14  15
ATOM     15  C   UNL     1       4.885   5.586  19.606  0.00  0.00    +0.000 C 
BRANCH  15  16
ATOM     16  N   UNL     1       4.220   6.381  18.552  0.00  0.00    +0.000 NA
ATOM     17  H   UNL     1       4.383   6.114  17.583  0.00  0.00    +0.000 HD
BRANCH  16  18
ATOM     18  S   UNL     1       2.564   6.670  18.798  0.00  0.00    +0.000 S 
ATOM     19  O   UNL     1       2.470   7.423  20.027  0.00  0.00    +0.000 OA
ATOM     20  O   UNL     1       2.005   7.165  17.559  0.00  0.00    +0.000 OA
BRANCH  18  21
ATOM     21  C   UNL     1       1.935   5.045  19.108  0.00  0.00    +0.000 A 
ATOM     22  C   UNL     1       1.524   4.705  20.399  0.00  0.00    +0.000 A 
ATOM     23  C   UNL     1       1.051   3.416  20.650  0.00  0.00    +0.000 A 
ATOM     24  C   UNL     1       0.981   2.482  19.613  0.00  0.00    +0.000 A 
ATOM     25  C   UNL     1       1.366   2.837  18.320  0.00  0.00    +0.000 A 
ATOM     26  C   UNL     1       1.840   4.123  18.060  0.00  0.00    +0.000 A 
ENDBRANCH  18  21
ENDBRANCH  16  18
ENDBRANCH  15  16
ENDBRANCH  14  15
ENDBRANCH   1  14
TORSDOF 8
ENDMDL
MODEL 2
REMARK VINA RESULT:      -7.0      1.168      1.397
REMARK  Name = 
REMARK  9 active torsions:
REMARK  status: ('A' for Active; 'I' for Inactive)
REMARK    1  A    between atoms: C_1  and  C_2
REMARK    2  A    between atoms: C_2  and  O_3
REMARK    3  A    between atoms: O_3  and  C_4
REMARK    4  A    between atoms: C_9  and  S_10
REMARK    5  A    between atoms: S_10  and  C_11
REMARK    6  A    between atoms: C_11  and  C_12
REMARK    7  A    between atoms: C_12  and  N_13
REMARK    8  A    between atoms: N_13  and  S_14
REMARK    9  A    between atoms: S_14  and  C_17
REMARK                            x       y       z     vdW  Elec       q    Type
REMARK                         _______ _______ _______ _____ _____    ______ ____
ROOT
ATOM      1  S   UNL     1       6.401   6.474  17.780  0.00  0.00    +0.000 S 
ENDROOT
BRANCH   1   7
ATOM      2  C   UNL     1       6.145   3.121  12.229  0.00  0.00    +0.000 A 
ATOM      3  C   UNL     1       7.233   3.978  12.048  0.00  0.00    +0.000 A 
ATOM      4  C   UNL     1       7.614   4.872  13.052  0.00  0.00    +0.000 A 
ATOM      5  C   UNL     1       6.905   4.916  14.264  0.00  0.00    +0.000 A 
ATOM      6  N   UNL     1       7.189   5.755  15.329  0.00  0.00    +0.000 NA
ATOM      7  C   UNL     1       6.333   5.535  16.298  0.00  0.00    +0.000 A 
ATOM      8  S   UNL     1       5.153   4.331  16.007  0.00  0.00    +0.000 S 
ATOM      9  C   UNL     1       5.820   4.058  14.439  0.00  0.00    +0.000 A 
ATOM     10  C   UNL     1       5.424   3.153  13.430  0.00  0.00    +0.000 A 
BRANCH   2  11
ATOM     11  O   UNL     1       5.697   2.214  11.302  0.00  0.00    +0.000 OA
BRANCH  11  13
ATOM     12  C   UNL     1       6.072  -0.160  11.210  0.00  0.00    +0.000 C 
ATOM     13  C   UNL     1       6.631   1.212  10.889  0.00  0.00    +0.000 C 
ENDBRANCH  11  13
ENDBRANCH   2  11
ENDBRANCH   1   7
BRANCH   1  14
ATOM     14  C   UNL     1       6.292   5.143  19.035  0.00  0.00    +0.000 C 
BRANCH  14  15
ATOM     15  C   UNL     1       4.850   4.975  19.516  0.00  0.00    +0.000 C 
BRANCH  15  16
ATOM     16  N   UNL     1       4.211   6.274  19.812  0.00  0.00    +0.000 NA
ATOM     17  H   UNL     1       4.757   7.119  19.650  0.00  0.00    +0.000 HD
BRANCH  16  18
ATOM     18  S   UNL     1       2.644   6.472  19.186  0.00  0.00    +0.000 S 
ATOM     19  O   UNL     1       1.953   7.340  20.109  0.00  0.00    +0.000 OA
ATOM     20  O   UNL     1       2.760   6.794  17.780  0.00  0.00    +0.000 OA
BRANCH  18  21
ATOM     21  C   UNL     1       1.960   4.848  19.352  0.00  0.00    +0.000 A 
ATOM     22  C   UNL     1       1.556   4.400  20.612  0.00  0.00    +0.000 A 
ATOM     23  C   UNL     1       1.039   3.111  20.748  0.00  0.00    +0.000 A 
ATOM     24  C   UNL     1       0.919   2.284  19.629  0.00  0.00    +0.000 A 
ATOM     25  C   UNL     1       1.297   2.747  18.368  0.00  0.00    +0.000 A 
ATOM     26  C   UNL     1       1.814   4.034  18.223  0.00  0.00    +0.000 A 
ENDBRANCH  18  21
ENDBRANCH  16  18
ENDBRANCH  15  16
ENDBRANCH  14  15
ENDBRANCH   1  14
TORSDOF 8
ENDMDL
MODEL 3
REMARK VINA RESULT:      -6.9      3.343      8.150
REMARK  Name = 
REMARK  9 active torsions:
REMARK  status: ('A' for Active; 'I' for Inactive)
REMARK    1  A    between atoms: C_1  and  C_2
REMARK    2  A    between atoms: C_2  and  O_3
REMARK    3  A    between atoms: O_3  and  C_4
REMARK    4  A    between atoms: C_9  and  S_10
REMARK    5  A    between atoms: S_10  and  C_11
REMARK    6  A    between atoms: C_11  and  C_12
REMARK    7  A    between atoms: C_12  and  N_13
REMARK    8  A    between atoms: N_13  and  S_14
REMARK    9  A    between atoms: S_14  and  C_17
REMARK                            x       y       z     vdW  Elec       q    Type
REMARK                         _______ _______ _______ _____ _____    ______ ____
ROOT
ATOM      1  S   UNL     1       3.204   3.111  19.190  0.00  0.00    +0.000 S 
ENDROOT
BRANCH   1   7
ATOM      2  C   UNL     1       1.338   9.308  19.680  0.00  0.00    +0.000 A 
ATOM      3  C   UNL     1       1.779   9.199  18.360  0.00  0.00    +0.000 A 
ATOM      4  C   UNL     1       2.263   7.985  17.866  0.00  0.00    +0.000 A 
ATOM      5  C   UNL     1       2.308   6.852  18.696  0.00  0.00    +0.000 A 
ATOM      6  N   UNL     1       2.763   5.599  18.318  0.00  0.00    +0.000 NA
ATOM      7  C   UNL     1       2.665   4.776  19.335  0.00  0.00    +0.000 A 
ATOM      8  S   UNL     1       2.033   5.432  20.784  0.00  0.00    +0.000 S 
ATOM      9  C   UNL     1       1.865   6.967  20.013  0.00  0.00    +0.000 A 
ATOM     10  C   UNL     1       1.378   8.189  20.524  0.00  0.00    +0.000 A 
BRANCH   2  11
ATOM     11  O   UNL     1       0.850  10.455  20.253  0.00  0.00    +0.000 OA
BRANCH  11  13
ATOM     12  C   UNL     1      -0.445  10.869  22.239  0.00  0.00    +0.000 C 
ATOM     13  C   UNL     1      -0.469  10.380  20.803  0.00  0.00    +0.000 C 
ENDBRANCH  11  13
ENDBRANCH   2  11
ENDBRANCH   1   7
BRANCH   1  14
ATOM     14  C   UNL     1       4.348   3.242  17.765  0.00  0.00    +0.000 C 
BRANCH  14  15
ATOM     15  C   UNL     1       5.489   4.210  18.080  0.00  0.00    +0.000 C 
BRANCH  15  16
ATOM     16  N   UNL     1       5.687   5.201  17.001  0.00  0.00    +0.000 NA
ATOM     17  H   UNL     1       5.356   6.151  17.164  0.00  0.00    +0.000 HD
BRANCH  16  18
ATOM     18  S   UNL     1       7.247   5.243  16.332  0.00  0.00    +0.000 S 
ATOM     19  O   UNL     1       7.634   6.634  16.312  0.00  0.00    +0.000 OA
ATOM     20  O   UNL     1       8.049   4.240  16.998  0.00  0.00    +0.000 OA
BRANCH  18  21
ATOM     21  C   UNL     1       6.959   4.735  14.661  0.00  0.00    +0.000 A 
ATOM     22  C   UNL     1       7.781   5.228  13.644  0.00  0.00    +0.000 A 
ATOM     23  C   UNL     1       7.539   4.847  12.323  0.00  0.00    +0.000 A 
ATOM     24  C   UNL     1       6.490   3.974  12.027  0.00  0.00    +0.000 A 
ATOM     25  C   UNL     1       5.691   3.462  13.050  0.00  0.00    +0.000 A 
ATOM     26  C   UNL     1       5.926   3.837  14.373  0.00  0.00    +0.000 A 
ENDBRANCH  18  21
ENDBRANCH  16  18
ENDBRANCH  15  16
ENDBRANCH  14  15
ENDBRANCH   1  14
TORSDOF 8
ENDMDL
MODEL 4
REMARK VINA RESULT:      -6.8      3.525      7.911
REMARK  Name = 
REMARK  9 active torsions:
REMARK  status: ('A' for Active; 'I' for Inactive)
REMARK    1  A    between atoms: C_1  and  C_2
REMARK    2  A    between atoms: C_2  and  O_3
REMARK    3  A    between atoms: O_3  and  C_4
REMARK    4  A    between atoms: C_9  and  S_10
REMARK    5  A    between atoms: S_10  and  C_11
REMARK    6  A    between atoms: C_11  and  C_12
REMARK    7  A    between atoms: C_12  and  N_13
REMARK    8  A    between atoms: N_13  and  S_14
REMARK    9  A    between atoms: S_14  and  C_17
REMARK                            x       y       z     vdW  Elec       q    Type
REMARK                         _______ _______ _______ _____ _____    ______ ____
ROOT
ATOM      1  S   UNL     1       2.998   3.330  19.189  0.00  0.00    +0.000 S 
ENDROOT
BRANCH   1   7
ATOM      2  C   UNL     1       1.457   9.632  19.374  0.00  0.00    +0.000 A 
ATOM      3  C   UNL     1       1.857   9.428  18.052  0.00  0.00    +0.000 A 
ATOM      4  C   UNL     1       2.267   8.166  17.615  0.00  0.00    +0.000 A 
ATOM      5  C   UNL     1       2.277   7.079  18.506  0.00  0.00    +0.000 A 
ATOM      6  N   UNL     1       2.659   5.786  18.189  0.00  0.00    +0.000 NA
ATOM      7  C   UNL     1       2.547   5.026  19.252  0.00  0.00    +0.000 A 
ATOM      8  S   UNL     1       1.987   5.791  20.676  0.00  0.00    +0.000 S 
ATOM      9  C   UNL     1       1.875   7.289  19.825  0.00  0.00    +0.000 A 
ATOM     10  C   UNL     1       1.463   8.561  20.278  0.00  0.00    +0.000 A 
BRANCH   2  11
ATOM     11  O   UNL     1       1.042  10.832  19.893  0.00  0.00    +0.000 OA
BRANCH  11  13
ATOM     12  C   UNL     1      -0.245  12.454  18.668  0.00  0.00    +0.000 C 
ATOM     13  C   UNL     1       1.145  11.969  19.030  0.00  0.00    +0.000 C 
ENDBRANCH  11  13
ENDBRANCH   2  11
ENDBRANCH   1   7
BRANCH   1  14
ATOM     14  C   UNL     1       4.253   3.357  17.854  0.00  0.00    +0.000 C 
BRANCH  14  15
ATOM     15  C   UNL     1       5.378   4.335  18.195  0.00  0.00    +0.000 C 
BRANCH  15  16
ATOM     16  N   UNL     1       5.595   5.326  17.120  0.00  0.00    +0.000 NA
ATOM     17  H   UNL     1       5.255   6.274  17.276  0.00  0.00    +0.000 HD
BRANCH  16  18
ATOM     18  S   UNL     1       7.169   5.375  16.484  0.00  0.00    +0.000 S 
ATOM     19  O   UNL     1       7.531   6.772  16.428  0.00  0.00    +0.000 OA
ATOM     20  O   UNL     1       7.973   4.409  17.200  0.00  0.00    +0.000 OA
BRANCH  18  21
ATOM     21  C   UNL     1       6.927   4.810  14.824  0.00  0.00    +0.000 A 
ATOM     22  C   UNL     1       7.738   5.314  13.804  0.00  0.00    +0.000 A 
ATOM     23  C   UNL     1       7.532   4.887  12.492  0.00  0.00    +0.000 A 
ATOM     24  C   UNL     1       6.530   3.956  12.207  0.00  0.00    +0.000 A 
ATOM     25  C   UNL     1       5.742   3.435  13.235  0.00  0.00    +0.000 A 
ATOM     26  C   UNL     1       5.941   3.856  14.549  0.00  0.00    +0.000 A 
ENDBRANCH  18  21
ENDBRANCH  16  18
ENDBRANCH  15  16
ENDBRANCH  14  15
ENDBRANCH   1  14
TORSDOF 8
ENDMDL
MODEL 5
REMARK VINA RESULT:      -6.7      4.174      8.983
REMARK  Name = 
REMARK  9 active torsions:
REMARK  status: ('A' for Active; 'I' for Inactive)
REMARK    1  A    between atoms: C_1  and  C_2
REMARK    2  A    between atoms: C_2  and  O_3
REMARK    3  A    between atoms: O_3  and  C_4
REMARK    4  A    between atoms: C_9  and  S_10
REMARK    5  A    between atoms: S_10  and  C_11
REMARK    6  A    between atoms: C_11  and  C_12
REMARK    7  A    between atoms: C_12  and  N_13
REMARK    8  A    between atoms: N_13  and  S_14
REMARK    9  A    between atoms: S_14  and  C_17
REMARK                            x       y       z     vdW  Elec       q    Type
REMARK                         _______ _______ _______ _____ _____    ______ ____
ROOT
ATOM      1  S   UNL     1       3.117   5.610  17.990  0.00  0.00    +0.000 S 
ENDROOT
BRANCH   1   7
ATOM      2  C   UNL     1       0.433  10.769  20.871  0.00  0.00    +0.000 A 
ATOM      3  C   UNL     1       0.527   9.829  21.899  0.00  0.00    +0.000 A 
ATOM      4  C   UNL     1       1.071   8.564  21.662  0.00  0.00    +0.000 A 
ATOM      5  C   UNL     1       1.536   8.223  20.381  0.00  0.00    +0.000 A 
ATOM      6  N   UNL     1       2.095   7.006  20.028  0.00  0.00    +0.000 NA
ATOM      7  C   UNL     1       2.419   7.027  18.758  0.00  0.00    +0.000 A 
ATOM      8  S   UNL     1       2.085   8.478  17.914  0.00  0.00    +0.000 S 
ATOM      9  C   UNL     1       1.440   9.167  19.359  0.00  0.00    +0.000 A 
ATOM     10  C   UNL     1       0.889  10.447  19.585  0.00  0.00    +0.000 A 
BRANCH   2  11
ATOM     11  O   UNL     1      -0.086  12.032  21.007  0.00  0.00    +0.000 OA
BRANCH  11  13
ATOM     12  C   UNL     1       0.425  14.132  19.950  0.00  0.00    +0.000 C 
ATOM     13  C   UNL     1       0.852  13.112  20.988  0.00  0.00    +0.000 C 
ENDBRANCH  11  13
ENDBRANCH   2  11
ENDBRANCH   1   7
BRANCH   1  14
ATOM     14  C   UNL     1       4.325   5.088  19.265  0.00  0.00    +0.000 C 
BRANCH  14  15
ATOM     15  C   UNL     1       5.669   4.743  18.622  0.00  0.00    +0.000 C 
BRANCH  15  16
ATOM     16  N   UNL     1       5.697   5.082  17.183  0.00  0.00    +0.000 NA
ATOM     17  H   UNL     1       5.111   5.853  16.867  0.00  0.00    +0.000 HD
BRANCH  16  18
ATOM     18  S   UNL     1       7.246   5.218  16.500  0.00  0.00    +0.000 S 
ATOM     19  O   UNL     1       7.562   6.627  16.510  0.00  0.00    +0.000 OA
ATOM     20  O   UNL     1       8.104   4.242  17.135  0.00  0.00    +0.000 OA
BRANCH  18  21
ATOM     21  C   UNL     1       6.966   4.735  14.820  0.00  0.00    +0.000 A 
ATOM     22  C   UNL     1       7.766   5.276  13.810  0.00  0.00    +0.000 A 
ATOM     23  C   UNL     1       7.530   4.915  12.483  0.00  0.00    +0.000 A 
ATOM     24  C   UNL     1       6.509   4.014  12.173  0.00  0.00    +0.000 A 
ATOM     25  C   UNL     1       5.732   3.455  13.190  0.00  0.00    +0.000 A 
ATOM     26  C   UNL     1       5.961   3.810  14.519  0.00  0.00    +0.000 A 
ENDBRANCH  18  21
ENDBRANCH  16  18
ENDBRANCH  15  16
ENDBRANCH  14  15
ENDBRANCH   1  14
TORSDOF 8
ENDMDL
MODEL 6
REMARK VINA RESULT:      -6.7      5.175      9.619
REMARK  Name = 
REMARK  9 active torsions:
REMARK  status: ('A' for Active; 'I' for Inactive)
REMARK    1  A    between atoms: C_1  and  C_2
REMARK    2  A    between atoms: C_2  and  O_3
REMARK    3  A    between atoms: O_3  and  C_4
REMARK    4  A    between atoms: C_9  and  S_10
REMARK    5  A    between atoms: S_10  and  C_11
REMARK    6  A    between atoms: C_11  and  C_12
REMARK    7  A    between atoms: C_12  and  N_13
REMARK    8  A    between atoms: N_13  and  S_14
REMARK    9  A    between atoms: S_14  and  C_17
REMARK                            x       y       z     vdW  Elec       q    Type
REMARK                         _______ _______ _______ _____ _____    ______ ____
ROOT
ATOM      1  S   UNL     1       2.083   8.839  17.868  0.00  0.00    +0.000 S 
ENDROOT
BRANCH   1   7
ATOM      2  C   UNL     1      -1.434  11.345  22.714  0.00  0.00    +0.000 A 
ATOM      3  C   UNL     1      -0.864  10.200  23.276  0.00  0.00    +0.000 A 
ATOM      4  C   UNL     1      -0.019   9.379  22.525  0.00  0.00    +0.000 A 
ATOM      5  C   UNL     1       0.273   9.701  21.189  0.00  0.00    +0.000 A 
ATOM      6  N   UNL     1       1.096   8.968  20.349  0.00  0.00    +0.000 NA
ATOM      7  C   UNL     1       1.150   9.550  19.175  0.00  0.00    +0.000 A 
ATOM      8  S   UNL     1       0.238  10.987  18.998  0.00  0.00    +0.000 S 
ATOM      9  C   UNL     1      -0.297  10.846  20.634  0.00  0.00    +0.000 A 
ATOM     10  C   UNL     1      -1.156  11.680  21.381  0.00  0.00    +0.000 A 
BRANCH   2  11
ATOM     11  O   UNL     1      -2.274  12.207  23.370  0.00  0.00    +0.000 OA
BRANCH  11  13
ATOM     12  C   UNL     1      -4.290  13.519  23.299  0.00  0.00    +0.000 C 
ATOM     13  C   UNL     1      -3.040  13.097  22.552  0.00  0.00    +0.000 C 
ENDBRANCH  11  13
ENDBRANCH   2  11
ENDBRANCH   1   7
BRANCH   1  14
ATOM     14  C   UNL     1       2.803   7.381  18.713  0.00  0.00    +0.000 C 
BRANCH  14  15
ATOM     15  C   UNL     1       3.326   6.372  17.690  0.00  0.00    +0.000 C 
BRANCH  15  16
ATOM     16  N   UNL     1       4.672   5.874  18.041  0.00  0.00    +0.000 NA
ATOM     17  H   UNL     1       5.150   6.316  18.825  0.00  0.00    +0.000 HD
BRANCH  16  18
ATOM     18  S   UNL     1       4.814   4.186  18.157  0.00  0.00    +0.000 S 
ATOM     19  O   UNL     1       4.883   3.699  16.799  0.00  0.00    +0.000 OA
ATOM     20  O   UNL     1       5.847   3.887  19.124  0.00  0.00    +0.000 OA
BRANCH  18  21
ATOM     21  C   UNL     1       3.244   3.716  18.824  0.00  0.00    +0.000 A 
ATOM     22  C   UNL     1       2.964   3.980  20.167  0.00  0.00    +0.000 A 
ATOM     23  C   UNL     1       1.736   3.587  20.701  0.00  0.00    +0.000 A 
ATOM     24  C   UNL     1       0.794   2.945  19.892  0.00  0.00    +0.000 A 
ATOM     25  C   UNL     1       1.069   2.711  18.544  0.00  0.00    +0.000 A 
ATOM     26  C   UNL     1       2.294   3.100  18.002  0.00  0.00    +0.000 A 
ENDBRANCH  18  21
ENDBRANCH  16  18
ENDBRANCH  15  16
ENDBRANCH  14  15
ENDBRANCH   1  14
TORSDOF 8
ENDMDL
MODEL 7
REMARK VINA RESULT:      -6.7      3.374      8.079
REMARK  Name = 
REMARK  9 active torsions:
REMARK  status: ('A' for Active; 'I' for Inactive)
REMARK    1  A    between atoms: C_1  and  C_2
REMARK    2  A    between atoms: C_2  and  O_3
REMARK    3  A    between atoms: O_3  and  C_4
REMARK    4  A    between atoms: C_9  and  S_10
REMARK    5  A    between atoms: S_10  and  C_11
REMARK    6  A    between atoms: C_11  and  C_12
REMARK    7  A    between atoms: C_12  and  N_13
REMARK    8  A    between atoms: N_13  and  S_14
REMARK    9  A    between atoms: S_14  and  C_17
REMARK                            x       y       z     vdW  Elec       q    Type
REMARK                         _______ _______ _______ _____ _____    ______ ____
ROOT
ATOM      1  S   UNL     1       3.211   3.097  19.287  0.00  0.00    +0.000 S 
ENDROOT
BRANCH   1   7
ATOM      2  C   UNL     1       1.333   9.294  19.730  0.00  0.00    +0.000 A 
ATOM      3  C   UNL     1       1.788   9.180  18.415  0.00  0.00    +0.000 A 
ATOM      4  C   UNL     1       2.279   7.964  17.931  0.00  0.00    +0.000 A 
ATOM      5  C   UNL     1       2.316   6.835  18.767  0.00  0.00    +0.000 A 
ATOM      6  N   UNL     1       2.776   5.581  18.400  0.00  0.00    +0.000 NA
ATOM      7  C   UNL     1       2.669   4.762  19.419  0.00  0.00    +0.000 A 
ATOM      8  S   UNL     1       2.020   5.424  20.858  0.00  0.00    +0.000 S 
ATOM      9  C   UNL     1       1.859   6.956  20.078  0.00  0.00    +0.000 A 
ATOM     10  C   UNL     1       1.365   8.179  20.579  0.00  0.00    +0.000 A 
BRANCH   2  11
ATOM     11  O   UNL     1       0.838  10.443  20.292  0.00  0.00    +0.000 OA
BRANCH  11  13
ATOM     12  C   UNL     1      -1.284  11.518  19.927  0.00  0.00    +0.000 C 
ATOM     13  C   UNL     1       0.131  11.327  19.417  0.00  0.00    +0.000 C 
ENDBRANCH  11  13
ENDBRANCH   2  11
ENDBRANCH   1   7
BRANCH   1  14
ATOM     14  C   UNL     1       3.708   3.035  17.525  0.00  0.00    +0.000 C 
BRANCH  14  15
ATOM     15  C   UNL     1       5.150   3.515  17.357  0.00  0.00    +0.000 C 
BRANCH  15  16
ATOM     16  N   UNL     1       5.224   4.807  16.643  0.00  0.00    +0.000 NA
ATOM     17  H   UNL     1       4.718   5.597  17.040  0.00  0.00    +0.000 HD
BRANCH  16  18
ATOM     18  S   UNL     1       6.785   5.294  16.183  0.00  0.00    +0.000 S 
ATOM     19  O   UNL     1       6.787   6.736  16.253  0.00  0.00    +0.000 OA
ATOM     20  O   UNL     1       7.740   4.495  16.920  0.00  0.00    +0.000 OA
BRANCH  18  21
ATOM     21  C   UNL     1       6.841   4.833  14.475  0.00  0.00    +0.000 A 
ATOM     22  C   UNL     1       5.975   3.842  14.005  0.00  0.00    +0.000 A 
ATOM     23  C   UNL     1       6.036   3.460  12.664  0.00  0.00    +0.000 A 
ATOM     24  C   UNL     1       6.948   4.074  11.802  0.00  0.00    +0.000 A 
ATOM     25  C   UNL     1       7.790   5.083  12.271  0.00  0.00    +0.000 A 
ATOM     26  C   UNL     1       7.736   5.471  13.610  0.00  0.00    +0.000 A 
ENDBRANCH  18  21
ENDBRANCH  16  18
ENDBRANCH  15  16
ENDBRANCH  14  15
ENDBRANCH   1  14
TORSDOF 8
ENDMDL
MODEL 8
REMARK VINA RESULT:      -6.6      5.013      9.823
REMARK  Name = 
REMARK  9 active torsions:
REMARK  status: ('A' for Active; 'I' for Inactive)
REMARK    1  A    between atoms: C_1  and  C_2
REMARK    2  A    between atoms: C_2  and  O_3
REMARK    3  A    between atoms: O_3  and  C_4
REMARK    4  A    between atoms: C_9  and  S_10
REMARK    5  A    between atoms: S_10  and  C_11
REMARK    6  A    between atoms: C_11  and  C_12
REMARK    7  A    between atoms: C_12  and  N_13
REMARK    8  A    between atoms: N_13  and  S_14
REMARK    9  A    between atoms: S_14  and  C_17
REMARK                            x       y       z     vdW  Elec       q    Type
REMARK                         _______ _______ _______ _____ _____    ______ ____
ROOT
ATOM      1  S   UNL     1       2.384   7.868  18.233  0.00  0.00    +0.000 S 
ENDROOT
BRANCH   1   7
ATOM      2  C   UNL     1      -0.999  11.308  22.574  0.00  0.00    +0.000 A 
ATOM      3  C   UNL     1      -0.618  10.166  23.281  0.00  0.00    +0.000 A 
ATOM      4  C   UNL     1       0.145   9.168  22.671  0.00  0.00    +0.000 A 
ATOM      5  C   UNL     1       0.544   9.305  21.330  0.00  0.00    +0.000 A 
ATOM      6  N   UNL     1       1.301   8.387  20.621  0.00  0.00    +0.000 NA
ATOM      7  C   UNL     1       1.491   8.828  19.401  0.00  0.00    +0.000 A 
ATOM      8  S   UNL     1       0.791  10.344  19.026  0.00  0.00    +0.000 S 
ATOM      9  C   UNL     1       0.162  10.448  20.630  0.00  0.00    +0.000 A 
ATOM     10  C   UNL     1      -0.613  11.461  21.235  0.00  0.00    +0.000 A 
BRANCH   2  11
ATOM     11  O   UNL     1      -1.747  12.337  23.087  0.00  0.00    +0.000 OA
BRANCH  11  13
ATOM     12  C   UNL     1      -1.855  14.518  24.097  0.00  0.00    +0.000 C 
ATOM     13  C   UNL     1      -1.127  13.626  23.110  0.00  0.00    +0.000 C 
ENDBRANCH  11  13
ENDBRANCH   2  11
ENDBRANCH   1   7
BRANCH   1  14
ATOM     14  C   UNL     1       2.947   6.479  19.287  0.00  0.00    +0.000 C 
BRANCH  14  15
ATOM     15  C   UNL     1       2.145   5.214  18.981  0.00  0.00    +0.000 C 
BRANCH  15  16
ATOM     16  N   UNL     1       2.935   3.987  19.216  0.00  0.00    +0.000 NA
ATOM     17  H   UNL     1       2.624   3.358  19.954  0.00  0.00    +0.000 HD
BRANCH  16  18
ATOM     18  S   UNL     1       3.319   3.094  17.823  0.00  0.00    +0.000 S 
ATOM     19  O   UNL     1       3.681   1.774  18.284  0.00  0.00    +0.000 OA
ATOM     20  O   UNL     1       2.266   3.298  16.853  0.00  0.00    +0.000 OA
BRANCH  18  21
ATOM     21  C   UNL     1       4.792   3.893  17.252  0.00  0.00    +0.000 A 
ATOM     22  C   UNL     1       5.751   4.305  18.181  0.00  0.00    +0.000 A 
ATOM     23  C   UNL     1       6.901   4.957  17.734  0.00  0.00    +0.000 A 
ATOM     24  C   UNL     1       7.092   5.183  16.369  0.00  0.00    +0.000 A 
ATOM     25  C   UNL     1       6.144   4.743  15.444  0.00  0.00    +0.000 A 
ATOM     26  C   UNL     1       4.992   4.090  15.882  0.00  0.00    +0.000 A 
ENDBRANCH  18  21
ENDBRANCH  16  18
ENDBRANCH  15  16
ENDBRANCH  14  15
ENDBRANCH   1  14
TORSDOF 8
ENDMDL
MODEL 9
REMARK VINA RESULT:      -6.6      3.751      8.546
REMARK  Name = 
REMARK  9 active torsions:
REMARK  status: ('A' for Active; 'I' for Inactive)
REMARK    1  A    between atoms: C_1  and  C_2
REMARK    2  A    between atoms: C_2  and  O_3
REMARK    3  A    between atoms: O_3  and  C_4
REMARK    4  A    between atoms: C_9  and  S_10
REMARK    5  A    between atoms: S_10  and  C_11
REMARK    6  A    between atoms: C_11  and  C_12
REMARK    7  A    between atoms: C_12  and  N_13
REMARK    8  A    between atoms: N_13  and  S_14
REMARK    9  A    between atoms: S_14  and  C_17
REMARK                            x       y       z     vdW  Elec       q    Type
REMARK                         _______ _______ _______ _____ _____    ______ ____
ROOT
ATOM      1  S   UNL     1       3.104   3.902  19.365  0.00  0.00    +0.000 S 
ENDROOT
BRANCH   1   7
ATOM      2  C   UNL     1       0.998  10.030  19.744  0.00  0.00    +0.000 A 
ATOM      3  C   UNL     1       0.693   9.497  20.999  0.00  0.00    +0.000 A 
ATOM      4  C   UNL     1       1.006   8.171  21.308  0.00  0.00    +0.000 A 
ATOM      5  C   UNL     1       1.639   7.354  20.355  0.00  0.00    +0.000 A 
ATOM      6  N   UNL     1       1.999   6.031  20.547  0.00  0.00    +0.000 NA
ATOM      7  C   UNL     1       2.568   5.572  19.458  0.00  0.00    +0.000 A 
ATOM      8  S   UNL     1       2.710   6.673  18.155  0.00  0.00    +0.000 S 
ATOM      9  C   UNL     1       1.942   7.892  19.105  0.00  0.00    +0.000 A 
ATOM     10  C   UNL     1       1.627   9.230  18.780  0.00  0.00    +0.000 A 
BRANCH   2  11
ATOM     11  O   UNL     1       0.729  11.316  19.350  0.00  0.00    +0.000 OA
BRANCH  11  13
ATOM     12  C   UNL     1       0.390  13.215  20.788  0.00  0.00    +0.000 C 
ATOM     13  C   UNL     1      -0.256  12.022  20.111  0.00  0.00    +0.000 C 
ENDBRANCH  11  13
ENDBRANCH   2  11
ENDBRANCH   1   7
BRANCH   1  14
ATOM     14  C   UNL     1       4.901   4.132  19.092  0.00  0.00    +0.000 C 
BRANCH  14  15
ATOM     15  C   UNL     1       5.262   3.854  17.632  0.00  0.00    +0.000 C 
BRANCH  15  16
ATOM     16  N   UNL     1       5.587   5.094  16.897  0.00  0.00    +0.000 NA
ATOM     17  H   UNL     1       5.315   5.980  17.319  0.00  0.00    +0.000 HD
BRANCH  16  18
ATOM     18  S   UNL     1       7.181   5.197  16.319  0.00  0.00    +0.000 S 
ATOM     19  O   UNL     1       7.538   6.595  16.386  0.00  0.00    +0.000 OA
ATOM     20  O   UNL     1       7.966   4.179  16.982  0.00  0.00    +0.000 OA
BRANCH  18  21
ATOM     21  C   UNL     1       6.997   4.765  14.612  0.00  0.00    +0.000 A 
ATOM     22  C   UNL     1       6.045   3.810  14.247  0.00  0.00    +0.000 A 
ATOM     23  C   UNL     1       5.916   3.450  12.905  0.00  0.00    +0.000 A 
ATOM     24  C   UNL     1       6.726   4.050  11.938  0.00  0.00    +0.000 A 
ATOM     25  C   UNL     1       7.655   5.025  12.306  0.00  0.00    +0.000 A 
ATOM     26  C   UNL     1       7.791   5.390  13.645  0.00  0.00    +0.000 A 
ENDBRANCH  18  21
ENDBRANCH  16  18
ENDBRANCH  15  16
ENDBRANCH  14  15
ENDBRANCH   1  14
TORSDOF 8
ENDMDL
