MODEL 1
REMARK VINA RESULT:      -8.3      0.000      0.000
REMARK  Name = 
REMARK  2 active torsions:
REMARK  status: ('A' for Active; 'I' for Inactive)
REMARK    1  A    between atoms: C_1  and  N_2
REMARK    2  A    between atoms: C_18  and  O_19
REMARK                            x       y       z     vdW  Elec       q    Type
REMARK                         _______ _______ _______ _____ _____    ______ ____
ROOT
ATOM      1  C   UNL     1       1.476   2.742  21.066  0.00  0.00    +0.000 C 
ATOM      2  N   UNL     1       2.495   3.296  20.167  0.00  0.00    +0.000 NA
ATOM      3  C   UNL     1       2.695   2.356  19.051  0.00  0.00    +0.000 C 
ATOM      4  C   UNL     1       3.836   2.781  18.129  0.00  0.00    +0.000 C 
ATOM      5  C   UNL     1       3.824   4.248  17.795  0.00  0.00    +0.000 A 
ATOM      6  C   UNL     1       4.665   4.712  16.781  0.00  0.00    +0.000 A 
ATOM      7  C   UNL     1       4.740   6.068  16.509  0.00  0.00    +0.000 A 
ATOM      8  C   UNL     1       3.966   6.969  17.242  0.00  0.00    +0.000 A 
ATOM      9  C   UNL     1       3.075   6.547  18.246  0.00  0.00    +0.000 A 
ATOM     10  C   UNL     1       3.040   5.155  18.544  0.00  0.00    +0.000 A 
ATOM     11  C   UNL     1       2.107   4.641  19.642  0.00  0.00    +0.000 C 
ATOM     12  C   UNL     1       2.064   5.683  20.783  0.00  0.00    +0.000 C 
ATOM     13  C   UNL     1       1.739   7.075  20.286  0.00  0.00    +0.000 A 
ATOM     14  C   UNL     1       0.994   7.936  21.115  0.00  0.00    +0.000 A 
ATOM     15  C   UNL     1       0.701   9.229  20.703  0.00  0.00    +0.000 A 
ATOM     16  C   UNL     1       1.144   9.663  19.461  0.00  0.00    +0.000 A 
ATOM     17 BR   UNL     1       0.725  11.436  18.920  0.00  0.00    +0.000 Br
ATOM     18  C   UNL     1       1.891   8.813  18.627  0.00  0.00    +0.000 A 
ATOM     19  C   UNL     1       2.234   7.502  19.030  0.00  0.00    +0.000 A 
ENDROOT
BRANCH  18  20
ATOM     20  O   UNL     1       2.267   9.279  17.390  0.00  0.00    +0.000 OA
ATOM     21  H   UNL     1       3.194   9.569  17.451  0.00  0.00    +0.000 HD
ENDBRANCH  18  20
TORSDOF 1
ENDMDL
MODEL 2
REMARK VINA RESULT:      -7.8      1.852      3.522
REMARK  Name = 
REMARK  2 active torsions:
REMARK  status: ('A' for Active; 'I' for Inactive)
REMARK    1  A    between atoms: C_1  and  N_2
REMARK    2  A    between atoms: C_18  and  O_19
REMARK                            x       y       z     vdW  Elec       q    Type
REMARK                         _______ _______ _______ _____ _____    ______ ____
ROOT
ATOM      1  C   UNL     1       5.824   6.180  16.285  0.00  0.00    +0.000 C 
ATOM      2  N   UNL     1       4.903   5.440  17.155  0.00  0.00    +0.000 NA
ATOM      3  C   UNL     1       5.674   4.434  17.905  0.00  0.00    +0.000 C 
ATOM      4  C   UNL     1       4.782   3.519  18.741  0.00  0.00    +0.000 C 
ATOM      5  C   UNL     1       3.703   4.254  19.490  0.00  0.00    +0.000 A 
ATOM      6  C   UNL     1       2.978   3.567  20.467  0.00  0.00    +0.000 A 
ATOM      7  C   UNL     1       1.923   4.188  21.112  0.00  0.00    +0.000 A 
ATOM      8  C   UNL     1       1.591   5.507  20.793  0.00  0.00    +0.000 A 
ATOM      9  C   UNL     1       2.315   6.253  19.845  0.00  0.00    +0.000 A 
ATOM     10  C   UNL     1       3.371   5.587  19.159  0.00  0.00    +0.000 A 
ATOM     11  C   UNL     1       4.178   6.342  18.101  0.00  0.00    +0.000 C 
ATOM     12  C   UNL     1       3.227   7.289  17.335  0.00  0.00    +0.000 C 
ATOM     13  C   UNL     1       2.423   8.177  18.261  0.00  0.00    +0.000 A 
ATOM     14  C   UNL     1       2.090   9.477  17.836  0.00  0.00    +0.000 A 
ATOM     15  C   UNL     1       1.331  10.309  18.647  0.00  0.00    +0.000 A 
ATOM     16  C   UNL     1       0.908   9.848  19.886  0.00  0.00    +0.000 A 
ATOM     17 BR   UNL     1      -0.126  11.010  20.978  0.00  0.00    +0.000 Br
ATOM     18  C   UNL     1       1.232   8.551  20.319  0.00  0.00    +0.000 A 
ATOM     19  C   UNL     1       1.976   7.667  19.504  0.00  0.00    +0.000 A 
ENDROOT
BRANCH  18  20
ATOM     20  O   UNL     1       0.825   8.162  21.573  0.00  0.00    +0.000 OA
ATOM     21  H   UNL     1       1.412   8.589  22.221  0.00  0.00    +0.000 HD
ENDBRANCH  18  20
TORSDOF 1
ENDMDL
MODEL 3
REMARK VINA RESULT:      -7.4      3.635      7.168
REMARK  Name = 
REMARK  2 active torsions:
REMARK  status: ('A' for Active; 'I' for Inactive)
REMARK    1  A    between atoms: C_1  and  N_2
REMARK    2  A    between atoms: C_18  and  O_19
REMARK                            x       y       z     vdW  Elec       q    Type
REMARK                         _______ _______ _______ _____ _____    ______ ____
ROOT
ATOM      1  C   UNL     1      -1.243  12.415  17.716  0.00  0.00    +0.000 C 
ATOM      2  N   UNL     1      -0.902  12.109  19.109  0.00  0.00    +0.000 NA
ATOM      3  C   UNL     1      -2.109  12.280  19.935  0.00  0.00    +0.000 C 
ATOM      4  C   UNL     1      -1.824  12.115  21.426  0.00  0.00    +0.000 C 
ATOM      5  C   UNL     1      -0.939  10.939  21.741  0.00  0.00    +0.000 A 
ATOM      6  C   UNL     1      -0.799  10.543  23.074  0.00  0.00    +0.000 A 
ATOM      7  C   UNL     1       0.074   9.521  23.406  0.00  0.00    +0.000 A 
ATOM      8  C   UNL     1       0.807   8.880  22.405  0.00  0.00    +0.000 A 
ATOM      9  C   UNL     1       0.672   9.216  21.045  0.00  0.00    +0.000 A 
ATOM     10  C   UNL     1      -0.197  10.297  20.724  0.00  0.00    +0.000 A 
ATOM     11  C   UNL     1      -0.366  10.723  19.264  0.00  0.00    +0.000 C 
ATOM     12  C   UNL     1       0.995  10.578  18.546  0.00  0.00    +0.000 C 
ATOM     13  C   UNL     1       1.607   9.206  18.732  0.00  0.00    +0.000 A 
ATOM     14  C   UNL     1       2.374   8.656  17.687  0.00  0.00    +0.000 A 
ATOM     15  C   UNL     1       2.973   7.413  17.833  0.00  0.00    +0.000 A 
ATOM     16  C   UNL     1       2.802   6.712  19.019  0.00  0.00    +0.000 A 
ATOM     17 BR   UNL     1       3.628   5.009  19.191  0.00  0.00    +0.000 Br
ATOM     18  C   UNL     1       2.040   7.252  20.069  0.00  0.00    +0.000 A 
ATOM     19  C   UNL     1       1.444   8.530  19.965  0.00  0.00    +0.000 A 
ENDROOT
BRANCH  18  20
ATOM     20  O   UNL     1       1.866   6.496  21.204  0.00  0.00    +0.000 OA
ATOM     21  H   UNL     1       1.000   6.057  21.139  0.00  0.00    +0.000 HD
ENDBRANCH  18  20
TORSDOF 1
ENDMDL
MODEL 4
REMARK VINA RESULT:      -6.7      2.811      5.167
REMARK  Name = 
REMARK  2 active torsions:
REMARK  status: ('A' for Active; 'I' for Inactive)
REMARK    1  A    between atoms: C_1  and  N_2
REMARK    2  A    between atoms: C_18  and  O_19
REMARK                            x       y       z     vdW  Elec       q    Type
REMARK                         _______ _______ _______ _____ _____    ______ ____
ROOT
ATOM      1  C   UNL     1       2.629   2.445  20.628  0.00  0.00    +0.000 C 
ATOM      2  N   UNL     1       2.278   3.759  20.075  0.00  0.00    +0.000 NA
ATOM      3  C   UNL     1       2.066   4.695  21.192  0.00  0.00    +0.000 C 
ATOM      4  C   UNL     1       1.564   6.058  20.723  0.00  0.00    +0.000 C 
ATOM      5  C   UNL     1       2.294   6.584  19.517  0.00  0.00    +0.000 A 
ATOM      6  C   UNL     1       2.093   7.914  19.138  0.00  0.00    +0.000 A 
ATOM      7  C   UNL     1       2.682   8.403  17.985  0.00  0.00    +0.000 A 
ATOM      8  C   UNL     1       3.487   7.569  17.207  0.00  0.00    +0.000 A 
ATOM      9  C   UNL     1       3.752   6.235  17.567  0.00  0.00    +0.000 A 
ATOM     10  C   UNL     1       3.105   5.733  18.732  0.00  0.00    +0.000 A 
ATOM     11  C   UNL     1       3.337   4.282  19.160  0.00  0.00    +0.000 C 
ATOM     12  C   UNL     1       3.449   3.405  17.892  0.00  0.00    +0.000 C 
ATOM     13  C   UNL     1       4.466   3.938  16.906  0.00  0.00    +0.000 A 
ATOM     14  C   UNL     1       5.199   3.024  16.125  0.00  0.00    +0.000 A 
ATOM     15  C   UNL     1       6.120   3.477  15.190  0.00  0.00    +0.000 A 
ATOM     16  C   UNL     1       6.317   4.843  15.038  0.00  0.00    +0.000 A 
ATOM     17 BR   UNL     1       7.587   5.436  13.755  0.00  0.00    +0.000 Br
ATOM     18  C   UNL     1       5.589   5.764  15.810  0.00  0.00    +0.000 A 
ATOM     19  C   UNL     1       4.620   5.336  16.748  0.00  0.00    +0.000 A 
ENDROOT
BRANCH  18  20
ATOM     20  O   UNL     1       5.855   7.103  15.650  0.00  0.00    +0.000 OA
ATOM     21  H   UNL     1       5.409   7.582  16.371  0.00  0.00    +0.000 HD
ENDBRANCH  18  20
TORSDOF 1
ENDMDL
MODEL 5
REMARK VINA RESULT:      -6.4      3.307      5.588
REMARK  Name = 
REMARK  2 active torsions:
REMARK  status: ('A' for Active; 'I' for Inactive)
REMARK    1  A    between atoms: C_1  and  N_2
REMARK    2  A    between atoms: C_18  and  O_19
REMARK                            x       y       z     vdW  Elec       q    Type
REMARK                         _______ _______ _______ _____ _____    ______ ____
ROOT
ATOM      1  C   UNL     1       1.683   8.042  19.542  0.00  0.00    +0.000 C 
ATOM      2  N   UNL     1       2.334   6.789  19.942  0.00  0.00    +0.000 NA
ATOM      3  C   UNL     1       1.360   5.972  20.686  0.00  0.00    +0.000 C 
ATOM      4  C   UNL     1       1.983   4.704  21.263  0.00  0.00    +0.000 C 
ATOM      5  C   UNL     1       2.885   3.984  20.297  0.00  0.00    +0.000 A 
ATOM      6  C   UNL     1       3.323   2.697  20.619  0.00  0.00    +0.000 A 
ATOM      7  C   UNL     1       4.221   2.043  19.793  0.00  0.00    +0.000 A 
ATOM      8  C   UNL     1       4.680   2.668  18.631  0.00  0.00    +0.000 A 
ATOM      9  C   UNL     1       4.239   3.947  18.244  0.00  0.00    +0.000 A 
ATOM     10  C   UNL     1       3.348   4.624  19.124  0.00  0.00    +0.000 A 
ATOM     11  C   UNL     1       2.853   6.027  18.766  0.00  0.00    +0.000 C 
ATOM     12  C   UNL     1       4.002   6.797  18.077  0.00  0.00    +0.000 C 
ATOM     13  C   UNL     1       4.602   6.029  16.919  0.00  0.00    +0.000 A 
ATOM     14  C   UNL     1       5.087   6.745  15.807  0.00  0.00    +0.000 A 
ATOM     15  C   UNL     1       5.668   6.076  14.739  0.00  0.00    +0.000 A 
ATOM     16  C   UNL     1       5.761   4.691  14.774  0.00  0.00    +0.000 A 
ATOM     17 BR   UNL     1       6.557   3.801  13.296  0.00  0.00    +0.000 Br
ATOM     18  C   UNL     1       5.283   3.967  15.879  0.00  0.00    +0.000 A 
ATOM     19  C   UNL     1       4.715   4.620  16.998  0.00  0.00    +0.000 A 
ENDROOT
BRANCH  18  20
ATOM     20  O   UNL     1       5.361   2.595  15.843  0.00  0.00    +0.000 OA
ATOM     21  H   UNL     1       6.248   2.356  15.520  0.00  0.00    +0.000 HD
ENDBRANCH  18  20
TORSDOF 1
ENDMDL
MODEL 6
REMARK VINA RESULT:      -6.3      3.198      5.316
REMARK  Name = 
REMARK  2 active torsions:
REMARK  status: ('A' for Active; 'I' for Inactive)
REMARK    1  A    between atoms: C_1  and  N_2
REMARK    2  A    between atoms: C_18  and  O_19
REMARK                            x       y       z     vdW  Elec       q    Type
REMARK                         _______ _______ _______ _____ _____    ______ ____
ROOT
ATOM      1  C   UNL     1       1.762   7.471  20.423  0.00  0.00    +0.000 C 
ATOM      2  N   UNL     1       2.069   6.038  20.358  0.00  0.00    +0.000 NA
ATOM      3  C   UNL     1       0.810   5.283  20.483  0.00  0.00    +0.000 C 
ATOM      4  C   UNL     1       1.039   3.776  20.561  0.00  0.00    +0.000 C 
ATOM      5  C   UNL     1       2.045   3.269  19.564  0.00  0.00    +0.000 A 
ATOM      6  C   UNL     1       2.166   1.890  19.375  0.00  0.00    +0.000 A 
ATOM      7  C   UNL     1       3.141   1.389  18.529  0.00  0.00    +0.000 A 
ATOM      8  C   UNL     1       3.995   2.264  17.856  0.00  0.00    +0.000 A 
ATOM      9  C   UNL     1       3.888   3.662  17.984  0.00  0.00    +0.000 A 
ATOM     10  C   UNL     1       2.909   4.161  18.889  0.00  0.00    +0.000 A 
ATOM     11  C   UNL     1       2.763   5.671  19.086  0.00  0.00    +0.000 C 
ATOM     12  C   UNL     1       4.165   6.317  19.021  0.00  0.00    +0.000 C 
ATOM     13  C   UNL     1       4.930   5.919  17.777  0.00  0.00    +0.000 A 
ATOM     14  C   UNL     1       5.811   6.850  17.193  0.00  0.00    +0.000 A 
ATOM     15  C   UNL     1       6.549   6.510  16.068  0.00  0.00    +0.000 A 
ATOM     16  C   UNL     1       6.407   5.242  15.520  0.00  0.00    +0.000 A 
ATOM     17 BR   UNL     1       7.426   4.805  13.977  0.00  0.00    +0.000 Br
ATOM     18  C   UNL     1       5.533   4.305  16.096  0.00  0.00    +0.000 A 
ATOM     19  C   UNL     1       4.791   4.608  17.260  0.00  0.00    +0.000 A 
ENDROOT
BRANCH  18  20
ATOM     20  O   UNL     1       5.398   3.080  15.487  0.00  0.00    +0.000 OA
ATOM     21  H   UNL     1       6.051   2.477  15.883  0.00  0.00    +0.000 HD
ENDBRANCH  18  20
TORSDOF 1
ENDMDL
MODEL 7
REMARK VINA RESULT:      -6.1      7.906      9.523
REMARK  Name = 
REMARK  2 active torsions:
REMARK  status: ('A' for Active; 'I' for Inactive)
REMARK    1  A    between atoms: C_1  and  N_2
REMARK    2  A    between atoms: C_18  and  O_19
REMARK                            x       y       z     vdW  Elec       q    Type
REMARK                         _______ _______ _______ _____ _____    ______ ____
ROOT
ATOM      1  C   UNL     1      -5.214  13.236  23.840  0.00  0.00    +0.000 C 
ATOM      2  N   UNL     1      -5.351  12.525  22.564  0.00  0.00    +0.000 NA
ATOM      3  C   UNL     1      -6.657  12.869  21.975  0.00  0.00    +0.000 C 
ATOM      4  C   UNL     1      -6.952  12.073  20.706  0.00  0.00    +0.000 C 
ATOM      5  C   UNL     1      -5.779  11.982  19.767  0.00  0.00    +0.000 A 
ATOM      6  C   UNL     1      -5.990  11.489  18.477  0.00  0.00    +0.000 A 
ATOM      7  C   UNL     1      -4.918  11.313  17.619  0.00  0.00    +0.000 A 
ATOM      8  C   UNL     1      -3.627  11.640  18.041  0.00  0.00    +0.000 A 
ATOM      9  C   UNL     1      -3.369  12.176  19.317  0.00  0.00    +0.000 A 
ATOM     10  C   UNL     1      -4.476  12.311  20.203  0.00  0.00    +0.000 A 
ATOM     11  C   UNL     1      -4.252  12.867  21.611  0.00  0.00    +0.000 C 
ATOM     12  C   UNL     1      -2.892  12.353  22.135  0.00  0.00    +0.000 C 
ATOM     13  C   UNL     1      -1.759  12.621  21.168  0.00  0.00    +0.000 A 
ATOM     14  C   UNL     1      -0.476  12.893  21.683  0.00  0.00    +0.000 A 
ATOM     15  C   UNL     1       0.593  13.116  20.826  0.00  0.00    +0.000 A 
ATOM     16  C   UNL     1       0.383  13.075  19.454  0.00  0.00    +0.000 A 
ATOM     17 BR   UNL     1       1.863  13.388  18.304  0.00  0.00    +0.000 Br
ATOM     18  C   UNL     1      -0.891  12.802  18.930  0.00  0.00    +0.000 A 
ATOM     19  C   UNL     1      -1.994  12.538  19.775  0.00  0.00    +0.000 A 
ENDROOT
BRANCH  18  20
ATOM     20  O   UNL     1      -1.052  12.817  17.565  0.00  0.00    +0.000 OA
ATOM     21  H   UNL     1      -1.957  13.121  17.376  0.00  0.00    +0.000 HD
ENDBRANCH  18  20
TORSDOF 1
ENDMDL
MODEL 8
REMARK VINA RESULT:      -6.1      9.622     11.123
REMARK  Name = 
REMARK  2 active torsions:
REMARK  status: ('A' for Active; 'I' for Inactive)
REMARK    1  A    between atoms: C_1  and  N_2
REMARK    2  A    between atoms: C_18  and  O_19
REMARK                            x       y       z     vdW  Elec       q    Type
REMARK                         _______ _______ _______ _____ _____    ______ ____
ROOT
ATOM      1  C   UNL     1       9.118  17.742  18.159  0.00  0.00    +0.000 C 
ATOM      2  N   UNL     1       9.460  16.354  17.826  0.00  0.00    +0.000 NA
ATOM      3  C   UNL     1      10.808  16.333  17.234  0.00  0.00    +0.000 C 
ATOM      4  C   UNL     1      11.202  14.947  16.729  0.00  0.00    +0.000 C 
ATOM      5  C   UNL     1      10.857  13.839  17.688  0.00  0.00    +0.000 A 
ATOM      6  C   UNL     1      11.374  12.563  17.452  0.00  0.00    +0.000 A 
ATOM      7  C   UNL     1      11.007  11.504  18.266  0.00  0.00    +0.000 A 
ATOM      8  C   UNL     1      10.127  11.717  19.329  0.00  0.00    +0.000 A 
ATOM      9  C   UNL     1       9.609  12.990  19.630  0.00  0.00    +0.000 A 
ATOM     10  C   UNL     1       9.963  14.060  18.760  0.00  0.00    +0.000 A 
ATOM     11  C   UNL     1       9.411  15.463  19.025  0.00  0.00    +0.000 C 
ATOM     12  C   UNL     1       7.965  15.334  19.555  0.00  0.00    +0.000 C 
ATOM     13  C   UNL     1       7.860  14.387  20.731  0.00  0.00    +0.000 A 
ATOM     14  C   UNL     1       6.908  14.652  21.734  0.00  0.00    +0.000 A 
ATOM     15  C   UNL     1       6.765  13.790  22.813  0.00  0.00    +0.000 A 
ATOM     16  C   UNL     1       7.575  12.666  22.896  0.00  0.00    +0.000 A 
ATOM     17 BR   UNL     1       7.361  11.507  24.386  0.00  0.00    +0.000 Br
ATOM     18  C   UNL     1       8.526  12.391  21.900  0.00  0.00    +0.000 A 
ATOM     19  C   UNL     1       8.676  13.231  20.772  0.00  0.00    +0.000 A 
ENDROOT
BRANCH  18  20
ATOM     20  O   UNL     1       9.332  11.288  22.055  0.00  0.00    +0.000 OA
ATOM     21  H   UNL     1       8.781  10.497  21.927  0.00  0.00    +0.000 HD
ENDBRANCH  18  20
TORSDOF 1
ENDMDL
MODEL 9
REMARK VINA RESULT:      -6.0      9.213     10.589
REMARK  Name = 
REMARK  2 active torsions:
REMARK  status: ('A' for Active; 'I' for Inactive)
REMARK    1  A    between atoms: C_1  and  N_2
REMARK    2  A    between atoms: C_18  and  O_19
REMARK                            x       y       z     vdW  Elec       q    Type
REMARK                         _______ _______ _______ _____ _____    ______ ____
ROOT
ATOM      1  C   UNL     1       9.166  17.090  18.587  0.00  0.00    +0.000 C 
ATOM      2  N   UNL     1       9.292  15.646  18.360  0.00  0.00    +0.000 NA
ATOM      3  C   UNL     1      10.591  15.384  17.718  0.00  0.00    +0.000 C 
ATOM      4  C   UNL     1      10.759  13.920  17.318  0.00  0.00    +0.000 C 
ATOM      5  C   UNL     1      10.311  12.952  18.380  0.00  0.00    +0.000 A 
ATOM      6  C   UNL     1      10.631  11.600  18.232  0.00  0.00    +0.000 A 
ATOM      7  C   UNL     1      10.161  10.672  19.146  0.00  0.00    +0.000 A 
ATOM      8  C   UNL     1       9.375  11.092  20.221  0.00  0.00    +0.000 A 
ATOM      9  C   UNL     1       9.058  12.447  20.434  0.00  0.00    +0.000 A 
ATOM     10  C   UNL     1       9.514  13.383  19.463  0.00  0.00    +0.000 A 
ATOM     11  C   UNL     1       9.180  14.867  19.631  0.00  0.00    +0.000 C 
ATOM     12  C   UNL     1       7.759  14.991  20.226  0.00  0.00    +0.000 C 
ATOM     13  C   UNL     1       7.581  14.163  21.481  0.00  0.00    +0.000 A 
ATOM     14  C   UNL     1       6.729  14.640  22.495  0.00  0.00    +0.000 A 
ATOM     15  C   UNL     1       6.521  13.895  23.647  0.00  0.00    +0.000 A 
ATOM     16  C   UNL     1       7.168  12.676  23.794  0.00  0.00    +0.000 A 
ATOM     17 BR   UNL     1       6.869  11.679  25.383  0.00  0.00    +0.000 Br
ATOM     18  C   UNL     1       8.019  12.189  22.787  0.00  0.00    +0.000 A 
ATOM     19  C   UNL     1       8.227  12.908  21.587  0.00  0.00    +0.000 A 
ENDROOT
BRANCH  18  20
ATOM     20  O   UNL     1       8.669  10.997  23.003  0.00  0.00    +0.000 OA
ATOM     21  H   UNL     1       8.463  10.407  22.256  0.00  0.00    +0.000 HD
ENDBRANCH  18  20
TORSDOF 1
ENDMDL
