MODEL 1
REMARK VINA RESULT:      -7.1      0.000      0.000
REMARK  Name = 
REMARK  10 active torsions:
REMARK  status: ('A' for Active; 'I' for Inactive)
REMARK    1  A    between atoms: CE_1  and  SD_2
REMARK    2  A    between atoms: SD_2  and  CG_3
REMARK    3  A    between atoms: CG_3  and  CB_4
REMARK    4  A    between atoms: CB_4  and  CA_5
REMARK    5  A    between atoms: CA_5  and  N_6
REMARK    6  A    between atoms: CA_5  and  C_21
REMARK    7  A    between atoms: C_7  and  C_9
REMARK    8  A    between atoms: C_11  and  C_12
REMARK    9  A    between atoms: C_19  and  C_20
REMARK   10  A    between atoms: C_21  and  OXT_23
REMARK                            x       y       z     vdW  Elec       q    Type
REMARK                         _______ _______ _______ _____ _____    ______ ____
ROOT
ATOM      1  N   MET A   1       3.648   6.009  18.758  0.00  0.00    +0.000 N 
ATOM      2  C   UNK A   0       4.940   5.541  18.785  0.00  0.00    +0.000 C 
ATOM      3  O   UNK A   0       5.485   5.283  19.856  0.00  0.00    +0.000 OA
ATOM      4  H   MET A   1       3.263   6.358  17.893  0.00  0.00    +0.000 HD
ENDROOT
BRANCH   2   5
ATOM      5  C   UNK A   0       5.614   5.448  17.503  0.00  0.00    +0.000 A 
ATOM      6  C   UNK A   0       5.279   4.697  16.336  0.00  0.00    +0.000 A 
ATOM      7  C   UNK A   0       6.239   4.965  15.380  0.00  0.00    +0.000 A 
ATOM      8  O   UNK A   0       7.150   5.840  15.896  0.00  0.00    +0.000 OA
ATOM      9  C   UNK A   0       6.772   6.133  17.169  0.00  0.00    +0.000 A 
ATOM     10  C   UNK A   0       7.642   7.079  17.903  0.00  0.00    +0.000 C 
BRANCH   7  11
ATOM     11  C   UNK A   0       6.457   4.530  14.001  0.00  0.00    +0.000 A 
ATOM     12  C   UNK A   0       7.489   5.086  13.231  0.00  0.00    +0.000 A 
ATOM     13  C   UNK A   0       7.707   4.673  11.913  0.00  0.00    +0.000 A 
ATOM     14  C   UNK A   0       6.894   3.696  11.345  0.00  0.00    +0.000 A 
ATOM     15  C   UNK A   0       5.863   3.134  12.092  0.00  0.00    +0.000 A 
ATOM     16  C   UNK A   0       5.646   3.548  13.410  0.00  0.00    +0.000 A 
ENDBRANCH   7  11
ENDBRANCH   2   5
BRANCH   1  17
ATOM     17  CA  MET A   1       2.834   6.089  19.974  0.00  0.00    +0.000 C 
BRANCH  17  18
ATOM     18  C   MET A   1       2.095   7.441  20.039  0.00  0.00    +0.000 C 
ATOM     19  O   MET A   1       1.900   8.173  19.079  0.00  0.00    +0.000 OA
BRANCH  18  20
ATOM     20  OXT MET A   1       1.620   7.741  21.274  0.00  0.00    +0.000 OA
ATOM     21  HXT MET A   1       1.377   6.942  21.800  0.00  0.00    +0.000 HD
ENDBRANCH  18  20
ENDBRANCH  17  18
BRANCH  17  22
ATOM     22  CB  MET A   1       1.833   4.925  20.060  0.00  0.00    +0.000 C 
BRANCH  22  23
ATOM     23  CG  MET A   1       1.609   4.162  18.755  0.00  0.00    +0.000 C 
BRANCH  23  25
ATOM     24  CE  MET A   1       3.232   2.038  18.100  0.00  0.00    +0.000 C 
ATOM     25  SD  MET A   1       1.683   2.359  18.977  0.00  0.00    +0.000 S 
ENDBRANCH  23  25
ENDBRANCH  22  23
ENDBRANCH  17  22
ENDBRANCH   1  17
TORSDOF 8
ENDMDL
MODEL 2
REMARK VINA RESULT:      -7.1      3.438      6.390
REMARK  Name = 
REMARK  10 active torsions:
REMARK  status: ('A' for Active; 'I' for Inactive)
REMARK    1  A    between atoms: CE_1  and  SD_2
REMARK    2  A    between atoms: SD_2  and  CG_3
REMARK    3  A    between atoms: CG_3  and  CB_4
REMARK    4  A    between atoms: CB_4  and  CA_5
REMARK    5  A    between atoms: CA_5  and  N_6
REMARK    6  A    between atoms: CA_5  and  C_21
REMARK    7  A    between atoms: C_7  and  C_9
REMARK    8  A    between atoms: C_11  and  C_12
REMARK    9  A    between atoms: C_19  and  C_20
REMARK   10  A    between atoms: C_21  and  OXT_23
REMARK                            x       y       z     vdW  Elec       q    Type
REMARK                         _______ _______ _______ _____ _____    ______ ____
ROOT
ATOM      1  N   MET A   1       5.190   5.958  17.743  0.00  0.00    +0.000 N 
ATOM      2  C   UNK A   0       6.095   6.622  16.949  0.00  0.00    +0.000 C 
ATOM      3  O   UNK A   0       6.058   6.496  15.727  0.00  0.00    +0.000 OA
ATOM      4  H   MET A   1       5.320   5.949  18.744  0.00  0.00    +0.000 HD
ENDROOT
BRANCH   2   5
ATOM      5  C   UNK A   0       7.105   7.400  17.641  0.00  0.00    +0.000 A 
ATOM      6  C   UNK A   0       7.452   8.781  17.521  0.00  0.00    +0.000 A 
ATOM      7  C   UNK A   0       8.476   9.030  18.414  0.00  0.00    +0.000 A 
ATOM      8  O   UNK A   0       8.781   7.878  19.076  0.00  0.00    +0.000 OA
ATOM      9  C   UNK A   0       7.955   6.901  18.615  0.00  0.00    +0.000 A 
ATOM     10  C   UNK A   0       8.131   5.562  19.222  0.00  0.00    +0.000 C 
BRANCH   7  11
ATOM     11  C   UNK A   0       9.248  10.219  18.775  0.00  0.00    +0.000 A 
ATOM     12  C   UNK A   0       9.416  10.579  20.120  0.00  0.00    +0.000 A 
ATOM     13  C   UNK A   0      10.155  11.711  20.475  0.00  0.00    +0.000 A 
ATOM     14  C   UNK A   0      10.739  12.501  19.488  0.00  0.00    +0.000 A 
ATOM     15  C   UNK A   0      10.582  12.160  18.148  0.00  0.00    +0.000 A 
ATOM     16  C   UNK A   0       9.841  11.028  17.794  0.00  0.00    +0.000 A 
ENDBRANCH   7  11
ENDBRANCH   2   5
BRANCH   1  17
ATOM     17  CA  MET A   1       4.081   5.191  17.170  0.00  0.00    +0.000 C 
BRANCH  17  18
ATOM     18  C   MET A   1       4.441   3.694  17.098  0.00  0.00    +0.000 C 
ATOM     19  O   MET A   1       3.833   2.805  17.677  0.00  0.00    +0.000 OA
BRANCH  18  20
ATOM     20  OXT MET A   1       5.488   3.426  16.277  0.00  0.00    +0.000 OA
ATOM     21  HXT MET A   1       6.175   2.856  16.700  0.00  0.00    +0.000 HD
ENDBRANCH  18  20
ENDBRANCH  17  18
BRANCH  17  22
ATOM     22  CB  MET A   1       2.783   5.394  17.969  0.00  0.00    +0.000 C 
BRANCH  22  23
ATOM     23  CG  MET A   1       2.972   5.912  19.395  0.00  0.00    +0.000 C 
BRANCH  23  25
ATOM     24  CE  MET A   1       1.164   3.855  19.655  0.00  0.00    +0.000 C 
ATOM     25  SD  MET A   1       2.391   4.733  20.651  0.00  0.00    +0.000 S 
ENDBRANCH  23  25
ENDBRANCH  22  23
ENDBRANCH  17  22
ENDBRANCH   1  17
TORSDOF 8
ENDMDL
MODEL 3
REMARK VINA RESULT:      -6.9      3.452      7.178
REMARK  Name = 
REMARK  10 active torsions:
REMARK  status: ('A' for Active; 'I' for Inactive)
REMARK    1  A    between atoms: CE_1  and  SD_2
REMARK    2  A    between atoms: SD_2  and  CG_3
REMARK    3  A    between atoms: CG_3  and  CB_4
REMARK    4  A    between atoms: CB_4  and  CA_5
REMARK    5  A    between atoms: CA_5  and  N_6
REMARK    6  A    between atoms: CA_5  and  C_21
REMARK    7  A    between atoms: C_7  and  C_9
REMARK    8  A    between atoms: C_11  and  C_12
REMARK    9  A    between atoms: C_19  and  C_20
REMARK   10  A    between atoms: C_21  and  OXT_23
REMARK                            x       y       z     vdW  Elec       q    Type
REMARK                         _______ _______ _______ _____ _____    ______ ____
ROOT
ATOM      1  N   MET A   1       6.984   5.857  15.994  0.00  0.00    +0.000 N 
ATOM      2  C   UNK A   0       6.444   6.894  16.717  0.00  0.00    +0.000 C 
ATOM      3  O   UNK A   0       5.253   7.177  16.603  0.00  0.00    +0.000 OA
ATOM      4  H   MET A   1       7.985   5.728  15.981  0.00  0.00    +0.000 HD
ENDROOT
BRANCH   2   5
ATOM      5  C   UNK A   0       7.368   7.648  17.543  0.00  0.00    +0.000 A 
ATOM      6  C   UNK A   0       7.796   9.007  17.446  0.00  0.00    +0.000 A 
ATOM      7  C   UNK A   0       8.677   9.240  18.484  0.00  0.00    +0.000 A 
ATOM      8  O   UNK A   0       8.817   8.098  19.215  0.00  0.00    +0.000 OA
ATOM      9  C   UNK A   0       8.027   7.144  18.653  0.00  0.00    +0.000 A 
ATOM     10  C   UNK A   0       8.040   5.818  19.313  0.00  0.00    +0.000 C 
BRANCH   7  11
ATOM     11  C   UNK A   0       9.439  10.404  18.935  0.00  0.00    +0.000 A 
ATOM     12  C   UNK A   0      10.060  11.253  18.007  0.00  0.00    +0.000 A 
ATOM     13  C   UNK A   0      10.788  12.370  18.428  0.00  0.00    +0.000 A 
ATOM     14  C   UNK A   0      10.904  12.656  19.786  0.00  0.00    +0.000 A 
ATOM     15  C   UNK A   0      10.296  11.824  20.722  0.00  0.00    +0.000 A 
ATOM     16  C   UNK A   0       9.569  10.707  20.299  0.00  0.00    +0.000 A 
ENDBRANCH   7  11
ENDBRANCH   2   5
BRANCH   1  17
ATOM     17  CA  MET A   1       6.149   4.976  15.172  0.00  0.00    +0.000 C 
BRANCH  17  18
ATOM     18  C   MET A   1       6.851   4.662  13.836  0.00  0.00    +0.000 C 
ATOM     19  O   MET A   1       6.486   3.805  13.044  0.00  0.00    +0.000 OA
BRANCH  18  20
ATOM     20  OXT MET A   1       7.910   5.470  13.575  0.00  0.00    +0.000 OA
ATOM     21  HXT MET A   1       8.716   4.973  13.295  0.00  0.00    +0.000 HD
ENDBRANCH  18  20
ENDBRANCH  17  18
BRANCH  17  22
ATOM     22  CB  MET A   1       5.800   3.676  15.914  0.00  0.00    +0.000 C 
BRANCH  22  23
ATOM     23  CG  MET A   1       5.093   3.863  17.257  0.00  0.00    +0.000 C 
BRANCH  23  25
ATOM     24  CE  MET A   1       2.784   5.072  18.139  0.00  0.00    +0.000 C 
ATOM     25  SD  MET A   1       3.290   3.658  17.132  0.00  0.00    +0.000 S 
ENDBRANCH  23  25
ENDBRANCH  22  23
ENDBRANCH  17  22
ENDBRANCH   1  17
TORSDOF 8
ENDMDL
MODEL 4
REMARK VINA RESULT:      -6.8      0.341      1.060
REMARK  Name = 
REMARK  10 active torsions:
REMARK  status: ('A' for Active; 'I' for Inactive)
REMARK    1  A    between atoms: CE_1  and  SD_2
REMARK    2  A    between atoms: SD_2  and  CG_3
REMARK    3  A    between atoms: CG_3  and  CB_4
REMARK    4  A    between atoms: CB_4  and  CA_5
REMARK    5  A    between atoms: CA_5  and  N_6
REMARK    6  A    between atoms: CA_5  and  C_21
REMARK    7  A    between atoms: C_7  and  C_9
REMARK    8  A    between atoms: C_11  and  C_12
REMARK    9  A    between atoms: C_19  and  C_20
REMARK   10  A    between atoms: C_21  and  OXT_23
REMARK                            x       y       z     vdW  Elec       q    Type
REMARK                         _______ _______ _______ _____ _____    ______ ____
ROOT
ATOM      1  N   MET A   1       3.836   5.845  18.875  0.00  0.00    +0.000 N 
ATOM      2  C   UNK A   0       5.145   5.426  18.847  0.00  0.00    +0.000 C 
ATOM      3  O   UNK A   0       5.740   5.175  19.893  0.00  0.00    +0.000 OA
ATOM      4  H   MET A   1       3.406   6.191  18.030  0.00  0.00    +0.000 HD
ENDROOT
BRANCH   2   5
ATOM      5  C   UNK A   0       5.772   5.374  17.539  0.00  0.00    +0.000 A 
ATOM      6  C   UNK A   0       5.437   4.604  16.384  0.00  0.00    +0.000 A 
ATOM      7  C   UNK A   0       6.341   4.930  15.392  0.00  0.00    +0.000 A 
ATOM      8  O   UNK A   0       7.217   5.858  15.873  0.00  0.00    +0.000 OA
ATOM      9  C   UNK A   0       6.872   6.127  17.161  0.00  0.00    +0.000 A 
ATOM     10  C   UNK A   0       7.711   7.125  17.863  0.00  0.00    +0.000 C 
BRANCH   7  11
ATOM     11  C   UNK A   0       6.529   4.509  14.004  0.00  0.00    +0.000 A 
ATOM     12  C   UNK A   0       5.721   3.507  13.446  0.00  0.00    +0.000 A 
ATOM     13  C   UNK A   0       5.891   3.100  12.120  0.00  0.00    +0.000 A 
ATOM     14  C   UNK A   0       6.874   3.690  11.329  0.00  0.00    +0.000 A 
ATOM     15  C   UNK A   0       7.687   4.684  11.866  0.00  0.00    +0.000 A 
ATOM     16  C   UNK A   0       7.516   5.090  13.193  0.00  0.00    +0.000 A 
ENDBRANCH   7  11
ENDBRANCH   2   5
BRANCH   1  17
ATOM     17  CA  MET A   1       3.067   5.880  20.123  0.00  0.00    +0.000 C 
BRANCH  17  18
ATOM     18  C   MET A   1       2.144   7.115  20.152  0.00  0.00    +0.000 C 
ATOM     19  O   MET A   1       2.026   7.916  19.235  0.00  0.00    +0.000 OA
BRANCH  18  20
ATOM     20  OXT MET A   1       1.413   7.220  21.290  0.00  0.00    +0.000 OA
ATOM     21  HXT MET A   1       1.970   7.271  22.104  0.00  0.00    +0.000 HD
ENDBRANCH  18  20
ENDBRANCH  17  18
BRANCH  17  22
ATOM     22  CB  MET A   1       2.248   4.593  20.316  0.00  0.00    +0.000 C 
BRANCH  22  23
ATOM     23  CG  MET A   1       1.362   4.202  19.133  0.00  0.00    +0.000 C 
BRANCH  23  25
ATOM     24  CE  MET A   1       3.263   2.214  19.085  0.00  0.00    +0.000 C 
ATOM     25  SD  MET A   1       1.512   2.444  18.696  0.00  0.00    +0.000 S 
ENDBRANCH  23  25
ENDBRANCH  22  23
ENDBRANCH  17  22
ENDBRANCH   1  17
TORSDOF 8
ENDMDL
MODEL 5
REMARK VINA RESULT:      -6.8      3.723      6.550
REMARK  Name = 
REMARK  10 active torsions:
REMARK  status: ('A' for Active; 'I' for Inactive)
REMARK    1  A    between atoms: CE_1  and  SD_2
REMARK    2  A    between atoms: SD_2  and  CG_3
REMARK    3  A    between atoms: CG_3  and  CB_4
REMARK    4  A    between atoms: CB_4  and  CA_5
REMARK    5  A    between atoms: CA_5  and  N_6
REMARK    6  A    between atoms: CA_5  and  C_21
REMARK    7  A    between atoms: C_7  and  C_9
REMARK    8  A    between atoms: C_11  and  C_12
REMARK    9  A    between atoms: C_19  and  C_20
REMARK   10  A    between atoms: C_21  and  OXT_23
REMARK                            x       y       z     vdW  Elec       q    Type
REMARK                         _______ _______ _______ _____ _____    ______ ____
ROOT
ATOM      1  N   MET A   1       5.060   6.120  17.871  0.00  0.00    +0.000 N 
ATOM      2  C   UNK A   0       5.971   6.720  17.034  0.00  0.00    +0.000 C 
ATOM      3  O   UNK A   0       5.893   6.565  15.817  0.00  0.00    +0.000 OA
ATOM      4  H   MET A   1       5.218   6.130  18.868  0.00  0.00    +0.000 HD
ENDROOT
BRANCH   2   5
ATOM      5  C   UNK A   0       7.036   7.466  17.678  0.00  0.00    +0.000 A 
ATOM      6  C   UNK A   0       7.388   8.847  17.577  0.00  0.00    +0.000 A 
ATOM      7  C   UNK A   0       8.476   9.058  18.402  0.00  0.00    +0.000 A 
ATOM      8  O   UNK A   0       8.815   7.882  19.004  0.00  0.00    +0.000 OA
ATOM      9  C   UNK A   0       7.948   6.928  18.572  0.00  0.00    +0.000 A 
ATOM     10  C   UNK A   0       8.152   5.568  19.121  0.00  0.00    +0.000 C 
BRANCH   7  11
ATOM     11  C   UNK A   0       9.285  10.228  18.745  0.00  0.00    +0.000 A 
ATOM     12  C   UNK A   0       9.857  11.020  17.739  0.00  0.00    +0.000 A 
ATOM     13  C   UNK A   0      10.629  12.141  18.057  0.00  0.00    +0.000 A 
ATOM     14  C   UNK A   0      10.839  12.489  19.389  0.00  0.00    +0.000 A 
ATOM     15  C   UNK A   0      10.280  11.713  20.402  0.00  0.00    +0.000 A 
ATOM     16  C   UNK A   0       9.510  10.591  20.083  0.00  0.00    +0.000 A 
ENDBRANCH   7  11
ENDBRANCH   2   5
BRANCH   1  17
ATOM     17  CA  MET A   1       3.899   5.393  17.349  0.00  0.00    +0.000 C 
BRANCH  17  18
ATOM     18  C   MET A   1       4.081   3.875  17.548  0.00  0.00    +0.000 C 
ATOM     19  O   MET A   1       3.288   3.025  17.169  0.00  0.00    +0.000 OA
BRANCH  18  20
ATOM     20  OXT MET A   1       5.249   3.543  18.153  0.00  0.00    +0.000 OA
ATOM     21  HXT MET A   1       5.978   3.359  17.512  0.00  0.00    +0.000 HD
ENDBRANCH  18  20
ENDBRANCH  17  18
BRANCH  17  22
ATOM     22  CB  MET A   1       2.594   5.869  18.006  0.00  0.00    +0.000 C 
BRANCH  22  23
ATOM     23  CG  MET A   1       2.707   7.160  18.817  0.00  0.00    +0.000 C 
BRANCH  23  25
ATOM     24  CE  MET A   1       1.179   9.419  19.187  0.00  0.00    +0.000 C 
ATOM     25  SD  MET A   1       2.152   8.622  17.888  0.00  0.00    +0.000 S 
ENDBRANCH  23  25
ENDBRANCH  22  23
ENDBRANCH  17  22
ENDBRANCH   1  17
TORSDOF 8
ENDMDL
MODEL 6
REMARK VINA RESULT:      -6.7      3.411      6.189
REMARK  Name = 
REMARK  10 active torsions:
REMARK  status: ('A' for Active; 'I' for Inactive)
REMARK    1  A    between atoms: CE_1  and  SD_2
REMARK    2  A    between atoms: SD_2  and  CG_3
REMARK    3  A    between atoms: CG_3  and  CB_4
REMARK    4  A    between atoms: CB_4  and  CA_5
REMARK    5  A    between atoms: CA_5  and  N_6
REMARK    6  A    between atoms: CA_5  and  C_21
REMARK    7  A    between atoms: C_7  and  C_9
REMARK    8  A    between atoms: C_11  and  C_12
REMARK    9  A    between atoms: C_19  and  C_20
REMARK   10  A    between atoms: C_21  and  OXT_23
REMARK                            x       y       z     vdW  Elec       q    Type
REMARK                         _______ _______ _______ _____ _____    ______ ____
ROOT
ATOM      1  N   MET A   1       5.278   5.567  17.842  0.00  0.00    +0.000 N 
ATOM      2  C   UNK A   0       5.881   6.476  17.005  0.00  0.00    +0.000 C 
ATOM      3  O   UNK A   0       5.589   6.510  15.812  0.00  0.00    +0.000 OA
ATOM      4  H   MET A   1       5.629   5.446  18.780  0.00  0.00    +0.000 HD
ENDROOT
BRANCH   2   5
ATOM      5  C   UNK A   0       6.905   7.314  17.601  0.00  0.00    +0.000 A 
ATOM      6  C   UNK A   0       7.153   8.713  17.456  0.00  0.00    +0.000 A 
ATOM      7  C   UNK A   0       8.242   9.025  18.247  0.00  0.00    +0.000 A 
ATOM      8  O   UNK A   0       8.681   7.893  18.868  0.00  0.00    +0.000 OA
ATOM      9  C   UNK A   0       7.875   6.868  18.484  0.00  0.00    +0.000 A 
ATOM     10  C   UNK A   0       8.191   5.541  19.062  0.00  0.00    +0.000 C 
BRANCH   7  11
ATOM     11  C   UNK A   0       8.971  10.258  18.539  0.00  0.00    +0.000 A 
ATOM     12  C   UNK A   0       8.899  11.354  17.665  0.00  0.00    +0.000 A 
ATOM     13  C   UNK A   0       9.590  12.538  17.938  0.00  0.00    +0.000 A 
ATOM     14  C   UNK A   0      10.364  12.645  19.090  0.00  0.00    +0.000 A 
ATOM     15  C   UNK A   0      10.449  11.568  19.968  0.00  0.00    +0.000 A 
ATOM     16  C   UNK A   0       9.758  10.383  19.694  0.00  0.00    +0.000 A 
ENDBRANCH   7  11
ENDBRANCH   2   5
BRANCH   1  17
ATOM     17  CA  MET A   1       4.184   4.707  17.383  0.00  0.00    +0.000 C 
BRANCH  17  18
ATOM     18  C   MET A   1       4.348   3.281  17.945  0.00  0.00    +0.000 C 
ATOM     19  O   MET A   1       3.699   2.311  17.579  0.00  0.00    +0.000 OA
BRANCH  18  20
ATOM     20  OXT MET A   1       5.333   3.172  18.872  0.00  0.00    +0.000 OA
ATOM     21  HXT MET A   1       6.204   2.916  18.482  0.00  0.00    +0.000 HD
ENDBRANCH  18  20
ENDBRANCH  17  18
BRANCH  17  22
ATOM     22  CB  MET A   1       2.812   5.283  17.771  0.00  0.00    +0.000 C 
BRANCH  22  23
ATOM     23  CG  MET A   1       2.556   5.395  19.275  0.00  0.00    +0.000 C 
BRANCH  23  25
ATOM     24  CE  MET A   1       2.247   3.665  21.392  0.00  0.00    +0.000 C 
ATOM     25  SD  MET A   1       1.381   4.146  19.879  0.00  0.00    +0.000 S 
ENDBRANCH  23  25
ENDBRANCH  22  23
ENDBRANCH  17  22
ENDBRANCH   1  17
TORSDOF 8
ENDMDL
MODEL 7
REMARK VINA RESULT:      -6.7      3.362      8.307
REMARK  Name = 
REMARK  10 active torsions:
REMARK  status: ('A' for Active; 'I' for Inactive)
REMARK    1  A    between atoms: CE_1  and  SD_2
REMARK    2  A    between atoms: SD_2  and  CG_3
REMARK    3  A    between atoms: CG_3  and  CB_4
REMARK    4  A    between atoms: CB_4  and  CA_5
REMARK    5  A    between atoms: CA_5  and  N_6
REMARK    6  A    between atoms: CA_5  and  C_21
REMARK    7  A    between atoms: C_7  and  C_9
REMARK    8  A    between atoms: C_11  and  C_12
REMARK    9  A    between atoms: C_19  and  C_20
REMARK   10  A    between atoms: C_21  and  OXT_23
REMARK                            x       y       z     vdW  Elec       q    Type
REMARK                         _______ _______ _______ _____ _____    ______ ____
ROOT
ATOM      1  N   MET A   1       2.403   4.870  18.654  0.00  0.00    +0.000 N 
ATOM      2  C   UNK A   0       3.043   5.832  19.399  0.00  0.00    +0.000 C 
ATOM      3  O   UNK A   0       4.159   5.614  19.867  0.00  0.00    +0.000 OA
ATOM      4  H   MET A   1       1.433   4.999  18.403  0.00  0.00    +0.000 HD
ENDROOT
BRANCH   2   5
ATOM      5  C   UNK A   0       2.299   7.053  19.644  0.00  0.00    +0.000 A 
ATOM      6  C   UNK A   0       1.546   7.463  20.787  0.00  0.00    +0.000 A 
ATOM      7  C   UNK A   0       1.041   8.721  20.521  0.00  0.00    +0.000 A 
ATOM      8  O   UNK A   0       1.439   9.108  19.276  0.00  0.00    +0.000 OA
ATOM      9  C   UNK A   0       2.199   8.109  18.752  0.00  0.00    +0.000 A 
ATOM     10  C   UNK A   0       2.734   8.345  17.392  0.00  0.00    +0.000 C 
BRANCH   7  11
ATOM     11  C   UNK A   0       0.217   9.669  21.271  0.00  0.00    +0.000 A 
ATOM     12  C   UNK A   0      -0.139   9.408  22.602  0.00  0.00    +0.000 A 
ATOM     13  C   UNK A   0      -0.923  10.310  23.328  0.00  0.00    +0.000 A 
ATOM     14  C   UNK A   0      -1.362  11.489  22.732  0.00  0.00    +0.000 A 
ATOM     15  C   UNK A   0      -1.020  11.764  21.410  0.00  0.00    +0.000 A 
ATOM     16  C   UNK A   0      -0.237  10.861  20.685  0.00  0.00    +0.000 A 
ENDBRANCH   7  11
ENDBRANCH   2   5
BRANCH   1  17
ATOM     17  CA  MET A   1       3.067   3.619  18.279  0.00  0.00    +0.000 C 
BRANCH  17  18
ATOM     18  C   MET A   1       2.076   2.440  18.354  0.00  0.00    +0.000 C 
ATOM     19  O   MET A   1       0.859   2.551  18.296  0.00  0.00    +0.000 OA
BRANCH  18  20
ATOM     20  OXT MET A   1       2.678   1.228  18.442  0.00  0.00    +0.000 OA
ATOM     21  HXT MET A   1       3.232   1.013  17.653  0.00  0.00    +0.000 HD
ENDBRANCH  18  20
ENDBRANCH  17  18
BRANCH  17  22
ATOM     22  CB  MET A   1       3.690   3.709  16.877  0.00  0.00    +0.000 C 
BRANCH  22  23
ATOM     23  CG  MET A   1       5.170   4.091  16.846  0.00  0.00    +0.000 C 
BRANCH  23  25
ATOM     24  CE  MET A   1       6.175   4.004  14.286  0.00  0.00    +0.000 C 
ATOM     25  SD  MET A   1       5.572   5.221  15.480  0.00  0.00    +0.000 S 
ENDBRANCH  23  25
ENDBRANCH  22  23
ENDBRANCH  17  22
ENDBRANCH   1  17
TORSDOF 8
ENDMDL
MODEL 8
REMARK VINA RESULT:      -6.7      3.476      7.167
REMARK  Name = 
REMARK  10 active torsions:
REMARK  status: ('A' for Active; 'I' for Inactive)
REMARK    1  A    between atoms: CE_1  and  SD_2
REMARK    2  A    between atoms: SD_2  and  CG_3
REMARK    3  A    between atoms: CG_3  and  CB_4
REMARK    4  A    between atoms: CB_4  and  CA_5
REMARK    5  A    between atoms: CA_5  and  N_6
REMARK    6  A    between atoms: CA_5  and  C_21
REMARK    7  A    between atoms: C_7  and  C_9
REMARK    8  A    between atoms: C_11  and  C_12
REMARK    9  A    between atoms: C_19  and  C_20
REMARK   10  A    between atoms: C_21  and  OXT_23
REMARK                            x       y       z     vdW  Elec       q    Type
REMARK                         _______ _______ _______ _____ _____    ______ ____
ROOT
ATOM      1  N   MET A   1       6.858   5.745  16.275  0.00  0.00    +0.000 N 
ATOM      2  C   UNK A   0       6.464   7.000  16.672  0.00  0.00    +0.000 C 
ATOM      3  O   UNK A   0       5.405   7.475  16.267  0.00  0.00    +0.000 OA
ATOM      4  H   MET A   1       7.791   5.426  16.489  0.00  0.00    +0.000 HD
ENDROOT
BRANCH   2   5
ATOM      5  C   UNK A   0       7.393   7.725  17.518  0.00  0.00    +0.000 A 
ATOM      6  C   UNK A   0       7.811   9.091  17.473  0.00  0.00    +0.000 A 
ATOM      7  C   UNK A   0       8.702   9.286  18.511  0.00  0.00    +0.000 A 
ATOM      8  O   UNK A   0       8.857   8.114  19.192  0.00  0.00    +0.000 OA
ATOM      9  C   UNK A   0       8.067   7.180  18.599  0.00  0.00    +0.000 A 
ATOM     10  C   UNK A   0       8.095   5.828  19.203  0.00  0.00    +0.000 C 
BRANCH   7  11
ATOM     11  C   UNK A   0       9.461  10.435  19.001  0.00  0.00    +0.000 A 
ATOM     12  C   UNK A   0       9.438  10.779  20.361  0.00  0.00    +0.000 A 
ATOM     13  C   UNK A   0      10.163  11.874  20.840  0.00  0.00    +0.000 A 
ATOM     14  C   UNK A   0      10.926  12.642  19.964  0.00  0.00    +0.000 A 
ATOM     15  C   UNK A   0      10.961  12.317  18.611  0.00  0.00    +0.000 A 
ATOM     16  C   UNK A   0      10.234  11.222  18.133  0.00  0.00    +0.000 A 
ENDBRANCH   7  11
ENDBRANCH   2   5
BRANCH   1  17
ATOM     17  CA  MET A   1       5.985   4.882  15.473  0.00  0.00    +0.000 C 
BRANCH  17  18
ATOM     18  C   MET A   1       6.659   4.532  14.131  0.00  0.00    +0.000 C 
ATOM     19  O   MET A   1       7.412   5.275  13.518  0.00  0.00    +0.000 OA
BRANCH  18  20
ATOM     20  OXT MET A   1       6.382   3.278  13.695  0.00  0.00    +0.000 OA
ATOM     21  HXT MET A   1       6.643   2.577  14.341  0.00  0.00    +0.000 HD
ENDBRANCH  18  20
ENDBRANCH  17  18
BRANCH  17  22
ATOM     22  CB  MET A   1       5.606   3.601  16.234  0.00  0.00    +0.000 C 
BRANCH  22  23
ATOM     23  CG  MET A   1       5.091   3.818  17.657  0.00  0.00    +0.000 C 
BRANCH  23  25
ATOM     24  CE  MET A   1       2.412   3.202  17.528  0.00  0.00    +0.000 C 
ATOM     25  SD  MET A   1       3.477   4.654  17.697  0.00  0.00    +0.000 S 
ENDBRANCH  23  25
ENDBRANCH  22  23
ENDBRANCH  17  22
ENDBRANCH   1  17
TORSDOF 8
ENDMDL
MODEL 9
REMARK VINA RESULT:      -6.5      3.580      8.433
REMARK  Name = 
REMARK  10 active torsions:
REMARK  status: ('A' for Active; 'I' for Inactive)
REMARK    1  A    between atoms: CE_1  and  SD_2
REMARK    2  A    between atoms: SD_2  and  CG_3
REMARK    3  A    between atoms: CG_3  and  CB_4
REMARK    4  A    between atoms: CB_4  and  CA_5
REMARK    5  A    between atoms: CA_5  and  N_6
REMARK    6  A    between atoms: CA_5  and  C_21
REMARK    7  A    between atoms: C_7  and  C_9
REMARK    8  A    between atoms: C_11  and  C_12
REMARK    9  A    between atoms: C_19  and  C_20
REMARK   10  A    between atoms: C_21  and  OXT_23
REMARK                            x       y       z     vdW  Elec       q    Type
REMARK                         _______ _______ _______ _____ _____    ______ ____
ROOT
ATOM      1  N   MET A   1       1.602   5.095  19.287  0.00  0.00    +0.000 N 
ATOM      2  C   UNK A   0       2.470   6.068  19.722  0.00  0.00    +0.000 C 
ATOM      3  O   UNK A   0       3.637   5.786  19.987  0.00  0.00    +0.000 OA
ATOM      4  H   MET A   1       0.616   5.303  19.217  0.00  0.00    +0.000 HD
ENDROOT
BRANCH   2   5
ATOM      5  C   UNK A   0       1.906   7.392  19.908  0.00  0.00    +0.000 A 
ATOM      6  C   UNK A   0       1.229   7.959  21.031  0.00  0.00    +0.000 A 
ATOM      7  C   UNK A   0       0.902   9.261  20.704  0.00  0.00    +0.000 A 
ATOM      8  O   UNK A   0       1.340   9.527  19.440  0.00  0.00    +0.000 OA
ATOM      9  C   UNK A   0       1.946   8.406  18.965  0.00  0.00    +0.000 A 
ATOM     10  C   UNK A   0       2.497   8.498  17.593  0.00  0.00    +0.000 C 
BRANCH   7  11
ATOM     11  C   UNK A   0       0.227  10.351  21.407  0.00  0.00    +0.000 A 
ATOM     12  C   UNK A   0      -0.631  10.082  22.484  0.00  0.00    +0.000 A 
ATOM     13  C   UNK A   0      -1.279  11.117  23.164  0.00  0.00    +0.000 A 
ATOM     14  C   UNK A   0      -1.077  12.440  22.778  0.00  0.00    +0.000 A 
ATOM     15  C   UNK A   0      -0.230  12.726  21.711  0.00  0.00    +0.000 A 
ATOM     16  C   UNK A   0       0.417  11.689  21.030  0.00  0.00    +0.000 A 
ENDBRANCH   7  11
ENDBRANCH   2   5
BRANCH   1  17
ATOM     17  CA  MET A   1       2.057   3.732  18.997  0.00  0.00    +0.000 C 
BRANCH  17  18
ATOM     18  C   MET A   1       0.949   2.713  19.329  0.00  0.00    +0.000 C 
ATOM     19  O   MET A   1       0.369   2.024  18.503  0.00  0.00    +0.000 OA
BRANCH  18  20
ATOM     20  OXT MET A   1       0.695   2.600  20.657  0.00  0.00    +0.000 OA
ATOM     21  HXT MET A   1       1.104   3.323  21.192  0.00  0.00    +0.000 HD
ENDBRANCH  18  20
ENDBRANCH  17  18
BRANCH  17  22
ATOM     22  CB  MET A   1       2.500   3.586  17.533  0.00  0.00    +0.000 C 
BRANCH  22  23
ATOM     23  CG  MET A   1       3.983   3.272  17.331  0.00  0.00    +0.000 C 
BRANCH  23  25
ATOM     24  CE  MET A   1       6.312   4.692  17.692  0.00  0.00    +0.000 C 
ATOM     25  SD  MET A   1       4.894   4.650  16.571  0.00  0.00    +0.000 S 
ENDBRANCH  23  25
ENDBRANCH  22  23
ENDBRANCH  17  22
ENDBRANCH   1  17
TORSDOF 8
ENDMDL
