MODEL 1
REMARK VINA RESULT:      -7.8      0.000      0.000
REMARK  Name = 
REMARK  6 active torsions:
REMARK  status: ('A' for Active; 'I' for Inactive)
REMARK    1  A    between atoms: C_1  and  C_2
REMARK    2  A    between atoms: C_2  and  C_3
REMARK    3  A    between atoms: C_11  and  S_12
REMARK    4  A    between atoms: S_12  and  C_15
REMARK    5  A    between atoms: N_23  and  C_24
REMARK    6  A    between atoms: C_24  and  C_25
REMARK                            x       y       z     vdW  Elec       q    Type
REMARK                         _______ _______ _______ _____ _____    ______ ____
ROOT
ATOM      1  C   UNL     1       6.183   3.920  13.656  0.00  0.00    +0.000 A 
ATOM      2  C   UNL     1       7.369   4.541  14.052  0.00  0.00    +0.000 A 
ATOM      3  C   UNL     1       7.494   5.102  15.332  0.00  0.00    +0.000 A 
ATOM      4  C   UNL     1       6.436   5.074  16.253  0.00  0.00    +0.000 A 
ATOM      5  C   UNL     1       5.254   4.424  15.838  0.00  0.00    +0.000 A 
ATOM      6  C   UNL     1       5.128   3.853  14.564  0.00  0.00    +0.000 A 
ATOM      7  C   UNL     1       4.085   4.363  16.743  0.00  0.00    +0.000 A 
ATOM      8  O   UNL     1       3.021   3.897  16.354  0.00  0.00    +0.000 OA
ATOM      9  C   UNL     1       4.258   4.873  18.107  0.00  0.00    +0.000 A 
ATOM     10  C   UNL     1       5.413   5.487  18.405  0.00  0.00    +0.000 A 
ATOM     11  N   UNL     1       6.495   5.652  17.544  0.00  0.00    +0.000 N 
ENDROOT
BRANCH   9  12
ATOM     12  S   UNL     1       2.994   4.783  19.266  0.00  0.00    +0.000 S 
ATOM     13  O   UNL     1       1.883   4.020  18.716  0.00  0.00    +0.000 OA
ATOM     14  O   UNL     1       3.554   4.386  20.549  0.00  0.00    +0.000 OA
BRANCH  12  15
ATOM     15  C   UNL     1       2.362   6.446  19.445  0.00  0.00    +0.000 A 
ATOM     16  C   UNL     1       1.775   6.827  20.659  0.00  0.00    +0.000 A 
ATOM     17  C   UNL     1       1.239   8.109  20.790  0.00  0.00    +0.000 A 
ATOM     18  C   UNL     1       1.307   9.005  19.720  0.00  0.00    +0.000 A 
ATOM     19 CL   UNL     1       0.631  10.579  19.884  0.00  0.00    +0.000 Cl
ATOM     20  C   UNL     1       1.916   8.635  18.522  0.00  0.00    +0.000 A 
ATOM     21  C   UNL     1       2.450   7.350  18.380  0.00  0.00    +0.000 A 
ENDBRANCH  12  15
ENDBRANCH   9  12
BRANCH   1  23
ATOM     22  C   UNL     1       4.521   3.346  11.897  0.00  0.00    +0.000 C 
ATOM     23  C   UNL     1       6.001   3.411  12.251  0.00  0.00    +0.000 C 
ENDBRANCH   1  23
BRANCH  11  24
ATOM     24  C   UNL     1       7.645   6.499  17.908  0.00  0.00    +0.000 C 
ATOM     25  C   UNL     1       7.391   7.962  17.575  0.00  0.00    +0.000 C 
ENDBRANCH  11  24
TORSDOF 4
ENDMDL
MODEL 2
REMARK VINA RESULT:      -7.8      3.453      7.261
REMARK  Name = 
REMARK  6 active torsions:
REMARK  status: ('A' for Active; 'I' for Inactive)
REMARK    1  A    between atoms: C_1  and  C_2
REMARK    2  A    between atoms: C_2  and  C_3
REMARK    3  A    between atoms: C_11  and  S_12
REMARK    4  A    between atoms: S_12  and  C_15
REMARK    5  A    between atoms: N_23  and  C_24
REMARK    6  A    between atoms: C_24  and  C_25
REMARK                            x       y       z     vdW  Elec       q    Type
REMARK                         _______ _______ _______ _____ _____    ______ ____
ROOT
ATOM      1  C   UNL     1       1.880   6.980  20.219  0.00  0.00    +0.000 A 
ATOM      2  C   UNL     1       1.662   5.748  20.838  0.00  0.00    +0.000 A 
ATOM      3  C   UNL     1       2.488   4.649  20.562  0.00  0.00    +0.000 A 
ATOM      4  C   UNL     1       3.550   4.738  19.648  0.00  0.00    +0.000 A 
ATOM      5  C   UNL     1       3.763   5.997  19.049  0.00  0.00    +0.000 A 
ATOM      6  C   UNL     1       2.946   7.102  19.330  0.00  0.00    +0.000 A 
ATOM      7  C   UNL     1       4.852   6.174  18.063  0.00  0.00    +0.000 A 
ATOM      8  O   UNL     1       4.979   7.232  17.459  0.00  0.00    +0.000 OA
ATOM      9  C   UNL     1       5.762   5.044  17.850  0.00  0.00    +0.000 A 
ATOM     10  C   UNL     1       5.470   3.881  18.453  0.00  0.00    +0.000 A 
ATOM     11  N   UNL     1       4.394   3.654  19.308  0.00  0.00    +0.000 N 
ENDROOT
BRANCH   9  12
ATOM     12  S   UNL     1       7.106   5.162  16.788  0.00  0.00    +0.000 S 
ATOM     13  O   UNL     1       7.438   6.562  16.577  0.00  0.00    +0.000 OA
ATOM     14  O   UNL     1       8.148   4.251  17.239  0.00  0.00    +0.000 OA
BRANCH  12  15
ATOM     15  C   UNL     1       6.536   4.581  15.196  0.00  0.00    +0.000 A 
ATOM     16  C   UNL     1       7.367   4.727  14.078  0.00  0.00    +0.000 A 
ATOM     17  C   UNL     1       6.908   4.319  12.824  0.00  0.00    +0.000 A 
ATOM     18  C   UNL     1       5.637   3.752  12.697  0.00  0.00    +0.000 A 
ATOM     19 CL   UNL     1       5.074   3.264  11.146  0.00  0.00    +0.000 Cl
ATOM     20  C   UNL     1       4.821   3.582  13.815  0.00  0.00    +0.000 A 
ATOM     21  C   UNL     1       5.270   3.996  15.073  0.00  0.00    +0.000 A 
ENDBRANCH  12  15
ENDBRANCH   9  12
BRANCH   1  23
ATOM     22  C   UNL     1       1.126   8.735  21.812  0.00  0.00    +0.000 C 
ATOM     23  C   UNL     1       0.936   8.135  20.425  0.00  0.00    +0.000 C 
ENDBRANCH   1  23
BRANCH  11  24
ATOM     24  C   UNL     1       4.056   2.296  19.773  0.00  0.00    +0.000 C 
ATOM     25  C   UNL     1       3.489   1.443  18.648  0.00  0.00    +0.000 C 
ENDBRANCH  11  24
TORSDOF 4
ENDMDL
MODEL 3
REMARK VINA RESULT:      -7.7      3.460      7.114
REMARK  Name = 
REMARK  6 active torsions:
REMARK  status: ('A' for Active; 'I' for Inactive)
REMARK    1  A    between atoms: C_1  and  C_2
REMARK    2  A    between atoms: C_2  and  C_3
REMARK    3  A    between atoms: C_11  and  S_12
REMARK    4  A    between atoms: S_12  and  C_15
REMARK    5  A    between atoms: N_23  and  C_24
REMARK    6  A    between atoms: C_24  and  C_25
REMARK                            x       y       z     vdW  Elec       q    Type
REMARK                         _______ _______ _______ _____ _____    ______ ____
ROOT
ATOM      1  C   UNL     1       1.869   6.887  20.215  0.00  0.00    +0.000 A 
ATOM      2  C   UNL     1       1.685   5.652  20.839  0.00  0.00    +0.000 A 
ATOM      3  C   UNL     1       2.540   4.574  20.564  0.00  0.00    +0.000 A 
ATOM      4  C   UNL     1       3.597   4.688  19.647  0.00  0.00    +0.000 A 
ATOM      5  C   UNL     1       3.775   5.951  19.043  0.00  0.00    +0.000 A 
ATOM      6  C   UNL     1       2.929   7.034  19.323  0.00  0.00    +0.000 A 
ATOM      7  C   UNL     1       4.856   6.153  18.053  0.00  0.00    +0.000 A 
ATOM      8  O   UNL     1       4.952   7.212  17.445  0.00  0.00    +0.000 OA
ATOM      9  C   UNL     1       5.794   5.047  17.841  0.00  0.00    +0.000 A 
ATOM     10  C   UNL     1       5.535   3.879  18.449  0.00  0.00    +0.000 A 
ATOM     11  N   UNL     1       4.467   3.626  19.307  0.00  0.00    +0.000 N 
ENDROOT
BRANCH   9  12
ATOM     12  S   UNL     1       7.132   5.197  16.775  0.00  0.00    +0.000 S 
ATOM     13  O   UNL     1       7.458   6.603  16.598  0.00  0.00    +0.000 OA
ATOM     14  O   UNL     1       8.179   4.278  17.195  0.00  0.00    +0.000 OA
BRANCH  12  15
ATOM     15  C   UNL     1       6.554   4.657  15.171  0.00  0.00    +0.000 A 
ATOM     16  C   UNL     1       5.252   4.154  15.048  0.00  0.00    +0.000 A 
ATOM     17  C   UNL     1       4.811   3.688  13.808  0.00  0.00    +0.000 A 
ATOM     18  C   UNL     1       5.660   3.743  12.700  0.00  0.00    +0.000 A 
ATOM     19 CL   UNL     1       5.114   3.153  11.179  0.00  0.00    +0.000 Cl
ATOM     20  C   UNL     1       6.946   4.269  12.817  0.00  0.00    +0.000 A 
ATOM     21  C   UNL     1       7.398   4.731  14.057  0.00  0.00    +0.000 A 
ENDBRANCH  12  15
ENDBRANCH   9  12
BRANCH   1  23
ATOM     22  C   UNL     1       1.260   9.200  19.534  0.00  0.00    +0.000 C 
ATOM     23  C   UNL     1       0.896   8.017  20.420  0.00  0.00    +0.000 C 
ENDBRANCH   1  23
BRANCH  11  24
ATOM     24  C   UNL     1       4.168   2.261  19.779  0.00  0.00    +0.000 C 
ATOM     25  C   UNL     1       3.493   1.431  18.696  0.00  0.00    +0.000 C 
ENDBRANCH  11  24
TORSDOF 4
ENDMDL
MODEL 4
REMARK VINA RESULT:      -7.5      3.473      7.112
REMARK  Name = 
REMARK  6 active torsions:
REMARK  status: ('A' for Active; 'I' for Inactive)
REMARK    1  A    between atoms: C_1  and  C_2
REMARK    2  A    between atoms: C_2  and  C_3
REMARK    3  A    between atoms: C_11  and  S_12
REMARK    4  A    between atoms: S_12  and  C_15
REMARK    5  A    between atoms: N_23  and  C_24
REMARK    6  A    between atoms: C_24  and  C_25
REMARK                            x       y       z     vdW  Elec       q    Type
REMARK                         _______ _______ _______ _____ _____    ______ ____
ROOT
ATOM      1  C   UNL     1       1.902   8.397  18.512  0.00  0.00    +0.000 A 
ATOM      2  C   UNL     1       1.620   7.552  19.588  0.00  0.00    +0.000 A 
ATOM      3  C   UNL     1       2.424   6.433  19.853  0.00  0.00    +0.000 A 
ATOM      4  C   UNL     1       3.527   6.112  19.046  0.00  0.00    +0.000 A 
ATOM      5  C   UNL     1       3.804   6.990  17.977  0.00  0.00    +0.000 A 
ATOM      6  C   UNL     1       3.009   8.115  17.714  0.00  0.00    +0.000 A 
ATOM      7  C   UNL     1       4.939   6.716  17.068  0.00  0.00    +0.000 A 
ATOM      8  O   UNL     1       5.123   7.410  16.076  0.00  0.00    +0.000 OA
ATOM      9  C   UNL     1       5.822   5.596  17.408  0.00  0.00    +0.000 A 
ATOM     10  C   UNL     1       5.469   4.808  18.435  0.00  0.00    +0.000 A 
ATOM     11  N   UNL     1       4.350   4.979  19.247  0.00  0.00    +0.000 N 
ENDROOT
BRANCH   9  12
ATOM     12  S   UNL     1       7.214   5.233  16.469  0.00  0.00    +0.000 S 
ATOM     13  O   UNL     1       7.882   6.469  16.092  0.00  0.00    +0.000 OA
ATOM     14  O   UNL     1       7.981   4.194  17.139  0.00  0.00    +0.000 OA
BRANCH  12  15
ATOM     15  C   UNL     1       6.612   4.551  14.930  0.00  0.00    +0.000 A 
ATOM     16  C   UNL     1       7.380   4.705  13.768  0.00  0.00    +0.000 A 
ATOM     17  C   UNL     1       6.894   4.215  12.554  0.00  0.00    +0.000 A 
ATOM     18  C   UNL     1       5.660   3.561  12.510  0.00  0.00    +0.000 A 
ATOM     19 CL   UNL     1       5.062   2.973  11.008  0.00  0.00    +0.000 Cl
ATOM     20  C   UNL     1       4.909   3.384  13.671  0.00  0.00    +0.000 A 
ATOM     21  C   UNL     1       5.385   3.878  14.890  0.00  0.00    +0.000 A 
ENDBRANCH  12  15
ENDBRANCH   9  12
BRANCH   1  23
ATOM     22  C   UNL     1       0.796  10.461  19.349  0.00  0.00    +0.000 C 
ATOM     23  C   UNL     1       0.987   9.537  18.154  0.00  0.00    +0.000 C 
ENDBRANCH   1  23
BRANCH  11  24
ATOM     24  C   UNL     1       3.952   3.956  20.232  0.00  0.00    +0.000 C 
ATOM     25  C   UNL     1       4.094   2.550  19.667  0.00  0.00    +0.000 C 
ENDBRANCH  11  24
TORSDOF 4
ENDMDL
MODEL 5
REMARK VINA RESULT:      -7.5      3.503      7.117
REMARK  Name = 
REMARK  6 active torsions:
REMARK  status: ('A' for Active; 'I' for Inactive)
REMARK    1  A    between atoms: C_1  and  C_2
REMARK    2  A    between atoms: C_2  and  C_3
REMARK    3  A    between atoms: C_11  and  S_12
REMARK    4  A    between atoms: S_12  and  C_15
REMARK    5  A    between atoms: N_23  and  C_24
REMARK    6  A    between atoms: C_24  and  C_25
REMARK                            x       y       z     vdW  Elec       q    Type
REMARK                         _______ _______ _______ _____ _____    ______ ____
ROOT
ATOM      1  C   UNL     1       1.959   8.325  18.663  0.00  0.00    +0.000 A 
ATOM      2  C   UNL     1       1.623   7.383  19.638  0.00  0.00    +0.000 A 
ATOM      3  C   UNL     1       2.381   6.215  19.802  0.00  0.00    +0.000 A 
ATOM      4  C   UNL     1       3.492   5.940  18.989  0.00  0.00    +0.000 A 
ATOM      5  C   UNL     1       3.824   6.913  18.023  0.00  0.00    +0.000 A 
ATOM      6  C   UNL     1       3.075   8.088  17.863  0.00  0.00    +0.000 A 
ATOM      7  C   UNL     1       4.972   6.694  17.115  0.00  0.00    +0.000 A 
ATOM      8  O   UNL     1       5.203   7.480  16.205  0.00  0.00    +0.000 OA
ATOM      9  C   UNL     1       5.807   5.513  17.354  0.00  0.00    +0.000 A 
ATOM     10  C   UNL     1       5.403   4.636  18.285  0.00  0.00    +0.000 A 
ATOM     11  N   UNL     1       4.271   4.763  19.087  0.00  0.00    +0.000 N 
ENDROOT
BRANCH   9  12
ATOM     12  S   UNL     1       7.209   5.200  16.411  0.00  0.00    +0.000 S 
ATOM     13  O   UNL     1       7.862   6.457  16.078  0.00  0.00    +0.000 OA
ATOM     14  O   UNL     1       7.987   4.150  17.052  0.00  0.00    +0.000 OA
BRANCH  12  15
ATOM     15  C   UNL     1       6.625   4.560  14.847  0.00  0.00    +0.000 A 
ATOM     16  C   UNL     1       5.329   4.034  14.765  0.00  0.00    +0.000 A 
ATOM     17  C   UNL     1       4.884   3.490  13.559  0.00  0.00    +0.000 A 
ATOM     18  C   UNL     1       5.723   3.492  12.442  0.00  0.00    +0.000 A 
ATOM     19 CL   UNL     1       5.173   2.807  10.962  0.00  0.00    +0.000 Cl
ATOM     20  C   UNL     1       7.003   4.041  12.516  0.00  0.00    +0.000 A 
ATOM     21  C   UNL     1       7.459   4.581  13.723  0.00  0.00    +0.000 A 
ENDBRANCH  12  15
ENDBRANCH   9  12
BRANCH   1  23
ATOM     22  C   UNL     1       0.062   9.687  19.518  0.00  0.00    +0.000 C 
ATOM     23  C   UNL     1       1.092   9.528  18.408  0.00  0.00    +0.000 C 
ENDBRANCH   1  23
BRANCH  11  24
ATOM     24  C   UNL     1       3.815   3.658  19.951  0.00  0.00    +0.000 C 
ATOM     25  C   UNL     1       3.630   2.370  19.162  0.00  0.00    +0.000 C 
ENDBRANCH  11  24
TORSDOF 4
ENDMDL
MODEL 6
REMARK VINA RESULT:      -7.2      3.700      7.048
REMARK  Name = 
REMARK  6 active torsions:
REMARK  status: ('A' for Active; 'I' for Inactive)
REMARK    1  A    between atoms: C_1  and  C_2
REMARK    2  A    between atoms: C_2  and  C_3
REMARK    3  A    between atoms: C_11  and  S_12
REMARK    4  A    between atoms: S_12  and  C_15
REMARK    5  A    between atoms: N_23  and  C_24
REMARK    6  A    between atoms: C_24  and  C_25
REMARK                            x       y       z     vdW  Elec       q    Type
REMARK                         _______ _______ _______ _____ _____    ______ ____
ROOT
ATOM      1  C   UNL     1       2.277   3.202  20.856  0.00  0.00    +0.000 A 
ATOM      2  C   UNL     1       1.329   4.227  20.823  0.00  0.00    +0.000 A 
ATOM      3  C   UNL     1       1.577   5.413  20.117  0.00  0.00    +0.000 A 
ATOM      4  C   UNL     1       2.784   5.623  19.431  0.00  0.00    +0.000 A 
ATOM      5  C   UNL     1       3.719   4.567  19.462  0.00  0.00    +0.000 A 
ATOM      6  C   UNL     1       3.472   3.375  20.159  0.00  0.00    +0.000 A 
ATOM      7  C   UNL     1       5.024   4.711  18.779  0.00  0.00    +0.000 A 
ATOM      8  O   UNL     1       5.883   3.846  18.889  0.00  0.00    +0.000 OA
ATOM      9  C   UNL     1       5.234   5.918  17.972  0.00  0.00    +0.000 A 
ATOM     10  C   UNL     1       4.294   6.874  18.016  0.00  0.00    +0.000 A 
ATOM     11  N   UNL     1       3.100   6.812  18.732  0.00  0.00    +0.000 N 
ENDROOT
BRANCH   9  12
ATOM     12  S   UNL     1       6.678   6.155  17.073  0.00  0.00    +0.000 S 
ATOM     13  O   UNL     1       6.755   7.539  16.633  0.00  0.00    +0.000 OA
ATOM     14  O   UNL     1       7.796   5.588  17.811  0.00  0.00    +0.000 OA
BRANCH  12  15
ATOM     15  C   UNL     1       6.489   5.207  15.569  0.00  0.00    +0.000 A 
ATOM     16  C   UNL     1       7.469   5.304  14.572  0.00  0.00    +0.000 A 
ATOM     17  C   UNL     1       7.304   4.602  13.377  0.00  0.00    +0.000 A 
ATOM     18  C   UNL     1       6.178   3.797  13.191  0.00  0.00    +0.000 A 
ATOM     19 CL   UNL     1       5.975   2.946  11.709  0.00  0.00    +0.000 Cl
ATOM     20  C   UNL     1       5.216   3.679  14.193  0.00  0.00    +0.000 A 
ATOM     21  C   UNL     1       5.370   4.385  15.391  0.00  0.00    +0.000 A 
ENDBRANCH  12  15
ENDBRANCH   9  12
BRANCH   1  23
ATOM     22  C   UNL     1       0.889   2.167  22.640  0.00  0.00    +0.000 C 
ATOM     23  C   UNL     1       2.068   1.972  21.697  0.00  0.00    +0.000 C 
ENDBRANCH   1  23
BRANCH  11  24
ATOM     24  C   UNL     1       2.220   7.987  18.861  0.00  0.00    +0.000 C 
ATOM     25  C   UNL     1       2.276   8.867  17.620  0.00  0.00    +0.000 C 
ENDBRANCH  11  24
TORSDOF 4
ENDMDL
MODEL 7
REMARK VINA RESULT:      -6.9      3.844      5.527
REMARK  Name = 
REMARK  6 active torsions:
REMARK  status: ('A' for Active; 'I' for Inactive)
REMARK    1  A    between atoms: C_1  and  C_2
REMARK    2  A    between atoms: C_2  and  C_3
REMARK    3  A    between atoms: C_11  and  S_12
REMARK    4  A    between atoms: S_12  and  C_15
REMARK    5  A    between atoms: N_23  and  C_24
REMARK    6  A    between atoms: C_24  and  C_25
REMARK                            x       y       z     vdW  Elec       q    Type
REMARK                         _______ _______ _______ _____ _____    ______ ____
ROOT
ATOM      1  C   UNL     1       4.364   6.332  16.566  0.00  0.00    +0.000 A 
ATOM      2  C   UNL     1       4.181   5.201  17.365  0.00  0.00    +0.000 A 
ATOM      3  C   UNL     1       3.379   5.255  18.514  0.00  0.00    +0.000 A 
ATOM      4  C   UNL     1       2.745   6.442  18.913  0.00  0.00    +0.000 A 
ATOM      5  C   UNL     1       2.928   7.567  18.081  0.00  0.00    +0.000 A 
ATOM      6  C   UNL     1       3.720   7.514  16.925  0.00  0.00    +0.000 A 
ATOM      7  C   UNL     1       2.307   8.862  18.437  0.00  0.00    +0.000 A 
ATOM      8  O   UNL     1       2.547   9.868  17.781  0.00  0.00    +0.000 OA
ATOM      9  C   UNL     1       1.402   8.883  19.590  0.00  0.00    +0.000 A 
ATOM     10  C   UNL     1       1.302   7.768  20.331  0.00  0.00    +0.000 A 
ATOM     11  N   UNL     1       1.953   6.562  20.080  0.00  0.00    +0.000 N 
ENDROOT
BRANCH   9  12
ATOM     12  S   UNL     1       0.565  10.311  20.048  0.00  0.00    +0.000 S 
ATOM     13  O   UNL     1      -0.044  10.120  21.355  0.00  0.00    +0.000 OA
ATOM     14  O   UNL     1       1.434  11.459  19.837  0.00  0.00    +0.000 OA
BRANCH  12  15
ATOM     15  C   UNL     1      -0.813  10.464  18.919  0.00  0.00    +0.000 A 
ATOM     16  C   UNL     1      -0.831   9.688  17.753  0.00  0.00    +0.000 A 
ATOM     17  C   UNL     1      -1.881   9.838  16.845  0.00  0.00    +0.000 A 
ATOM     18  C   UNL     1      -2.912  10.742  17.114  0.00  0.00    +0.000 A 
ATOM     19 CL   UNL     1      -4.195  10.931  15.984  0.00  0.00    +0.000 Cl
ATOM     20  C   UNL     1      -2.908  11.494  18.288  0.00  0.00    +0.000 A 
ATOM     21  C   UNL     1      -1.856  11.356  19.199  0.00  0.00    +0.000 A 
ENDBRANCH  12  15
ENDBRANCH   9  12
BRANCH   1  23
ATOM     22  C   UNL     1       5.634   4.880  14.996  0.00  0.00    +0.000 C 
ATOM     23  C   UNL     1       5.306   6.313  15.392  0.00  0.00    +0.000 C 
ENDBRANCH   1  23
BRANCH  11  24
ATOM     24  C   UNL     1       1.921   5.455  21.054  0.00  0.00    +0.000 C 
ATOM     25  C   UNL     1       1.060   4.301  20.560  0.00  0.00    +0.000 C 
ENDBRANCH  11  24
TORSDOF 4
ENDMDL
MODEL 8
REMARK VINA RESULT:      -6.8      3.742      5.465
REMARK  Name = 
REMARK  6 active torsions:
REMARK  status: ('A' for Active; 'I' for Inactive)
REMARK    1  A    between atoms: C_1  and  C_2
REMARK    2  A    between atoms: C_2  and  C_3
REMARK    3  A    between atoms: C_11  and  S_12
REMARK    4  A    between atoms: S_12  and  C_15
REMARK    5  A    between atoms: N_23  and  C_24
REMARK    6  A    between atoms: C_24  and  C_25
REMARK                            x       y       z     vdW  Elec       q    Type
REMARK                         _______ _______ _______ _____ _____    ______ ____
ROOT
ATOM      1  C   UNL     1       4.404   6.301  16.695  0.00  0.00    +0.000 A 
ATOM      2  C   UNL     1       4.221   5.125  17.424  0.00  0.00    +0.000 A 
ATOM      3  C   UNL     1       3.396   5.103  18.558  0.00  0.00    +0.000 A 
ATOM      4  C   UNL     1       2.737   6.257  19.010  0.00  0.00    +0.000 A 
ATOM      5  C   UNL     1       2.921   7.429  18.247  0.00  0.00    +0.000 A 
ATOM      6  C   UNL     1       3.737   7.453  17.107  0.00  0.00    +0.000 A 
ATOM      7  C   UNL     1       2.274   8.693  18.663  0.00  0.00    +0.000 A 
ATOM      8  O   UNL     1       2.513   9.738  18.070  0.00  0.00    +0.000 OA
ATOM      9  C   UNL     1       1.345   8.637  19.796  0.00  0.00    +0.000 A 
ATOM     10  C   UNL     1       1.246   7.481  20.469  0.00  0.00    +0.000 A 
ATOM     11  N   UNL     1       1.919   6.300  20.164  0.00  0.00    +0.000 N 
ENDROOT
BRANCH   9  12
ATOM     12  S   UNL     1       0.479  10.026  20.316  0.00  0.00    +0.000 S 
ATOM     13  O   UNL     1      -0.317   9.692  21.487  0.00  0.00    +0.000 OA
ATOM     14  O   UNL     1       1.392  11.157  20.383  0.00  0.00    +0.000 OA
BRANCH  12  15
ATOM     15  C   UNL     1      -0.717  10.376  19.034  0.00  0.00    +0.000 A 
ATOM     16  C   UNL     1      -1.545  11.499  19.160  0.00  0.00    +0.000 A 
ATOM     17  C   UNL     1      -2.513  11.751  18.186  0.00  0.00    +0.000 A 
ATOM     18  C   UNL     1      -2.636  10.897  17.088  0.00  0.00    +0.000 A 
ATOM     19 CL   UNL     1      -3.840  11.206  15.898  0.00  0.00    +0.000 Cl
ATOM     20  C   UNL     1      -1.793   9.795  16.948  0.00  0.00    +0.000 A 
ATOM     21  C   UNL     1      -0.826   9.530  17.923  0.00  0.00    +0.000 A 
ENDBRANCH  12  15
ENDBRANCH   9  12
BRANCH   1  23
ATOM     22  C   UNL     1       6.518   5.385  15.757  0.00  0.00    +0.000 C 
ATOM     23  C   UNL     1       5.371   6.363  15.542  0.00  0.00    +0.000 C 
ENDBRANCH   1  23
BRANCH  11  24
ATOM     24  C   UNL     1       1.882   5.139  21.072  0.00  0.00    +0.000 C 
ATOM     25  C   UNL     1       0.994   4.030  20.527  0.00  0.00    +0.000 C 
ENDBRANCH  11  24
TORSDOF 4
ENDMDL
MODEL 9
REMARK VINA RESULT:      -6.8      3.661      7.011
REMARK  Name = 
REMARK  6 active torsions:
REMARK  status: ('A' for Active; 'I' for Inactive)
REMARK    1  A    between atoms: C_1  and  C_2
REMARK    2  A    between atoms: C_2  and  C_3
REMARK    3  A    between atoms: C_11  and  S_12
REMARK    4  A    between atoms: S_12  and  C_15
REMARK    5  A    between atoms: N_23  and  C_24
REMARK    6  A    between atoms: C_24  and  C_25
REMARK                            x       y       z     vdW  Elec       q    Type
REMARK                         _______ _______ _______ _____ _____    ______ ____
ROOT
ATOM      1  C   UNL     1       1.916   3.787  20.595  0.00  0.00    +0.000 A 
ATOM      2  C   UNL     1       1.035   4.835  20.317  0.00  0.00    +0.000 A 
ATOM      3  C   UNL     1       1.423   5.900  19.491  0.00  0.00    +0.000 A 
ATOM      4  C   UNL     1       2.706   5.964  18.927  0.00  0.00    +0.000 A 
ATOM      5  C   UNL     1       3.573   4.886  19.206  0.00  0.00    +0.000 A 
ATOM      6  C   UNL     1       3.186   3.813  20.022  0.00  0.00    +0.000 A 
ATOM      7  C   UNL     1       4.949   4.882  18.662  0.00  0.00    +0.000 A 
ATOM      8  O   UNL     1       5.743   4.007  18.985  0.00  0.00    +0.000 OA
ATOM      9  C   UNL     1       5.312   5.955  17.731  0.00  0.00    +0.000 A 
ATOM     10  C   UNL     1       4.427   6.944  17.538  0.00  0.00    +0.000 A 
ATOM     11  N   UNL     1       3.161   7.030  18.115  0.00  0.00    +0.000 N 
ENDROOT
BRANCH   9  12
ATOM     12  S   UNL     1       6.855   6.007  16.979  0.00  0.00    +0.000 S 
ATOM     13  O   UNL     1       7.177   7.380  16.625  0.00  0.00    +0.000 OA
ATOM     14  O   UNL     1       7.800   5.246  17.783  0.00  0.00    +0.000 OA
BRANCH  12  15
ATOM     15  C   UNL     1       6.676   5.161  15.414  0.00  0.00    +0.000 A 
ATOM     16  C   UNL     1       5.612   4.267  15.239  0.00  0.00    +0.000 A 
ATOM     17  C   UNL     1       5.493   3.568  14.036  0.00  0.00    +0.000 A 
ATOM     18  C   UNL     1       6.421   3.778  13.013  0.00  0.00    +0.000 A 
ATOM     19 CL   UNL     1       6.277   2.903  11.539  0.00  0.00    +0.000 Cl
ATOM     20  C   UNL     1       7.464   4.689  13.178  0.00  0.00    +0.000 A 
ATOM     21  C   UNL     1       7.595   5.387  14.383  0.00  0.00    +0.000 A 
ENDBRANCH  12  15
ENDBRANCH   9  12
BRANCH   1  23
ATOM     22  C   UNL     1       2.754   1.808  21.845  0.00  0.00    +0.000 C 
ATOM     23  C   UNL     1       1.549   2.695  21.563  0.00  0.00    +0.000 C 
ENDBRANCH   1  23
BRANCH  11  24
ATOM     24  C   UNL     1       2.338   8.246  17.984  0.00  0.00    +0.000 C 
ATOM     25  C   UNL     1       1.912   8.783  19.342  0.00  0.00    +0.000 C 
ENDBRANCH  11  24
TORSDOF 4
ENDMDL
