MODEL 1
REMARK VINA RESULT:      -6.8      0.000      0.000
REMARK  Name = 
REMARK  9 active torsions:
REMARK  status: ('A' for Active; 'I' for Inactive)
REMARK    1  A    between atoms: C_1  and  C_2
REMARK    2  A    between atoms: C_2  and  C_3
REMARK    3  A    between atoms: C_2  and  N_10
REMARK    4  A    between atoms: C_3  and  C_4
REMARK    5  A    between atoms: N_10  and  C_11
REMARK    6  A    between atoms: C_11  and  C_12
REMARK    7  A    between atoms: C_12  and  N_13
REMARK    8  A    between atoms: C_12  and  C_14
REMARK    9  A    between atoms: C_14  and  C_15
REMARK                            x       y       z     vdW  Elec       q    Type
REMARK                         _______ _______ _______ _____ _____    ______ ____
ROOT
ATOM      1  C   UNL     1       1.981   2.460  18.764  0.00  0.00    +0.000 C 
ENDROOT
BRANCH   1   2
ATOM      2  N   UNL     1       1.422   3.823  18.779  0.00  0.00    +0.000 NA
ATOM      3  H   UNL     1       2.054   4.444  18.271  0.00  0.00    +0.000 HD
BRANCH   2   5
ATOM      4  C   UNL     1       1.310   3.170  21.109  0.00  0.00    +0.000 C 
ATOM      5  C   UNL     1       1.264   4.360  20.142  0.00  0.00    +0.000 C 
BRANCH   5   6
ATOM      6  C   UNL     1       2.363   5.398  20.486  0.00  0.00    +0.000 C 
BRANCH   6   7
ATOM      7  C   UNL     1       2.178   6.737  19.813  0.00  0.00    +0.000 A 
ATOM      8  C   UNL     1       1.579   7.805  20.496  0.00  0.00    +0.000 A 
ATOM      9  C   UNL     1       1.366   9.020  19.837  0.00  0.00    +0.000 A 
ATOM     10  C   UNL     1       1.753   9.174  18.514  0.00  0.00    +0.000 A 
ATOM     11  C   UNL     1       2.375   8.123  17.837  0.00  0.00    +0.000 A 
ATOM     12  C   UNL     1       2.595   6.914  18.491  0.00  0.00    +0.000 A 
ENDBRANCH   6   7
ENDBRANCH   5   6
ENDBRANCH   2   5
ENDBRANCH   1   2
BRANCH   1  13
ATOM     13  C   UNL     1       3.502   2.472  18.513  0.00  0.00    +0.000 C 
BRANCH  13  14
ATOM     14  N   UNL     1       4.048   1.101  18.484  0.00  0.00    +0.000 NA
ATOM     15  H   UNL     1       3.797   0.668  17.589  0.00  0.00    +0.000 HD
ATOM     16  H   UNL     1       3.600   0.542  19.200  0.00  0.00    +0.000 HD
ENDBRANCH  13  14
BRANCH  13  17
ATOM     17  C   UNL     1       3.804   3.246  17.218  0.00  0.00    +0.000 C 
BRANCH  17  18
ATOM     18  C   UNL     1       4.780   4.371  17.407  0.00  0.00    +0.000 A 
ATOM     19  C   UNL     1       4.994   5.302  16.387  0.00  0.00    +0.000 A 
ATOM     20  C   UNL     1       5.852   6.379  16.580  0.00  0.00    +0.000 A 
ATOM     21  C   UNL     1       6.511   6.526  17.804  0.00  0.00    +0.000 A 
ATOM     22  C   UNL     1       6.324   5.587  18.813  0.00  0.00    +0.000 A 
ATOM     23  C   UNL     1       5.468   4.508  18.622  0.00  0.00    +0.000 A 
ENDBRANCH  17  18
ENDBRANCH  13  17
ENDBRANCH   1  13
TORSDOF 8
ENDMDL
MODEL 2
REMARK VINA RESULT:      -6.6      2.780      4.748
REMARK  Name = 
REMARK  9 active torsions:
REMARK  status: ('A' for Active; 'I' for Inactive)
REMARK    1  A    between atoms: C_1  and  C_2
REMARK    2  A    between atoms: C_2  and  C_3
REMARK    3  A    between atoms: C_2  and  N_10
REMARK    4  A    between atoms: C_3  and  C_4
REMARK    5  A    between atoms: N_10  and  C_11
REMARK    6  A    between atoms: C_11  and  C_12
REMARK    7  A    between atoms: C_12  and  N_13
REMARK    8  A    between atoms: C_12  and  C_14
REMARK    9  A    between atoms: C_14  and  C_15
REMARK                            x       y       z     vdW  Elec       q    Type
REMARK                         _______ _______ _______ _____ _____    ______ ____
ROOT
ATOM      1  C   UNL     1       5.988   5.973  17.811  0.00  0.00    +0.000 C 
ENDROOT
BRANCH   1   2
ATOM      2  N   UNL     1       4.723   6.342  17.151  0.00  0.00    +0.000 NA
ATOM      3  H   UNL     1       4.818   7.280  16.758  0.00  0.00    +0.000 HD
BRANCH   2   5
ATOM      4  C   UNL     1       2.967   7.763  18.027  0.00  0.00    +0.000 C 
ATOM      5  C   UNL     1       3.579   6.357  18.079  0.00  0.00    +0.000 C 
BRANCH   5   6
ATOM      6  C   UNL     1       2.526   5.279  17.717  0.00  0.00    +0.000 C 
BRANCH   6   7
ATOM      7  C   UNL     1       2.086   4.431  18.886  0.00  0.00    +0.000 A 
ATOM      8  C   UNL     1       2.187   4.913  20.200  0.00  0.00    +0.000 A 
ATOM      9  C   UNL     1       1.827   4.091  21.271  0.00  0.00    +0.000 A 
ATOM     10  C   UNL     1       1.361   2.806  21.039  0.00  0.00    +0.000 A 
ATOM     11  C   UNL     1       1.232   2.329  19.733  0.00  0.00    +0.000 A 
ATOM     12  C   UNL     1       1.583   3.146  18.663  0.00  0.00    +0.000 A 
ENDBRANCH   6   7
ENDBRANCH   5   6
ENDBRANCH   2   5
ENDBRANCH   1   2
BRANCH   1  13
ATOM     13  C   UNL     1       6.837   5.037  16.928  0.00  0.00    +0.000 C 
BRANCH  13  14
ATOM     14  N   UNL     1       7.671   4.139  17.751  0.00  0.00    +0.000 NA
ATOM     15  H   UNL     1       8.268   3.585  17.128  0.00  0.00    +0.000 HD
ATOM     16  H   UNL     1       7.079   3.475  18.235  0.00  0.00    +0.000 HD
ENDBRANCH  13  14
BRANCH  13  17
ATOM     17  C   UNL     1       5.918   4.260  15.969  0.00  0.00    +0.000 C 
BRANCH  17  18
ATOM     18  C   UNL     1       6.360   4.323  14.535  0.00  0.00    +0.000 A 
ATOM     19  C   UNL     1       7.348   5.229  14.136  0.00  0.00    +0.000 A 
ATOM     20  C   UNL     1       7.801   5.248  12.823  0.00  0.00    +0.000 A 
ATOM     21  C   UNL     1       7.259   4.357  11.891  0.00  0.00    +0.000 A 
ATOM     22  C   UNL     1       6.256   3.473  12.275  0.00  0.00    +0.000 A 
ATOM     23  C   UNL     1       5.798   3.453  13.589  0.00  0.00    +0.000 A 
ENDBRANCH  17  18
ENDBRANCH  13  17
ENDBRANCH   1  13
TORSDOF 8
ENDMDL
MODEL 3
REMARK VINA RESULT:      -6.6      2.760      4.746
REMARK  Name = 
REMARK  9 active torsions:
REMARK  status: ('A' for Active; 'I' for Inactive)
REMARK    1  A    between atoms: C_1  and  C_2
REMARK    2  A    between atoms: C_2  and  C_3
REMARK    3  A    between atoms: C_2  and  N_10
REMARK    4  A    between atoms: C_3  and  C_4
REMARK    5  A    between atoms: N_10  and  C_11
REMARK    6  A    between atoms: C_11  and  C_12
REMARK    7  A    between atoms: C_12  and  N_13
REMARK    8  A    between atoms: C_12  and  C_14
REMARK    9  A    between atoms: C_14  and  C_15
REMARK                            x       y       z     vdW  Elec       q    Type
REMARK                         _______ _______ _______ _____ _____    ______ ____
ROOT
ATOM      1  C   UNL     1       5.789   6.019  17.718  0.00  0.00    +0.000 C 
ENDROOT
BRANCH   1   2
ATOM      2  N   UNL     1       4.448   6.108  17.112  0.00  0.00    +0.000 NA
ATOM      3  H   UNL     1       4.433   6.893  16.459  0.00  0.00    +0.000 HD
BRANCH   2   5
ATOM      4  C   UNL     1       2.955   7.798  17.996  0.00  0.00    +0.000 C 
ATOM      5  C   UNL     1       3.386   6.331  18.108  0.00  0.00    +0.000 C 
BRANCH   5   6
ATOM      6  C   UNL     1       2.181   5.380  17.892  0.00  0.00    +0.000 C 
BRANCH   6   7
ATOM      7  C   UNL     1       1.927   4.435  19.043  0.00  0.00    +0.000 A 
ATOM      8  C   UNL     1       2.141   4.846  20.367  0.00  0.00    +0.000 A 
ATOM      9  C   UNL     1       1.953   3.940  21.415  0.00  0.00    +0.000 A 
ATOM     10  C   UNL     1       1.549   2.640  21.149  0.00  0.00    +0.000 A 
ATOM     11  C   UNL     1       1.308   2.233  19.836  0.00  0.00    +0.000 A 
ATOM     12  C   UNL     1       1.487   3.133  18.790  0.00  0.00    +0.000 A 
ENDBRANCH   6   7
ENDBRANCH   5   6
ENDBRANCH   2   5
ENDBRANCH   1   2
BRANCH   1  13
ATOM     13  C   UNL     1       6.727   5.117  16.893  0.00  0.00    +0.000 C 
BRANCH  13  14
ATOM     14  N   UNL     1       7.605   4.318  17.770  0.00  0.00    +0.000 NA
ATOM     15  H   UNL     1       7.069   3.521  18.131  0.00  0.00    +0.000 HD
ATOM     16  H   UNL     1       7.868   4.868  18.579  0.00  0.00    +0.000 HD
ENDBRANCH  13  14
BRANCH  13  17
ATOM     17  C   UNL     1       5.893   4.236  15.946  0.00  0.00    +0.000 C 
BRANCH  17  18
ATOM     18  C   UNL     1       6.376   4.260  14.525  0.00  0.00    +0.000 A 
ATOM     19  C   UNL     1       5.744   3.485  13.548  0.00  0.00    +0.000 A 
ATOM     20  C   UNL     1       6.150   3.551  12.221  0.00  0.00    +0.000 A 
ATOM     21  C   UNL     1       7.206   4.394  11.862  0.00  0.00    +0.000 A 
ATOM     22  C   UNL     1       7.857   5.146  12.834  0.00  0.00    +0.000 A 
ATOM     23  C   UNL     1       7.454   5.081  14.164  0.00  0.00    +0.000 A 
ENDBRANCH  17  18
ENDBRANCH  13  17
ENDBRANCH   1  13
TORSDOF 8
ENDMDL
MODEL 4
REMARK VINA RESULT:      -6.6      0.370      1.139
REMARK  Name = 
REMARK  9 active torsions:
REMARK  status: ('A' for Active; 'I' for Inactive)
REMARK    1  A    between atoms: C_1  and  C_2
REMARK    2  A    between atoms: C_2  and  C_3
REMARK    3  A    between atoms: C_2  and  N_10
REMARK    4  A    between atoms: C_3  and  C_4
REMARK    5  A    between atoms: N_10  and  C_11
REMARK    6  A    between atoms: C_11  and  C_12
REMARK    7  A    between atoms: C_12  and  N_13
REMARK    8  A    between atoms: C_12  and  C_14
REMARK    9  A    between atoms: C_14  and  C_15
REMARK                            x       y       z     vdW  Elec       q    Type
REMARK                         _______ _______ _______ _____ _____    ______ ____
ROOT
ATOM      1  C   UNL     1       2.055   2.613  18.621  0.00  0.00    +0.000 C 
ENDROOT
BRANCH   1   2
ATOM      2  N   UNL     1       1.558   3.998  18.527  0.00  0.00    +0.000 NA
ATOM      3  H   UNL     1       2.203   4.540  17.951  0.00  0.00    +0.000 HD
BRANCH   2   5
ATOM      4  C   UNL     1       1.533   3.563  20.910  0.00  0.00    +0.000 C 
ATOM      5  C   UNL     1       1.463   4.659  19.840  0.00  0.00    +0.000 C 
BRANCH   5   6
ATOM      6  C   UNL     1       2.587   5.707  20.043  0.00  0.00    +0.000 C 
BRANCH   6   7
ATOM      7  C   UNL     1       2.229   7.095  19.568  0.00  0.00    +0.000 A 
ATOM      8  C   UNL     1       1.521   7.976  20.400  0.00  0.00    +0.000 A 
ATOM      9  C   UNL     1       1.151   9.236  19.921  0.00  0.00    +0.000 A 
ATOM     10  C   UNL     1       1.488   9.621  18.633  0.00  0.00    +0.000 A 
ATOM     11  C   UNL     1       2.216   8.759  17.810  0.00  0.00    +0.000 A 
ATOM     12  C   UNL     1       2.593   7.506  18.283  0.00  0.00    +0.000 A 
ENDBRANCH   6   7
ENDBRANCH   5   6
ENDBRANCH   2   5
ENDBRANCH   1   2
BRANCH   1  13
ATOM     13  C   UNL     1       3.583   2.543  18.432  0.00  0.00    +0.000 C 
BRANCH  13  14
ATOM     14  N   UNL     1       4.064   1.149  18.488  0.00  0.00    +0.000 NA
ATOM     15  H   UNL     1       3.251   0.523  18.509  0.00  0.00    +0.000 HD
ATOM     16  H   UNL     1       4.558   0.995  19.358  0.00  0.00    +0.000 HD
ENDBRANCH  13  14
BRANCH  13  17
ATOM     17  C   UNL     1       3.971   3.240  17.116  0.00  0.00    +0.000 C 
BRANCH  17  18
ATOM     18  C   UNL     1       4.856   4.436  17.310  0.00  0.00    +0.000 A 
ATOM     19  C   UNL     1       5.647   4.554  18.457  0.00  0.00    +0.000 A 
ATOM     20  C   UNL     1       6.513   5.630  18.613  0.00  0.00    +0.000 A 
ATOM     21  C   UNL     1       6.586   6.608  17.616  0.00  0.00    +0.000 A 
ATOM     22  C   UNL     1       5.781   6.511  16.486  0.00  0.00    +0.000 A 
ATOM     23  C   UNL     1       4.912   5.436  16.328  0.00  0.00    +0.000 A 
ENDBRANCH  17  18
ENDBRANCH  13  17
ENDBRANCH   1  13
TORSDOF 8
ENDMDL
MODEL 5
REMARK VINA RESULT:      -6.6      2.955      4.976
REMARK  Name = 
REMARK  9 active torsions:
REMARK  status: ('A' for Active; 'I' for Inactive)
REMARK    1  A    between atoms: C_1  and  C_2
REMARK    2  A    between atoms: C_2  and  C_3
REMARK    3  A    between atoms: C_2  and  N_10
REMARK    4  A    between atoms: C_3  and  C_4
REMARK    5  A    between atoms: N_10  and  C_11
REMARK    6  A    between atoms: C_11  and  C_12
REMARK    7  A    between atoms: C_12  and  N_13
REMARK    8  A    between atoms: C_12  and  C_14
REMARK    9  A    between atoms: C_14  and  C_15
REMARK                            x       y       z     vdW  Elec       q    Type
REMARK                         _______ _______ _______ _____ _____    ______ ____
ROOT
ATOM      1  C   UNL     1       6.419   6.168  17.337  0.00  0.00    +0.000 C 
ENDROOT
BRANCH   1   2
ATOM      2  N   UNL     1       5.599   5.763  18.494  0.00  0.00    +0.000 NA
ATOM      3  H   UNL     1       5.679   4.752  18.615  0.00  0.00    +0.000 HD
BRANCH   2   5
ATOM      4  C   UNL     1       4.082   7.250  17.329  0.00  0.00    +0.000 C 
ATOM      5  C   UNL     1       4.172   6.084  18.321  0.00  0.00    +0.000 C 
BRANCH   5   6
ATOM      6  C   UNL     1       3.360   4.863  17.819  0.00  0.00    +0.000 C 
BRANCH   6   7
ATOM      7  C   UNL     1       2.559   4.170  18.895  0.00  0.00    +0.000 A 
ATOM      8  C   UNL     1       1.490   3.327  18.561  0.00  0.00    +0.000 A 
ATOM      9  C   UNL     1       0.726   2.739  19.574  0.00  0.00    +0.000 A 
ATOM     10  C   UNL     1       1.027   2.980  20.905  0.00  0.00    +0.000 A 
ATOM     11  C   UNL     1       2.107   3.797  21.245  0.00  0.00    +0.000 A 
ATOM     12  C   UNL     1       2.875   4.379  20.241  0.00  0.00    +0.000 A 
ENDBRANCH   6   7
ENDBRANCH   5   6
ENDBRANCH   2   5
ENDBRANCH   1   2
BRANCH   1  13
ATOM     13  C   UNL     1       7.189   4.974  16.740  0.00  0.00    +0.000 C 
BRANCH  13  14
ATOM     14  N   UNL     1       7.839   4.176  17.798  0.00  0.00    +0.000 NA
ATOM     15  H   UNL     1       8.856   4.253  17.686  0.00  0.00    +0.000 HD
ATOM     16  H   UNL     1       7.617   3.197  17.669  0.00  0.00    +0.000 HD
ENDBRANCH  13  14
BRANCH  13  17
ATOM     17  C   UNL     1       6.237   4.129  15.875  0.00  0.00    +0.000 C 
BRANCH  17  18
ATOM     18  C   UNL     1       6.523   4.222  14.405  0.00  0.00    +0.000 A 
ATOM     19  C   UNL     1       7.473   5.129  13.923  0.00  0.00    +0.000 A 
ATOM     20  C   UNL     1       7.783   5.175  12.569  0.00  0.00    +0.000 A 
ATOM     21  C   UNL     1       7.134   4.312  11.681  0.00  0.00    +0.000 A 
ATOM     22  C   UNL     1       6.168   3.428  12.150  0.00  0.00    +0.000 A 
ATOM     23  C   UNL     1       5.854   3.380  13.504  0.00  0.00    +0.000 A 
ENDBRANCH  17  18
ENDBRANCH  13  17
ENDBRANCH   1  13
TORSDOF 8
ENDMDL
MODEL 6
REMARK VINA RESULT:      -6.5      0.394      1.570
REMARK  Name = 
REMARK  9 active torsions:
REMARK  status: ('A' for Active; 'I' for Inactive)
REMARK    1  A    between atoms: C_1  and  C_2
REMARK    2  A    between atoms: C_2  and  C_3
REMARK    3  A    between atoms: C_2  and  N_10
REMARK    4  A    between atoms: C_3  and  C_4
REMARK    5  A    between atoms: N_10  and  C_11
REMARK    6  A    between atoms: C_11  and  C_12
REMARK    7  A    between atoms: C_12  and  N_13
REMARK    8  A    between atoms: C_12  and  C_14
REMARK    9  A    between atoms: C_14  and  C_15
REMARK                            x       y       z     vdW  Elec       q    Type
REMARK                         _______ _______ _______ _____ _____    ______ ____
ROOT
ATOM      1  C   UNL     1       2.273   2.497  18.920  0.00  0.00    +0.000 C 
ENDROOT
BRANCH   1   2
ATOM      2  N   UNL     1       1.511   3.756  18.853  0.00  0.00    +0.000 NA
ATOM      3  H   UNL     1       1.979   4.391  18.204  0.00  0.00    +0.000 HD
BRANCH   2   5
ATOM      4  C   UNL     1       1.518   3.357  21.243  0.00  0.00    +0.000 C 
ATOM      5  C   UNL     1       1.418   4.436  20.157  0.00  0.00    +0.000 C 
BRANCH   5   6
ATOM      6  C   UNL     1       2.525   5.506  20.333  0.00  0.00    +0.000 C 
BRANCH   6   7
ATOM      7  C   UNL     1       2.208   6.833  19.687  0.00  0.00    +0.000 A 
ATOM      8  C   UNL     1       2.582   7.092  18.360  0.00  0.00    +0.000 A 
ATOM      9  C   UNL     1       2.328   8.347  17.799  0.00  0.00    +0.000 A 
ATOM     10  C   UNL     1       1.702   9.332  18.546  0.00  0.00    +0.000 A 
ATOM     11  C   UNL     1       1.303   9.073  19.859  0.00  0.00    +0.000 A 
ATOM     12  C   UNL     1       1.547   7.823  20.420  0.00  0.00    +0.000 A 
ENDBRANCH   6   7
ENDBRANCH   5   6
ENDBRANCH   2   5
ENDBRANCH   1   2
BRANCH   1  13
ATOM     13  C   UNL     1       3.791   2.744  18.805  0.00  0.00    +0.000 C 
BRANCH  13  14
ATOM     14  N   UNL     1       4.557   1.544  19.192  0.00  0.00    +0.000 NA
ATOM     15  H   UNL     1       4.464   0.843  18.449  0.00  0.00    +0.000 HD
ATOM     16  H   UNL     1       4.145   1.131  20.020  0.00  0.00    +0.000 HD
ENDBRANCH  13  14
BRANCH  13  17
ATOM     17  C   UNL     1       4.129   3.217  17.381  0.00  0.00    +0.000 C 
BRANCH  17  18
ATOM     18  C   UNL     1       4.932   4.485  17.346  0.00  0.00    +0.000 A 
ATOM     19  C   UNL     1       5.727   4.851  18.436  0.00  0.00    +0.000 A 
ATOM     20  C   UNL     1       6.518   5.992  18.384  0.00  0.00    +0.000 A 
ATOM     21  C   UNL     1       6.512   6.785  17.232  0.00  0.00    +0.000 A 
ATOM     22  C   UNL     1       5.702   6.441  16.155  0.00  0.00    +0.000 A 
ATOM     23  C   UNL     1       4.908   5.301  16.205  0.00  0.00    +0.000 A 
ENDBRANCH  17  18
ENDBRANCH  13  17
ENDBRANCH   1  13
TORSDOF 8
ENDMDL
MODEL 7
REMARK VINA RESULT:      -6.4      0.843      4.455
REMARK  Name = 
REMARK  9 active torsions:
REMARK  status: ('A' for Active; 'I' for Inactive)
REMARK    1  A    between atoms: C_1  and  C_2
REMARK    2  A    between atoms: C_2  and  C_3
REMARK    3  A    between atoms: C_2  and  N_10
REMARK    4  A    between atoms: C_3  and  C_4
REMARK    5  A    between atoms: N_10  and  C_11
REMARK    6  A    between atoms: C_11  and  C_12
REMARK    7  A    between atoms: C_12  and  N_13
REMARK    8  A    between atoms: C_12  and  C_14
REMARK    9  A    between atoms: C_14  and  C_15
REMARK                            x       y       z     vdW  Elec       q    Type
REMARK                         _______ _______ _______ _____ _____    ______ ____
ROOT
ATOM      1  C   UNL     1       1.161   3.703  18.791  0.00  0.00    +0.000 C 
ENDROOT
BRANCH   1   2
ATOM      2  N   UNL     1       1.853   2.405  18.699  0.00  0.00    +0.000 NA
ATOM      3  H   UNL     1       1.719   1.898  19.575  0.00  0.00    +0.000 HD
BRANCH   2   5
ATOM      4  C   UNL     1       3.888   1.132  18.372  0.00  0.00    +0.000 C 
ATOM      5  C   UNL     1       3.302   2.546  18.478  0.00  0.00    +0.000 C 
BRANCH   5   6
ATOM      6  C   UNL     1       3.616   3.374  17.207  0.00  0.00    +0.000 C 
BRANCH   6   7
ATOM      7  C   UNL     1       4.695   4.413  17.398  0.00  0.00    +0.000 A 
ATOM      8  C   UNL     1       5.432   4.469  18.590  0.00  0.00    +0.000 A 
ATOM      9  C   UNL     1       6.388   5.473  18.770  0.00  0.00    +0.000 A 
ATOM     10  C   UNL     1       6.616   6.407  17.771  0.00  0.00    +0.000 A 
ATOM     11  C   UNL     1       5.905   6.341  16.571  0.00  0.00    +0.000 A 
ATOM     12  C   UNL     1       4.957   5.339  16.385  0.00  0.00    +0.000 A 
ENDBRANCH   6   7
ENDBRANCH   5   6
ENDBRANCH   2   5
ENDBRANCH   1   2
BRANCH   1  13
ATOM     13  C   UNL     1       1.095   4.210  20.246  0.00  0.00    +0.000 C 
BRANCH  13  14
ATOM     14  N   UNL     1       1.035   3.085  21.200  0.00  0.00    +0.000 NA
ATOM     15  H   UNL     1       1.130   2.208  20.677  0.00  0.00    +0.000 HD
ATOM     16  H   UNL     1       0.120   3.055  21.632  0.00  0.00    +0.000 HD
ENDBRANCH  13  14
BRANCH  13  17
ATOM     17  C   UNL     1       2.286   5.144  20.520  0.00  0.00    +0.000 C 
BRANCH  17  18
ATOM     18  C   UNL     1       2.091   6.535  19.991  0.00  0.00    +0.000 A 
ATOM     19  C   UNL     1       2.558   6.882  18.720  0.00  0.00    +0.000 A 
ATOM     20  C   UNL     1       2.327   8.151  18.203  0.00  0.00    +0.000 A 
ATOM     21  C   UNL     1       1.626   9.091  18.966  0.00  0.00    +0.000 A 
ATOM     22  C   UNL     1       1.184   8.760  20.243  0.00  0.00    +0.000 A 
ATOM     23  C   UNL     1       1.416   7.492  20.763  0.00  0.00    +0.000 A 
ENDBRANCH  17  18
ENDBRANCH  13  17
ENDBRANCH   1  13
TORSDOF 8
ENDMDL
MODEL 8
REMARK VINA RESULT:      -6.4      2.746      6.552
REMARK  Name = 
REMARK  9 active torsions:
REMARK  status: ('A' for Active; 'I' for Inactive)
REMARK    1  A    between atoms: C_1  and  C_2
REMARK    2  A    between atoms: C_2  and  C_3
REMARK    3  A    between atoms: C_2  and  N_10
REMARK    4  A    between atoms: C_3  and  C_4
REMARK    5  A    between atoms: N_10  and  C_11
REMARK    6  A    between atoms: C_11  and  C_12
REMARK    7  A    between atoms: C_12  and  N_13
REMARK    8  A    between atoms: C_12  and  C_14
REMARK    9  A    between atoms: C_14  and  C_15
REMARK                            x       y       z     vdW  Elec       q    Type
REMARK                         _______ _______ _______ _____ _____    ______ ____
ROOT
ATOM      1  C   UNL     1       4.325   6.586  17.292  0.00  0.00    +0.000 C 
ENDROOT
BRANCH   1   2
ATOM      2  N   UNL     1       5.472   5.880  17.891  0.00  0.00    +0.000 NA
ATOM      3  H   UNL     1       6.008   6.542  18.454  0.00  0.00    +0.000 HD
BRANCH   2   5
ATOM      4  C   UNL     1       7.537   4.640  17.633  0.00  0.00    +0.000 C 
ATOM      5  C   UNL     1       6.380   5.310  16.881  0.00  0.00    +0.000 C 
BRANCH   5   6
ATOM      6  C   UNL     1       5.656   4.296  15.958  0.00  0.00    +0.000 C 
BRANCH   6   7
ATOM      7  C   UNL     1       6.147   4.303  14.531  0.00  0.00    +0.000 A 
ATOM      8  C   UNL     1       5.518   3.516  13.553  0.00  0.00    +0.000 A 
ATOM      9  C   UNL     1       6.022   3.494  12.250  0.00  0.00    +0.000 A 
ATOM     10  C   UNL     1       7.135   4.252  11.918  0.00  0.00    +0.000 A 
ATOM     11  C   UNL     1       7.749   5.057  12.879  0.00  0.00    +0.000 A 
ATOM     12  C   UNL     1       7.247   5.089  14.177  0.00  0.00    +0.000 A 
ENDBRANCH   6   7
ENDBRANCH   5   6
ENDBRANCH   2   5
ENDBRANCH   1   2
BRANCH   1  13
ATOM     13  C   UNL     1       3.118   6.623  18.251  0.00  0.00    +0.000 C 
BRANCH  13  14
ATOM     14  N   UNL     1       2.489   7.959  18.264  0.00  0.00    +0.000 NA
ATOM     15  H   UNL     1       1.518   7.866  17.947  0.00  0.00    +0.000 HD
ATOM     16  H   UNL     1       2.948   8.556  17.587  0.00  0.00    +0.000 HD
ENDBRANCH  13  14
BRANCH  13  17
ATOM     17  C   UNL     1       2.122   5.515  17.867  0.00  0.00    +0.000 C 
BRANCH  17  18
ATOM     18  C   UNL     1       1.921   4.491  18.947  0.00  0.00    +0.000 A 
ATOM     19  C   UNL     1       1.674   3.154  18.619  0.00  0.00    +0.000 A 
ATOM     20  C   UNL     1       1.547   2.194  19.615  0.00  0.00    +0.000 A 
ATOM     21  C   UNL     1       1.660   2.571  20.957  0.00  0.00    +0.000 A 
ATOM     22  C   UNL     1       1.877   3.903  21.290  0.00  0.00    +0.000 A 
ATOM     23  C   UNL     1       2.003   4.867  20.296  0.00  0.00    +0.000 A 
ENDBRANCH  17  18
ENDBRANCH  13  17
ENDBRANCH   1  13
TORSDOF 8
ENDMDL
MODEL 9
REMARK VINA RESULT:      -6.4      2.609      4.811
REMARK  Name = 
REMARK  9 active torsions:
REMARK  status: ('A' for Active; 'I' for Inactive)
REMARK    1  A    between atoms: C_1  and  C_2
REMARK    2  A    between atoms: C_2  and  C_3
REMARK    3  A    between atoms: C_2  and  N_10
REMARK    4  A    between atoms: C_3  and  C_4
REMARK    5  A    between atoms: N_10  and  C_11
REMARK    6  A    between atoms: C_11  and  C_12
REMARK    7  A    between atoms: C_12  and  N_13
REMARK    8  A    between atoms: C_12  and  C_14
REMARK    9  A    between atoms: C_14  and  C_15
REMARK                            x       y       z     vdW  Elec       q    Type
REMARK                         _______ _______ _______ _____ _____    ______ ____
ROOT
ATOM      1  C   UNL     1       5.386   6.318  17.803  0.00  0.00    +0.000 C 
ENDROOT
BRANCH   1   2
ATOM      2  N   UNL     1       3.969   6.392  17.403  0.00  0.00    +0.000 NA
ATOM      3  H   UNL     1       3.886   7.011  16.595  0.00  0.00    +0.000 HD
BRANCH   2   5
ATOM      4  C   UNL     1       2.268   8.057  17.856  0.00  0.00    +0.000 C 
ATOM      5  C   UNL     1       3.103   6.926  18.469  0.00  0.00    +0.000 C 
BRANCH   5   6
ATOM      6  C   UNL     1       2.192   5.830  19.078  0.00  0.00    +0.000 C 
BRANCH   6   7
ATOM      7  C   UNL     1       2.652   4.419  18.797  0.00  0.00    +0.000 A 
ATOM      8  C   UNL     1       2.144   3.705  17.702  0.00  0.00    +0.000 A 
ATOM      9  C   UNL     1       2.540   2.381  17.491  0.00  0.00    +0.000 A 
ATOM     10  C   UNL     1       3.440   1.776  18.355  0.00  0.00    +0.000 A 
ATOM     11  C   UNL     1       3.970   2.490  19.431  0.00  0.00    +0.000 A 
ATOM     12  C   UNL     1       3.584   3.810  19.642  0.00  0.00    +0.000 A 
ENDBRANCH   6   7
ENDBRANCH   5   6
ENDBRANCH   2   5
ENDBRANCH   1   2
BRANCH   1  13
ATOM     13  C   UNL     1       6.151   5.256  16.989  0.00  0.00    +0.000 C 
BRANCH  13  14
ATOM     14  N   UNL     1       6.730   4.224  17.871  0.00  0.00    +0.000 NA
ATOM     15  H   UNL     1       6.227   3.343  17.717  0.00  0.00    +0.000 HD
ATOM     16  H   UNL     1       6.567   4.474  18.838  0.00  0.00    +0.000 HD
ENDBRANCH  13  14
BRANCH  13  17
ATOM     17  C   UNL     1       5.219   4.655  15.922  0.00  0.00    +0.000 C 
BRANCH  17  18
ATOM     18  C   UNL     1       5.882   4.458  14.590  0.00  0.00    +0.000 A 
ATOM     19  C   UNL     1       5.286   3.654  13.613  0.00  0.00    +0.000 A 
ATOM     20  C   UNL     1       5.867   3.518  12.358  0.00  0.00    +0.000 A 
ATOM     21  C   UNL     1       7.063   4.185  12.074  0.00  0.00    +0.000 A 
ATOM     22  C   UNL     1       7.675   4.963  13.051  0.00  0.00    +0.000 A 
ATOM     23  C   UNL     1       7.097   5.100  14.308  0.00  0.00    +0.000 A 
ENDBRANCH  17  18
ENDBRANCH  13  17
ENDBRANCH   1  13
TORSDOF 8
ENDMDL
