MODEL 1
REMARK VINA RESULT:     -10.1      0.000      0.000
REMARK  Name = 
REMARK  5 active torsions:
REMARK  status: ('A' for Active; 'I' for Inactive)
REMARK    1  A    between atoms: C_2  and  O_10
REMARK    2  A    between atoms: N_3  and  C_4
REMARK    3  A    between atoms: O_10  and  C_11
REMARK    4  A    between atoms: C_13  and  C_14
REMARK    5  A    between atoms: C_21  and  C_22
REMARK                            x       y       z     vdW  Elec       q    Type
REMARK                         _______ _______ _______ _____ _____    ______ ____
ROOT
ATOM      1  C   UNL     1       7.006   6.056  17.962  0.00  0.00    +0.000 A 
ATOM      2  C   UNL     1       7.252   5.640  16.655  0.00  0.00    +0.000 A 
ATOM      3  C   UNL     1       6.290   4.914  15.937  0.00  0.00    +0.000 A 
ATOM      4  C   UNL     1       5.111   4.551  16.621  0.00  0.00    +0.000 A 
ATOM      5  C   UNL     1       4.836   4.943  17.949  0.00  0.00    +0.000 A 
ATOM      6  C   UNL     1       5.820   5.698  18.608  0.00  0.00    +0.000 A 
ENDROOT
BRANCH   3   7
ATOM      7  C   UNL     1       6.461   4.617  14.496  0.00  0.00    +0.000 A 
ATOM      8  C   UNL     1       7.492   5.179  13.719  0.00  0.00    +0.000 A 
ATOM      9  C   UNL     1       7.664   4.829  12.376  0.00  0.00    +0.000 A 
ATOM     10  C   UNL     1       6.800   3.922  11.771  0.00  0.00    +0.000 A 
ATOM     11  C   UNL     1       5.772   3.352  12.510  0.00  0.00    +0.000 A 
ATOM     12  C   UNL     1       5.613   3.687  13.856  0.00  0.00    +0.000 A 
ENDBRANCH   3   7
BRANCH   5  13
ATOM     13  C   UNL     1       3.539   4.606  18.598  0.00  0.00    +0.000 A 
ATOM     14  C   UNL     1       2.570   3.810  17.958  0.00  0.00    +0.000 A 
ATOM     15  C   UNL     1       1.353   3.496  18.576  0.00  0.00    +0.000 A 
ATOM     16  C   UNL     1       1.068   3.981  19.848  0.00  0.00    +0.000 A 
ATOM     17  C   UNL     1       2.005   4.766  20.508  0.00  0.00    +0.000 A 
ATOM     18  C   UNL     1       3.226   5.061  19.895  0.00  0.00    +0.000 A 
ENDBRANCH   5  13
BRANCH   1  19
ATOM     19  O   UNL     1       8.022   6.845  18.555  0.00  0.00    +0.000 OA
BRANCH  19  21
ATOM     20  O   UNL     1       7.541   8.761  17.343  0.00  0.00    +0.000 OA
ATOM     21  C   UNL     1       8.119   8.207  18.269  0.00  0.00    +0.000 C 
ATOM     22  N   UNL     1       8.999   8.809  19.140  0.00  0.00    +0.000 N 
ATOM     23  H   UNL     1       9.560   8.179  19.695  0.00  0.00    +0.000 HD
BRANCH  22  24
ATOM     24  C   UNL     1       9.293  10.188  19.179  0.00  0.00    +0.000 A 
ATOM     25  C   UNL     1       9.574  10.928  18.025  0.00  0.00    +0.000 A 
ATOM     26  C   UNL     1       9.893  12.285  18.105  0.00  0.00    +0.000 A 
ATOM     27  C   UNL     1       9.933  12.918  19.342  0.00  0.00    +0.000 A 
ATOM     28  C   UNL     1       9.630  12.198  20.497  0.00  0.00    +0.000 A 
ATOM     29  C   UNL     1       9.296  10.840  20.416  0.00  0.00    +0.000 A 
ENDBRANCH  22  24
ENDBRANCH  19  21
ENDBRANCH   1  19
TORSDOF 5
ENDMDL
MODEL 2
REMARK VINA RESULT:     -10.1      0.066      1.285
REMARK  Name = 
REMARK  5 active torsions:
REMARK  status: ('A' for Active; 'I' for Inactive)
REMARK    1  A    between atoms: C_2  and  O_10
REMARK    2  A    between atoms: N_3  and  C_4
REMARK    3  A    between atoms: O_10  and  C_11
REMARK    4  A    between atoms: C_13  and  C_14
REMARK    5  A    between atoms: C_21  and  C_22
REMARK                            x       y       z     vdW  Elec       q    Type
REMARK                         _______ _______ _______ _____ _____    ______ ____
ROOT
ATOM      1  C   UNL     1       7.028   6.030  17.986  0.00  0.00    +0.000 A 
ATOM      2  C   UNL     1       7.288   5.592  16.689  0.00  0.00    +0.000 A 
ATOM      3  C   UNL     1       6.335   4.850  15.974  0.00  0.00    +0.000 A 
ATOM      4  C   UNL     1       5.150   4.496  16.653  0.00  0.00    +0.000 A 
ATOM      5  C   UNL     1       4.861   4.910  17.971  0.00  0.00    +0.000 A 
ATOM      6  C   UNL     1       5.837   5.679  18.626  0.00  0.00    +0.000 A 
ENDROOT
BRANCH   3   7
ATOM      7  C   UNL     1       6.521   4.528  14.541  0.00  0.00    +0.000 A 
ATOM      8  C   UNL     1       5.684   3.635  13.845  0.00  0.00    +0.000 A 
ATOM      9  C   UNL     1       5.849   3.400  12.476  0.00  0.00    +0.000 A 
ATOM     10  C   UNL     1       6.865   4.039  11.772  0.00  0.00    +0.000 A 
ATOM     11  C   UNL     1       7.708   4.925  12.430  0.00  0.00    +0.000 A 
ATOM     12  C   UNL     1       7.531   5.172  13.793  0.00  0.00    +0.000 A 
ENDBRANCH   3   7
BRANCH   5  13
ATOM     13  C   UNL     1       3.559   4.581  18.613  0.00  0.00    +0.000 A 
ATOM     14  C   UNL     1       3.206   5.079  19.882  0.00  0.00    +0.000 A 
ATOM     15  C   UNL     1       1.979   4.767  20.478  0.00  0.00    +0.000 A 
ATOM     16  C   UNL     1       1.075   3.936  19.826  0.00  0.00    +0.000 A 
ATOM     17  C   UNL     1       1.390   3.431  18.571  0.00  0.00    +0.000 A 
ATOM     18  C   UNL     1       2.609   3.761  17.971  0.00  0.00    +0.000 A 
ENDBRANCH   5  13
BRANCH   1  19
ATOM     19  O   UNL     1       8.036   6.832  18.574  0.00  0.00    +0.000 OA
BRANCH  19  21
ATOM     20  O   UNL     1       7.550   8.730  17.336  0.00  0.00    +0.000 OA
ATOM     21  C   UNL     1       8.127   8.191  18.272  0.00  0.00    +0.000 C 
ATOM     22  N   UNL     1       8.999   8.809  19.139  0.00  0.00    +0.000 N 
ATOM     23  H   UNL     1       9.562   8.188  19.705  0.00  0.00    +0.000 HD
BRANCH  22  24
ATOM     24  C   UNL     1       9.286  10.189  19.162  0.00  0.00    +0.000 A 
ATOM     25  C   UNL     1       9.546  10.921  17.998  0.00  0.00    +0.000 A 
ATOM     26  C   UNL     1       9.858  12.280  18.061  0.00  0.00    +0.000 A 
ATOM     27  C   UNL     1       9.912  12.924  19.293  0.00  0.00    +0.000 A 
ATOM     28  C   UNL     1       9.629  12.213  20.458  0.00  0.00    +0.000 A 
ATOM     29  C   UNL     1       9.302  10.852  20.393  0.00  0.00    +0.000 A 
ENDBRANCH  22  24
ENDBRANCH  19  21
ENDBRANCH   1  19
TORSDOF 5
ENDMDL
MODEL 3
REMARK VINA RESULT:     -10.0      0.102      1.286
REMARK  Name = 
REMARK  5 active torsions:
REMARK  status: ('A' for Active; 'I' for Inactive)
REMARK    1  A    between atoms: C_2  and  O_10
REMARK    2  A    between atoms: N_3  and  C_4
REMARK    3  A    between atoms: O_10  and  C_11
REMARK    4  A    between atoms: C_13  and  C_14
REMARK    5  A    between atoms: C_21  and  C_22
REMARK                            x       y       z     vdW  Elec       q    Type
REMARK                         _______ _______ _______ _____ _____    ______ ____
ROOT
ATOM      1  C   UNL     1       6.994   6.054  18.013  0.00  0.00    +0.000 A 
ATOM      2  C   UNL     1       7.247   5.647  16.705  0.00  0.00    +0.000 A 
ATOM      3  C   UNL     1       6.291   4.920  15.979  0.00  0.00    +0.000 A 
ATOM      4  C   UNL     1       5.112   4.547  16.657  0.00  0.00    +0.000 A 
ATOM      5  C   UNL     1       4.830   4.929  17.986  0.00  0.00    +0.000 A 
ATOM      6  C   UNL     1       5.809   5.686  18.653  0.00  0.00    +0.000 A 
ENDROOT
BRANCH   3   7
ATOM      7  C   UNL     1       6.469   4.632  14.537  0.00  0.00    +0.000 A 
ATOM      8  C   UNL     1       7.507   5.194  13.770  0.00  0.00    +0.000 A 
ATOM      9  C   UNL     1       7.684   4.854  12.425  0.00  0.00    +0.000 A 
ATOM     10  C   UNL     1       6.818   3.956  11.809  0.00  0.00    +0.000 A 
ATOM     11  C   UNL     1       5.784   3.385  12.539  0.00  0.00    +0.000 A 
ATOM     12  C   UNL     1       5.619   3.712  13.886  0.00  0.00    +0.000 A 
ENDBRANCH   3   7
BRANCH   5  13
ATOM     13  C   UNL     1       3.533   4.581  18.629  0.00  0.00    +0.000 A 
ATOM     14  C   UNL     1       3.136   5.142  19.858  0.00  0.00    +0.000 A 
ATOM     15  C   UNL     1       1.914   4.812  20.455  0.00  0.00    +0.000 A 
ATOM     16  C   UNL     1       1.060   3.900  19.844  0.00  0.00    +0.000 A 
ATOM     17  C   UNL     1       1.420   3.332  18.629  0.00  0.00    +0.000 A 
ATOM     18  C   UNL     1       2.633   3.679  18.027  0.00  0.00    +0.000 A 
ENDBRANCH   5  13
BRANCH   1  19
ATOM     19  O   UNL     1       8.004   6.845  18.614  0.00  0.00    +0.000 OA
BRANCH  19  21
ATOM     20  O   UNL     1       7.603   8.728  17.323  0.00  0.00    +0.000 OA
ATOM     21  C   UNL     1       8.132   8.196  18.291  0.00  0.00    +0.000 C 
ATOM     22  N   UNL     1       8.979   8.815  19.182  0.00  0.00    +0.000 N 
ATOM     23  H   UNL     1       9.507   8.196  19.781  0.00  0.00    +0.000 HD
BRANCH  22  24
ATOM     24  C   UNL     1       9.290  10.191  19.192  0.00  0.00    +0.000 A 
ATOM     25  C   UNL     1       9.327  10.943  20.372  0.00  0.00    +0.000 A 
ATOM     26  C   UNL     1       9.606  12.310  20.341  0.00  0.00    +0.000 A 
ATOM     27  C   UNL     1       9.855  12.941  19.127  0.00  0.00    +0.000 A 
ATOM     28  C   UNL     1       9.847  12.198  17.947  0.00  0.00    +0.000 A 
ATOM     29  C   UNL     1       9.580  10.824  17.980  0.00  0.00    +0.000 A 
ENDBRANCH  22  24
ENDBRANCH  19  21
ENDBRANCH   1  19
TORSDOF 5
ENDMDL
MODEL 4
REMARK VINA RESULT:      -9.9      0.289      5.192
REMARK  Name = 
REMARK  5 active torsions:
REMARK  status: ('A' for Active; 'I' for Inactive)
REMARK    1  A    between atoms: C_2  and  O_10
REMARK    2  A    between atoms: N_3  and  C_4
REMARK    3  A    between atoms: O_10  and  C_11
REMARK    4  A    between atoms: C_13  and  C_14
REMARK    5  A    between atoms: C_21  and  C_22
REMARK                            x       y       z     vdW  Elec       q    Type
REMARK                         _______ _______ _______ _____ _____    ______ ____
ROOT
ATOM      1  C   UNL     1       6.934   6.318  17.685  0.00  0.00    +0.000 A 
ATOM      2  C   UNL     1       5.745   6.053  18.360  0.00  0.00    +0.000 A 
ATOM      3  C   UNL     1       4.729   5.295  17.760  0.00  0.00    +0.000 A 
ATOM      4  C   UNL     1       4.927   4.892  16.422  0.00  0.00    +0.000 A 
ATOM      5  C   UNL     1       6.113   5.156  15.703  0.00  0.00    +0.000 A 
ATOM      6  C   UNL     1       7.111   5.890  16.367  0.00  0.00    +0.000 A 
ENDROOT
BRANCH   3   7
ATOM      7  C   UNL     1       3.537   4.856  18.522  0.00  0.00    +0.000 A 
ATOM      8  C   UNL     1       3.255   5.311  19.824  0.00  0.00    +0.000 A 
ATOM      9  C   UNL     1       2.089   4.926  20.493  0.00  0.00    +0.000 A 
ATOM     10  C   UNL     1       1.183   4.064  19.883  0.00  0.00    +0.000 A 
ATOM     11  C   UNL     1       1.433   3.597  18.600  0.00  0.00    +0.000 A 
ATOM     12  C   UNL     1       2.588   3.996  17.926  0.00  0.00    +0.000 A 
ENDBRANCH   3   7
BRANCH   5  13
ATOM     13  C   UNL     1       6.308   4.636  14.322  0.00  0.00    +0.000 A 
ATOM     14  C   UNL     1       7.415   5.006  13.536  0.00  0.00    +0.000 A 
ATOM     15  C   UNL     1       7.592   4.511  12.238  0.00  0.00    +0.000 A 
ATOM     16  C   UNL     1       6.658   3.641  11.686  0.00  0.00    +0.000 A 
ATOM     17  C   UNL     1       5.556   3.253  12.438  0.00  0.00    +0.000 A 
ATOM     18  C   UNL     1       5.393   3.735  13.740  0.00  0.00    +0.000 A 
ENDBRANCH   5  13
BRANCH   1  19
ATOM     19  O   UNL     1       7.912   7.029  18.423  0.00  0.00    +0.000 OA
BRANCH  19  21
ATOM     20  O   UNL     1       7.590   9.031  17.302  0.00  0.00    +0.000 OA
ATOM     21  C   UNL     1       8.106   8.394  18.212  0.00  0.00    +0.000 C 
ATOM     22  N   UNL     1       8.998   8.891  19.135  0.00  0.00    +0.000 N 
ATOM     23  H   UNL     1       9.501   8.197  19.670  0.00  0.00    +0.000 HD
BRANCH  22  24
ATOM     24  C   UNL     1       9.380  10.243  19.254  0.00  0.00    +0.000 A 
ATOM     25  C   UNL     1       9.802  11.003  18.157  0.00  0.00    +0.000 A 
ATOM     26  C   UNL     1      10.204  12.330  18.317  0.00  0.00    +0.000 A 
ATOM     27  C   UNL     1      10.187  12.914  19.579  0.00  0.00    +0.000 A 
ATOM     28  C   UNL     1       9.745  12.176  20.676  0.00  0.00    +0.000 A 
ATOM     29  C   UNL     1       9.328  10.849  20.513  0.00  0.00    +0.000 A 
ENDBRANCH  22  24
ENDBRANCH  19  21
ENDBRANCH   1  19
TORSDOF 5
ENDMDL
MODEL 5
REMARK VINA RESULT:      -9.9      0.322      5.214
REMARK  Name = 
REMARK  5 active torsions:
REMARK  status: ('A' for Active; 'I' for Inactive)
REMARK    1  A    between atoms: C_2  and  O_10
REMARK    2  A    between atoms: N_3  and  C_4
REMARK    3  A    between atoms: O_10  and  C_11
REMARK    4  A    between atoms: C_13  and  C_14
REMARK    5  A    between atoms: C_21  and  C_22
REMARK                            x       y       z     vdW  Elec       q    Type
REMARK                         _______ _______ _______ _____ _____    ______ ____
ROOT
ATOM      1  C   UNL     1       6.829   6.271  17.647  0.00  0.00    +0.000 A 
ATOM      2  C   UNL     1       5.627   6.014  18.302  0.00  0.00    +0.000 A 
ATOM      3  C   UNL     1       4.616   5.263  17.683  0.00  0.00    +0.000 A 
ATOM      4  C   UNL     1       4.835   4.861  16.349  0.00  0.00    +0.000 A 
ATOM      5  C   UNL     1       6.034   5.118  15.651  0.00  0.00    +0.000 A 
ATOM      6  C   UNL     1       7.025   5.844  16.332  0.00  0.00    +0.000 A 
ENDROOT
BRANCH   3   7
ATOM      7  C   UNL     1       3.409   4.832  18.425  0.00  0.00    +0.000 A 
ATOM      8  C   UNL     1       2.365   4.103  17.824  0.00  0.00    +0.000 A 
ATOM      9  C   UNL     1       1.267   3.657  18.568  0.00  0.00    +0.000 A 
ATOM     10  C   UNL     1       1.178   3.942  19.926  0.00  0.00    +0.000 A 
ATOM     11  C   UNL     1       2.191   4.661  20.548  0.00  0.00    +0.000 A 
ATOM     12  C   UNL     1       3.294   5.090  19.809  0.00  0.00    +0.000 A 
ENDBRANCH   3   7
BRANCH   5  13
ATOM     13  C   UNL     1       6.248   4.599  14.272  0.00  0.00    +0.000 A 
ATOM     14  C   UNL     1       5.365   3.678  13.676  0.00  0.00    +0.000 A 
ATOM     15  C   UNL     1       5.572   3.196  12.378  0.00  0.00    +0.000 A 
ATOM     16  C   UNL     1       6.677   3.613  11.645  0.00  0.00    +0.000 A 
ATOM     17  C   UNL     1       7.566   4.524  12.202  0.00  0.00    +0.000 A 
ATOM     18  C   UNL     1       7.345   5.017  13.491  0.00  0.00    +0.000 A 
ENDBRANCH   5  13
BRANCH   1  19
ATOM     19  O   UNL     1       7.800   6.975  18.403  0.00  0.00    +0.000 OA
BRANCH  19  21
ATOM     20  O   UNL     1       7.469   8.991  17.309  0.00  0.00    +0.000 OA
ATOM     21  C   UNL     1       8.013   8.337  18.190  0.00  0.00    +0.000 C 
ATOM     22  N   UNL     1       8.958   8.809  19.072  0.00  0.00    +0.000 N 
ATOM     23  H   UNL     1       9.471   8.101  19.579  0.00  0.00    +0.000 HD
BRANCH  22  24
ATOM     24  C   UNL     1       9.375  10.152  19.181  0.00  0.00    +0.000 A 
ATOM     25  C   UNL     1       9.880  10.871  18.091  0.00  0.00    +0.000 A 
ATOM     26  C   UNL     1      10.313  12.189  18.242  0.00  0.00    +0.000 A 
ATOM     27  C   UNL     1      10.244  12.805  19.487  0.00  0.00    +0.000 A 
ATOM     28  C   UNL     1       9.719  12.108  20.575  0.00  0.00    +0.000 A 
ATOM     29  C   UNL     1       9.271  10.790  20.420  0.00  0.00    +0.000 A 
ENDBRANCH  22  24
ENDBRANCH  19  21
ENDBRANCH   1  19
TORSDOF 5
ENDMDL
MODEL 6
REMARK VINA RESULT:      -9.6      0.566      5.289
REMARK  Name = 
REMARK  5 active torsions:
REMARK  status: ('A' for Active; 'I' for Inactive)
REMARK    1  A    between atoms: C_2  and  O_10
REMARK    2  A    between atoms: N_3  and  C_4
REMARK    3  A    between atoms: O_10  and  C_11
REMARK    4  A    between atoms: C_13  and  C_14
REMARK    5  A    between atoms: C_21  and  C_22
REMARK                            x       y       z     vdW  Elec       q    Type
REMARK                         _______ _______ _______ _____ _____    ______ ____
ROOT
ATOM      1  C   UNL     1       7.062   6.290  17.829  0.00  0.00    +0.000 A 
ATOM      2  C   UNL     1       5.936   5.937  18.570  0.00  0.00    +0.000 A 
ATOM      3  C   UNL     1       4.934   5.127  18.015  0.00  0.00    +0.000 A 
ATOM      4  C   UNL     1       5.074   4.763  16.659  0.00  0.00    +0.000 A 
ATOM      5  C   UNL     1       6.193   5.116  15.875  0.00  0.00    +0.000 A 
ATOM      6  C   UNL     1       7.182   5.900  16.493  0.00  0.00    +0.000 A 
ENDROOT
BRANCH   3   7
ATOM      7  C   UNL     1       3.822   4.598  18.838  0.00  0.00    +0.000 A 
ATOM      8  C   UNL     1       3.596   3.221  19.019  0.00  0.00    +0.000 A 
ATOM      9  C   UNL     1       2.574   2.754  19.854  0.00  0.00    +0.000 A 
ATOM     10  C   UNL     1       1.743   3.654  20.514  0.00  0.00    +0.000 A 
ATOM     11  C   UNL     1       1.940   5.019  20.355  0.00  0.00    +0.000 A 
ATOM     12  C   UNL     1       2.971   5.483  19.536  0.00  0.00    +0.000 A 
ENDBRANCH   3   7
BRANCH   5  13
ATOM     13  C   UNL     1       6.334   4.637  14.473  0.00  0.00    +0.000 A 
ATOM     14  C   UNL     1       5.388   3.777  13.881  0.00  0.00    +0.000 A 
ATOM     15  C   UNL     1       5.527   3.332  12.561  0.00  0.00    +0.000 A 
ATOM     16  C   UNL     1       6.622   3.725  11.800  0.00  0.00    +0.000 A 
ATOM     17  C   UNL     1       7.571   4.576  12.353  0.00  0.00    +0.000 A 
ATOM     18  C   UNL     1       7.419   5.034  13.666  0.00  0.00    +0.000 A 
ENDBRANCH   5  13
BRANCH   1  19
ATOM     19  O   UNL     1       8.037   7.048  18.522  0.00  0.00    +0.000 OA
BRANCH  19  21
ATOM     20  O   UNL     1       7.596   9.024  17.394  0.00  0.00    +0.000 OA
ATOM     21  C   UNL     1       8.163   8.419  18.295  0.00  0.00    +0.000 C 
ATOM     22  N   UNL     1       9.055   8.965  19.190  0.00  0.00    +0.000 N 
ATOM     23  H   UNL     1       9.603   8.299  19.717  0.00  0.00    +0.000 HD
BRANCH  22  24
ATOM     24  C   UNL     1       9.379  10.334  19.287  0.00  0.00    +0.000 A 
ATOM     25  C   UNL     1       9.337  11.030  20.501  0.00  0.00    +0.000 A 
ATOM     26  C   UNL     1       9.633  12.393  20.555  0.00  0.00    +0.000 A 
ATOM     27  C   UNL     1       9.977  13.076  19.393  0.00  0.00    +0.000 A 
ATOM     28  C   UNL     1      10.048  12.388  18.182  0.00  0.00    +0.000 A 
ATOM     29  C   UNL     1       9.765  11.018  18.130  0.00  0.00    +0.000 A 
ENDBRANCH  22  24
ENDBRANCH  19  21
ENDBRANCH   1  19
TORSDOF 5
ENDMDL
MODEL 7
REMARK VINA RESULT:      -9.2      1.123      1.820
REMARK  Name = 
REMARK  5 active torsions:
REMARK  status: ('A' for Active; 'I' for Inactive)
REMARK    1  A    between atoms: C_2  and  O_10
REMARK    2  A    between atoms: N_3  and  C_4
REMARK    3  A    between atoms: O_10  and  C_11
REMARK    4  A    between atoms: C_13  and  C_14
REMARK    5  A    between atoms: C_21  and  C_22
REMARK                            x       y       z     vdW  Elec       q    Type
REMARK                         _______ _______ _______ _____ _____    ______ ____
ROOT
ATOM      1  C   UNL     1       6.335   7.103  17.068  0.00  0.00    +0.000 A 
ATOM      2  C   UNL     1       6.609   6.446  15.870  0.00  0.00    +0.000 A 
ATOM      3  C   UNL     1       6.095   5.165  15.617  0.00  0.00    +0.000 A 
ATOM      4  C   UNL     1       5.370   4.544  16.655  0.00  0.00    +0.000 A 
ATOM      5  C   UNL     1       5.087   5.173  17.886  0.00  0.00    +0.000 A 
ATOM      6  C   UNL     1       5.599   6.469  18.071  0.00  0.00    +0.000 A 
ENDROOT
BRANCH   3   7
ATOM      7  C   UNL     1       6.228   4.528  14.287  0.00  0.00    +0.000 A 
ATOM      8  C   UNL     1       5.244   3.677  13.748  0.00  0.00    +0.000 A 
ATOM      9  C   UNL     1       5.371   3.139  12.463  0.00  0.00    +0.000 A 
ATOM     10  C   UNL     1       6.493   3.426  11.691  0.00  0.00    +0.000 A 
ATOM     11  C   UNL     1       7.481   4.261  12.195  0.00  0.00    +0.000 A 
ATOM     12  C   UNL     1       7.344   4.811  13.470  0.00  0.00    +0.000 A 
ENDBRANCH   3   7
BRANCH   5  13
ATOM     13  C   UNL     1       4.246   4.506  18.917  0.00  0.00    +0.000 A 
ATOM     14  C   UNL     1       4.414   3.149  19.253  0.00  0.00    +0.000 A 
ATOM     15  C   UNL     1       3.620   2.530  20.225  0.00  0.00    +0.000 A 
ATOM     16  C   UNL     1       2.626   3.249  20.880  0.00  0.00    +0.000 A 
ATOM     17  C   UNL     1       2.437   4.591  20.574  0.00  0.00    +0.000 A 
ATOM     18  C   UNL     1       3.245   5.211  19.617  0.00  0.00    +0.000 A 
ENDBRANCH   5  13
BRANCH   1  19
ATOM     19  O   UNL     1       6.848   8.419  17.175  0.00  0.00    +0.000 OA
BRANCH  19  21
ATOM     20  O   UNL     1       8.570   7.835  18.612  0.00  0.00    +0.000 OA
ATOM     21  C   UNL     1       7.960   8.684  17.974  0.00  0.00    +0.000 C 
ATOM     22  N   UNL     1       8.224  10.035  17.981  0.00  0.00    +0.000 N 
ATOM     23  H   UNL     1       7.499  10.621  17.591  0.00  0.00    +0.000 HD
BRANCH  22  24
ATOM     24  C   UNL     1       9.310  10.651  18.636  0.00  0.00    +0.000 A 
ATOM     25  C   UNL     1       9.341  10.840  20.023  0.00  0.00    +0.000 A 
ATOM     26  C   UNL     1      10.419  11.482  20.634  0.00  0.00    +0.000 A 
ATOM     27  C   UNL     1      11.481  11.944  19.863  0.00  0.00    +0.000 A 
ATOM     28  C   UNL     1      11.474  11.739  18.484  0.00  0.00    +0.000 A 
ATOM     29  C   UNL     1      10.399  11.082  17.873  0.00  0.00    +0.000 A 
ENDBRANCH  22  24
ENDBRANCH  19  21
ENDBRANCH   1  19
TORSDOF 5
ENDMDL
MODEL 8
REMARK VINA RESULT:      -9.0      1.142      1.584
REMARK  Name = 
REMARK  5 active torsions:
REMARK  status: ('A' for Active; 'I' for Inactive)
REMARK    1  A    between atoms: C_2  and  O_10
REMARK    2  A    between atoms: N_3  and  C_4
REMARK    3  A    between atoms: O_10  and  C_11
REMARK    4  A    between atoms: C_13  and  C_14
REMARK    5  A    between atoms: C_21  and  C_22
REMARK                            x       y       z     vdW  Elec       q    Type
REMARK                         _______ _______ _______ _____ _____    ______ ____
ROOT
ATOM      1  C   UNL     1       6.116   7.047  17.053  0.00  0.00    +0.000 A 
ATOM      2  C   UNL     1       6.509   6.443  15.860  0.00  0.00    +0.000 A 
ATOM      3  C   UNL     1       6.057   5.160  15.519  0.00  0.00    +0.000 A 
ATOM      4  C   UNL     1       5.266   4.480  16.469  0.00  0.00    +0.000 A 
ATOM      5  C   UNL     1       4.861   5.055  17.692  0.00  0.00    +0.000 A 
ATOM      6  C   UNL     1       5.316   6.356  17.966  0.00  0.00    +0.000 A 
ENDROOT
BRANCH   3   7
ATOM      7  C   UNL     1       6.321   4.576  14.184  0.00  0.00    +0.000 A 
ATOM      8  C   UNL     1       5.471   3.627  13.586  0.00  0.00    +0.000 A 
ATOM      9  C   UNL     1       5.715   3.141  12.297  0.00  0.00    +0.000 A 
ATOM     10  C   UNL     1       6.824   3.580  11.580  0.00  0.00    +0.000 A 
ATOM     11  C   UNL     1       7.682   4.515  12.144  0.00  0.00    +0.000 A 
ATOM     12  C   UNL     1       7.427   5.012  13.423  0.00  0.00    +0.000 A 
ENDBRANCH   3   7
BRANCH   5  13
ATOM     13  C   UNL     1       3.956   4.327  18.623  0.00  0.00    +0.000 A 
ATOM     14  C   UNL     1       2.578   4.610  18.697  0.00  0.00    +0.000 A 
ATOM     15  C   UNL     1       1.733   3.920  19.574  0.00  0.00    +0.000 A 
ATOM     16  C   UNL     1       2.246   2.935  20.411  0.00  0.00    +0.000 A 
ATOM     17  C   UNL     1       3.600   2.629  20.360  0.00  0.00    +0.000 A 
ATOM     18  C   UNL     1       4.437   3.308  19.469  0.00  0.00    +0.000 A 
ENDBRANCH   5  13
BRANCH   1  19
ATOM     19  O   UNL     1       6.578   8.372  17.250  0.00  0.00    +0.000 OA
BRANCH  19  21
ATOM     20  O   UNL     1       8.442   7.744  18.474  0.00  0.00    +0.000 OA
ATOM     21  C   UNL     1       7.770   8.613  17.932  0.00  0.00    +0.000 C 
ATOM     22  N   UNL     1       8.036   9.963  17.952  0.00  0.00    +0.000 N 
ATOM     23  H   UNL     1       7.276  10.560  17.660  0.00  0.00    +0.000 HD
BRANCH  22  24
ATOM     24  C   UNL     1       9.189  10.559  18.505  0.00  0.00    +0.000 A 
ATOM     25  C   UNL     1      10.254  11.008  17.716  0.00  0.00    +0.000 A 
ATOM     26  C   UNL     1      11.393  11.565  18.299  0.00  0.00    +0.000 A 
ATOM     27  C   UNL     1      11.479  11.680  19.682  0.00  0.00    +0.000 A 
ATOM     28  C   UNL     1      10.414  11.261  20.479  0.00  0.00    +0.000 A 
ATOM     29  C   UNL     1       9.265  10.715  19.892  0.00  0.00    +0.000 A 
ENDBRANCH  22  24
ENDBRANCH  19  21
ENDBRANCH   1  19
TORSDOF 5
ENDMDL
MODEL 9
REMARK VINA RESULT:      -9.0      1.166      1.711
REMARK  Name = 
REMARK  5 active torsions:
REMARK  status: ('A' for Active; 'I' for Inactive)
REMARK    1  A    between atoms: C_2  and  O_10
REMARK    2  A    between atoms: N_3  and  C_4
REMARK    3  A    between atoms: O_10  and  C_11
REMARK    4  A    between atoms: C_13  and  C_14
REMARK    5  A    between atoms: C_21  and  C_22
REMARK                            x       y       z     vdW  Elec       q    Type
REMARK                         _______ _______ _______ _____ _____    ______ ____
ROOT
ATOM      1  C   UNL     1       6.347   7.140  17.105  0.00  0.00    +0.000 A 
ATOM      2  C   UNL     1       6.623   6.525  15.886  0.00  0.00    +0.000 A 
ATOM      3  C   UNL     1       6.129   5.244  15.598  0.00  0.00    +0.000 A 
ATOM      4  C   UNL     1       5.422   4.579  16.621  0.00  0.00    +0.000 A 
ATOM      5  C   UNL     1       5.137   5.166  17.872  0.00  0.00    +0.000 A 
ATOM      6  C   UNL     1       5.627   6.464  18.093  0.00  0.00    +0.000 A 
ENDROOT
BRANCH   3   7
ATOM      7  C   UNL     1       6.264   4.649  14.248  0.00  0.00    +0.000 A 
ATOM      8  C   UNL     1       7.378   4.882  13.420  0.00  0.00    +0.000 A 
ATOM      9  C   UNL     1       7.503   4.255  12.175  0.00  0.00    +0.000 A 
ATOM     10  C   UNL     1       6.511   3.392  11.722  0.00  0.00    +0.000 A 
ATOM     11  C   UNL     1       5.399   3.143  12.515  0.00  0.00    +0.000 A 
ATOM     12  C   UNL     1       5.283   3.755  13.764  0.00  0.00    +0.000 A 
ENDBRANCH   3   7
BRANCH   5  13
ATOM     13  C   UNL     1       4.314   4.454  18.888  0.00  0.00    +0.000 A 
ATOM     14  C   UNL     1       3.221   5.070  19.527  0.00  0.00    +0.000 A 
ATOM     15  C   UNL     1       2.451   4.393  20.480  0.00  0.00    +0.000 A 
ATOM     16  C   UNL     1       2.760   3.083  20.828  0.00  0.00    +0.000 A 
ATOM     17  C   UNL     1       3.829   2.445  20.212  0.00  0.00    +0.000 A 
ATOM     18  C   UNL     1       4.584   3.118  19.247  0.00  0.00    +0.000 A 
ENDBRANCH   5  13
BRANCH   1  19
ATOM     19  O   UNL     1       6.837   8.462  17.249  0.00  0.00    +0.000 OA
BRANCH  19  21
ATOM     20  O   UNL     1       8.601   7.859  18.626  0.00  0.00    +0.000 OA
ATOM     21  C   UNL     1       7.976   8.716  18.013  0.00  0.00    +0.000 C 
ATOM     22  N   UNL     1       8.249  10.065  18.018  0.00  0.00    +0.000 N 
ATOM     23  H   UNL     1       7.515  10.657  17.655  0.00  0.00    +0.000 HD
BRANCH  22  24
ATOM     24  C   UNL     1       9.360  10.671  18.641  0.00  0.00    +0.000 A 
ATOM     25  C   UNL     1       9.420  10.887  20.022  0.00  0.00    +0.000 A 
ATOM     26  C   UNL     1      10.522  11.519  20.601  0.00  0.00    +0.000 A 
ATOM     27  C   UNL     1      11.579  11.941  19.802  0.00  0.00    +0.000 A 
ATOM     28  C   UNL     1      11.543  11.708  18.427  0.00  0.00    +0.000 A 
ATOM     29  C   UNL     1      10.444  11.062  17.849  0.00  0.00    +0.000 A 
ENDBRANCH  22  24
ENDBRANCH  19  21
ENDBRANCH   1  19
TORSDOF 5
ENDMDL
