MODEL 1
REMARK VINA RESULT:      -6.7      0.000      0.000
REMARK  Name = 
REMARK  11 active torsions:
REMARK  status: ('A' for Active; 'I' for Inactive)
REMARK    1  A    between atoms: N_1  and  C_2
REMARK    2  A    between atoms: C_6  and  C_7
REMARK    3  A    between atoms: C_7  and  N_8
REMARK    4  A    between atoms: N_8  and  C_9
REMARK    5  A    between atoms: C_9  and  C_10
REMARK    6  A    between atoms: C_10  and  C_11
REMARK    7  A    between atoms: C_11  and  C_12
REMARK    8  A    between atoms: C_12  and  N_13
REMARK    9  A    between atoms: N_13  and  C_14
REMARK   10  A    between atoms: C_14  and  C_15
REMARK   11  A    between atoms: C_19  and  N_20
REMARK                            x       y       z     vdW  Elec       q    Type
REMARK                         _______ _______ _______ _____ _____    ______ ____
ROOT
ATOM      1  C   UNL     1       1.766   2.728  18.936  0.00  0.00    +0.000 C 
ENDROOT
BRANCH   1   2
ATOM      2  C   UNL     1       2.921   1.827  18.499  0.00  0.00    +0.000 C 
BRANCH   2   3
ATOM      3  N   UNL     1       4.152   2.601  18.433  0.00  0.00    +0.000 NA
ATOM      4  H   UNL     1       4.275   3.147  19.285  0.00  0.00    +0.000 HD
BRANCH   3   5
ATOM      5  C   UNL     1       4.131   3.507  17.286  0.00  0.00    +0.000 C 
BRANCH   5  10
ATOM      6  C   UNL     1       7.043   5.549  18.667  0.00  0.00    +0.000 A 
ATOM      7  C   UNL     1       7.023   6.644  17.799  0.00  0.00    +0.000 A 
ATOM      8  C   UNL     1       6.113   6.705  16.742  0.00  0.00    +0.000 A 
ATOM      9  C   UNL     1       5.185   5.680  16.567  0.00  0.00    +0.000 A 
ATOM     10  C   UNL     1       5.154   4.598  17.454  0.00  0.00    +0.000 A 
ATOM     11  C   UNL     1       6.073   4.556  18.514  0.00  0.00    +0.000 A 
BRANCH   6  12
ATOM     12  N   UNL     1       7.859   5.563  19.803  0.00  0.00    +0.000 N 
ATOM     13  H   UNL     1       8.819   5.290  19.617  0.00  0.00    +0.000 HD
ATOM     14  H   UNL     1       7.464   5.067  20.595  0.00  0.00    +0.000 HD
ENDBRANCH   6  12
ENDBRANCH   5  10
ENDBRANCH   3   5
ENDBRANCH   2   3
ENDBRANCH   1   2
BRANCH   1  15
ATOM     15  C   UNL     1       1.503   2.643  20.441  0.00  0.00    +0.000 C 
BRANCH  15  16
ATOM     16  C   UNL     1       2.136   3.804  21.209  0.00  0.00    +0.000 C 
BRANCH  16  17
ATOM     17  N   UNL     1       1.680   5.067  20.646  0.00  0.00    +0.000 NA
ATOM     18  H   UNL     1       1.248   5.641  21.369  0.00  0.00    +0.000 HD
BRANCH  17  19
ATOM     19  C   UNL     1       2.795   5.812  20.063  0.00  0.00    +0.000 C 
BRANCH  19  20
ATOM     20  C   UNL     1       2.312   7.130  19.516  0.00  0.00    +0.000 A 
ATOM     21  C   UNL     1       2.584   7.510  18.197  0.00  0.00    +0.000 A 
ATOM     22  C   UNL     1       2.156   8.750  17.727  0.00  0.00    +0.000 A 
ATOM     23  C   UNL     1       1.446   9.612  18.566  0.00  0.00    +0.000 A 
ATOM     24  C   UNL     1       1.117   9.231  19.868  0.00  0.00    +0.000 A 
ATOM     25  C   UNL     1       1.590   8.008  20.344  0.00  0.00    +0.000 A 
BRANCH  24  26
ATOM     26  N   UNL     1       0.541  10.151  20.752  0.00  0.00    +0.000 N 
ATOM     27  H   UNL     1       1.103  10.984  20.901  0.00  0.00    +0.000 HD
ATOM     28  H   UNL     1      -0.428  10.367  20.538  0.00  0.00    +0.000 HD
ENDBRANCH  24  26
ENDBRANCH  19  20
ENDBRANCH  17  19
ENDBRANCH  16  17
ENDBRANCH  15  16
ENDBRANCH   1  15
TORSDOF 11
ENDMDL
MODEL 2
REMARK VINA RESULT:      -6.6      2.889      6.574
REMARK  Name = 
REMARK  11 active torsions:
REMARK  status: ('A' for Active; 'I' for Inactive)
REMARK    1  A    between atoms: N_1  and  C_2
REMARK    2  A    between atoms: C_6  and  C_7
REMARK    3  A    between atoms: C_7  and  N_8
REMARK    4  A    between atoms: N_8  and  C_9
REMARK    5  A    between atoms: C_9  and  C_10
REMARK    6  A    between atoms: C_10  and  C_11
REMARK    7  A    between atoms: C_11  and  C_12
REMARK    8  A    between atoms: C_12  and  N_13
REMARK    9  A    between atoms: N_13  and  C_14
REMARK   10  A    between atoms: C_14  and  C_15
REMARK   11  A    between atoms: C_19  and  N_20
REMARK                            x       y       z     vdW  Elec       q    Type
REMARK                         _______ _______ _______ _____ _____    ______ ____
ROOT
ATOM      1  C   UNL     1       3.186   6.744  18.132  0.00  0.00    +0.000 C 
ENDROOT
BRANCH   1   2
ATOM      2  C   UNL     1       2.375   7.114  19.373  0.00  0.00    +0.000 C 
BRANCH   2   3
ATOM      3  N   UNL     1       2.492   6.061  20.371  0.00  0.00    +0.000 NA
ATOM      4  H   UNL     1       3.433   5.668  20.365  0.00  0.00    +0.000 HD
BRANCH   3   5
ATOM      5  C   UNL     1       1.528   4.994  20.110  0.00  0.00    +0.000 C 
BRANCH   5  10
ATOM      6  C   UNL     1       3.958   2.108  19.539  0.00  0.00    +0.000 A 
ATOM      7  C   UNL     1       3.508   1.635  18.303  0.00  0.00    +0.000 A 
ATOM      8  C   UNL     1       2.397   2.204  17.678  0.00  0.00    +0.000 A 
ATOM      9  C   UNL     1       1.747   3.283  18.272  0.00  0.00    +0.000 A 
ATOM     10  C   UNL     1       2.210   3.807  19.485  0.00  0.00    +0.000 A 
ATOM     11  C   UNL     1       3.331   3.224  20.096  0.00  0.00    +0.000 A 
BRANCH   6  12
ATOM     12  N   UNL     1       5.152   1.628  20.087  0.00  0.00    +0.000 N 
ATOM     13  H   UNL     1       5.963   1.789  19.498  0.00  0.00    +0.000 HD
ATOM     14  H   UNL     1       5.096   0.667  20.410  0.00  0.00    +0.000 HD
ENDBRANCH   6  12
ENDBRANCH   5  10
ENDBRANCH   3   5
ENDBRANCH   2   3
ENDBRANCH   1   2
BRANCH   1  15
ATOM     15  C   UNL     1       4.658   6.485  18.459  0.00  0.00    +0.000 C 
BRANCH  15  16
ATOM     16  C   UNL     1       5.183   5.203  17.809  0.00  0.00    +0.000 C 
BRANCH  16  17
ATOM     17  N   UNL     1       4.891   5.226  16.383  0.00  0.00    +0.000 NA
ATOM     18  H   UNL     1       5.459   5.934  15.918  0.00  0.00    +0.000 HD
BRANCH  17  19
ATOM     19  C   UNL     1       5.170   3.928  15.772  0.00  0.00    +0.000 C 
BRANCH  19  20
ATOM     20  C   UNL     1       5.908   4.112  14.471  0.00  0.00    +0.000 A 
ATOM     21  C   UNL     1       5.532   3.410  13.320  0.00  0.00    +0.000 A 
ATOM     22  C   UNL     1       6.253   3.571  12.139  0.00  0.00    +0.000 A 
ATOM     23  C   UNL     1       7.344   4.442  12.095  0.00  0.00    +0.000 A 
ATOM     24  C   UNL     1       7.703   5.194  13.216  0.00  0.00    +0.000 A 
ATOM     25  C   UNL     1       7.004   4.989  14.407  0.00  0.00    +0.000 A 
BRANCH  24  26
ATOM     26  N   UNL     1       8.882   5.948  13.217  0.00  0.00    +0.000 N 
ATOM     27  H   UNL     1       8.836   6.782  12.640  0.00  0.00    +0.000 HD
ATOM     28  H   UNL     1       9.241   6.138  14.148  0.00  0.00    +0.000 HD
ENDBRANCH  24  26
ENDBRANCH  19  20
ENDBRANCH  17  19
ENDBRANCH  16  17
ENDBRANCH  15  16
ENDBRANCH   1  15
TORSDOF 11
ENDMDL
MODEL 3
REMARK VINA RESULT:      -6.5      0.983      5.493
REMARK  Name = 
REMARK  11 active torsions:
REMARK  status: ('A' for Active; 'I' for Inactive)
REMARK    1  A    between atoms: N_1  and  C_2
REMARK    2  A    between atoms: C_6  and  C_7
REMARK    3  A    between atoms: C_7  and  N_8
REMARK    4  A    between atoms: N_8  and  C_9
REMARK    5  A    between atoms: C_9  and  C_10
REMARK    6  A    between atoms: C_10  and  C_11
REMARK    7  A    between atoms: C_11  and  C_12
REMARK    8  A    between atoms: C_12  and  N_13
REMARK    9  A    between atoms: N_13  and  C_14
REMARK   10  A    between atoms: C_14  and  C_15
REMARK   11  A    between atoms: C_19  and  N_20
REMARK                            x       y       z     vdW  Elec       q    Type
REMARK                         _______ _______ _______ _____ _____    ______ ____
ROOT
ATOM      1  C   UNL     1       1.313   3.509  19.068  0.00  0.00    +0.000 C 
ENDROOT
BRANCH   1   2
ATOM      2  C   UNL     1       2.029   3.682  20.407  0.00  0.00    +0.000 C 
BRANCH   2   3
ATOM      3  N   UNL     1       1.980   5.078  20.816  0.00  0.00    +0.000 NA
ATOM      4  H   UNL     1       1.014   5.375  20.947  0.00  0.00    +0.000 HD
BRANCH   3   5
ATOM      5  C   UNL     1       2.610   5.932  19.811  0.00  0.00    +0.000 C 
BRANCH   5  10
ATOM      6  C   UNL     1       1.507   9.413  18.707  0.00  0.00    +0.000 A 
ATOM      7  C   UNL     1       0.918   9.882  19.884  0.00  0.00    +0.000 A 
ATOM      8  C   UNL     1       0.828   9.067  21.013  0.00  0.00    +0.000 A 
ATOM      9  C   UNL     1       1.363   7.781  20.985  0.00  0.00    +0.000 A 
ATOM     10  C   UNL     1       2.002   7.308  19.832  0.00  0.00    +0.000 A 
ATOM     11  C   UNL     1       2.088   8.144  18.707  0.00  0.00    +0.000 A 
BRANCH   6  12
ATOM     12  N   UNL     1       1.721  10.282  17.630  0.00  0.00    +0.000 N 
ATOM     13  H   UNL     1       2.443  10.973  17.804  0.00  0.00    +0.000 HD
ATOM     14  H   UNL     1       0.870  10.696  17.265  0.00  0.00    +0.000 HD
ENDBRANCH   6  12
ENDBRANCH   5  10
ENDBRANCH   3   5
ENDBRANCH   2   3
ENDBRANCH   1   2
BRANCH   1  15
ATOM     15  C   UNL     1       2.190   2.807  18.029  0.00  0.00    +0.000 C 
BRANCH  15  16
ATOM     16  C   UNL     1       3.498   2.285  18.626  0.00  0.00    +0.000 C 
BRANCH  16  17
ATOM     17  N   UNL     1       4.619   2.741  17.817  0.00  0.00    +0.000 NA
ATOM     18  H   UNL     1       4.826   2.062  17.086  0.00  0.00    +0.000 HD
BRANCH  17  19
ATOM     19  C   UNL     1       4.320   4.027  17.187  0.00  0.00    +0.000 C 
BRANCH  19  20
ATOM     20  C   UNL     1       5.388   5.034  17.526  0.00  0.00    +0.000 A 
ATOM     21  C   UNL     1       5.512   6.227  16.807  0.00  0.00    +0.000 A 
ATOM     22  C   UNL     1       6.530   7.126  17.117  0.00  0.00    +0.000 A 
ATOM     23  C   UNL     1       7.423   6.844  18.154  0.00  0.00    +0.000 A 
ATOM     24  C   UNL     1       7.285   5.685  18.920  0.00  0.00    +0.000 A 
ATOM     25  C   UNL     1       6.291   4.770  18.570  0.00  0.00    +0.000 A 
BRANCH  24  26
ATOM     26  N   UNL     1       8.266   5.331  19.854  0.00  0.00    +0.000 N 
ATOM     27  H   UNL     1       8.978   4.708  19.484  0.00  0.00    +0.000 HD
ATOM     28  H   UNL     1       8.661   6.125  20.348  0.00  0.00    +0.000 HD
ENDBRANCH  24  26
ENDBRANCH  19  20
ENDBRANCH  17  19
ENDBRANCH  16  17
ENDBRANCH  15  16
ENDBRANCH   1  15
TORSDOF 11
ENDMDL
MODEL 4
REMARK VINA RESULT:      -6.5      3.828      6.500
REMARK  Name = 
REMARK  11 active torsions:
REMARK  status: ('A' for Active; 'I' for Inactive)
REMARK    1  A    between atoms: N_1  and  C_2
REMARK    2  A    between atoms: C_6  and  C_7
REMARK    3  A    between atoms: C_7  and  N_8
REMARK    4  A    between atoms: N_8  and  C_9
REMARK    5  A    between atoms: C_9  and  C_10
REMARK    6  A    between atoms: C_10  and  C_11
REMARK    7  A    between atoms: C_11  and  C_12
REMARK    8  A    between atoms: C_12  and  N_13
REMARK    9  A    between atoms: N_13  and  C_14
REMARK   10  A    between atoms: C_14  and  C_15
REMARK   11  A    between atoms: C_19  and  N_20
REMARK                            x       y       z     vdW  Elec       q    Type
REMARK                         _______ _______ _______ _____ _____    ______ ____
ROOT
ATOM      1  C   UNL     1       7.524   5.882  18.741  0.00  0.00    +0.000 C 
ENDROOT
BRANCH   1   2
ATOM      2  C   UNL     1       7.707   7.140  17.893  0.00  0.00    +0.000 C 
BRANCH   2   3
ATOM      3  N   UNL     1       8.491   8.121  18.630  0.00  0.00    +0.000 NA
ATOM      4  H   UNL     1       8.189   8.159  19.603  0.00  0.00    +0.000 HD
BRANCH   3   5
ATOM      5  C   UNL     1       8.348   9.448  18.034  0.00  0.00    +0.000 C 
BRANCH   5  10
ATOM      6  C   UNL     1      10.020  11.618  20.689  0.00  0.00    +0.000 A 
ATOM      7  C   UNL     1      10.977  12.280  19.915  0.00  0.00    +0.000 A 
ATOM      8  C   UNL     1      11.121  11.994  18.556  0.00  0.00    +0.000 A 
ATOM      9  C   UNL     1      10.279  11.065  17.950  0.00  0.00    +0.000 A 
ATOM     10  C   UNL     1       9.280  10.427  18.695  0.00  0.00    +0.000 A 
ATOM     11  C   UNL     1       9.146  10.730  20.059  0.00  0.00    +0.000 A 
BRANCH   6  12
ATOM     12  N   UNL     1       9.787  12.012  22.012  0.00  0.00    +0.000 N 
ATOM     13  H   UNL     1       9.580  11.237  22.635  0.00  0.00    +0.000 HD
ATOM     14  H   UNL     1       9.115  12.767  22.100  0.00  0.00    +0.000 HD
ENDBRANCH   6  12
ENDBRANCH   5  10
ENDBRANCH   3   5
ENDBRANCH   2   3
ENDBRANCH   1   2
BRANCH   1  15
ATOM     15  C   UNL     1       7.734   4.601  17.929  0.00  0.00    +0.000 C 
BRANCH  15  16
ATOM     16  C   UNL     1       7.090   4.677  16.544  0.00  0.00    +0.000 C 
BRANCH  16  17
ATOM     17  N   UNL     1       5.975   3.743  16.474  0.00  0.00    +0.000 NA
ATOM     18  H   UNL     1       5.934   3.178  17.321  0.00  0.00    +0.000 HD
BRANCH  17  19
ATOM     19  C   UNL     1       4.706   4.454  16.327  0.00  0.00    +0.000 C 
BRANCH  19  20
ATOM     20  C   UNL     1       3.908   4.368  17.602  0.00  0.00    +0.000 A 
ATOM     21  C   UNL     1       2.894   5.288  17.885  0.00  0.00    +0.000 A 
ATOM     22  C   UNL     1       2.194   5.207  19.087  0.00  0.00    +0.000 A 
ATOM     23  C   UNL     1       2.496   4.201  20.009  0.00  0.00    +0.000 A 
ATOM     24  C   UNL     1       3.468   3.240  19.723  0.00  0.00    +0.000 A 
ATOM     25  C   UNL     1       4.194   3.358  18.538  0.00  0.00    +0.000 A 
BRANCH  24  26
ATOM     26  N   UNL     1       3.874   2.328  20.705  0.00  0.00    +0.000 N 
ATOM     27  H   UNL     1       4.607   2.680  21.313  0.00  0.00    +0.000 HD
ATOM     28  H   UNL     1       3.101   1.920  21.222  0.00  0.00    +0.000 HD
ENDBRANCH  24  26
ENDBRANCH  19  20
ENDBRANCH  17  19
ENDBRANCH  16  17
ENDBRANCH  15  16
ENDBRANCH   1  15
TORSDOF 11
ENDMDL
MODEL 5
REMARK VINA RESULT:      -6.4      1.968      4.148
REMARK  Name = 
REMARK  11 active torsions:
REMARK  status: ('A' for Active; 'I' for Inactive)
REMARK    1  A    between atoms: N_1  and  C_2
REMARK    2  A    between atoms: C_6  and  C_7
REMARK    3  A    between atoms: C_7  and  N_8
REMARK    4  A    between atoms: N_8  and  C_9
REMARK    5  A    between atoms: C_9  and  C_10
REMARK    6  A    between atoms: C_10  and  C_11
REMARK    7  A    between atoms: C_11  and  C_12
REMARK    8  A    between atoms: C_12  and  N_13
REMARK    9  A    between atoms: N_13  and  C_14
REMARK   10  A    between atoms: C_14  and  C_15
REMARK   11  A    between atoms: C_19  and  N_20
REMARK                            x       y       z     vdW  Elec       q    Type
REMARK                         _______ _______ _______ _____ _____    ______ ____
ROOT
ATOM      1  C   UNL     1       3.541   4.537  17.260  0.00  0.00    +0.000 C 
ENDROOT
BRANCH   1   2
ATOM      2  C   UNL     1       4.788   3.700  16.978  0.00  0.00    +0.000 C 
BRANCH   2   3
ATOM      3  N   UNL     1       5.381   4.108  15.712  0.00  0.00    +0.000 NA
ATOM      4  H   UNL     1       5.121   3.458  14.972  0.00  0.00    +0.000 HD
BRANCH   3   5
ATOM      5  C   UNL     1       6.838   4.155  15.817  0.00  0.00    +0.000 C 
BRANCH   5  10
ATOM      6  C   UNL     1       8.125   5.714  19.052  0.00  0.00    +0.000 A 
ATOM      7  C   UNL     1       8.005   7.072  18.748  0.00  0.00    +0.000 A 
ATOM      8  C   UNL     1       7.561   7.489  17.492  0.00  0.00    +0.000 A 
ATOM      9  C   UNL     1       7.198   6.543  16.537  0.00  0.00    +0.000 A 
ATOM     10  C   UNL     1       7.262   5.177  16.836  0.00  0.00    +0.000 A 
ATOM     11  C   UNL     1       7.706   4.776  18.106  0.00  0.00    +0.000 A 
BRANCH   6  12
ATOM     12  N   UNL     1       8.433   5.306  20.355  0.00  0.00    +0.000 N 
ATOM     13  H   UNL     1       7.836   5.724  21.062  0.00  0.00    +0.000 HD
ATOM     14  H   UNL     1       9.418   5.385  20.586  0.00  0.00    +0.000 HD
ENDBRANCH   6  12
ENDBRANCH   5  10
ENDBRANCH   3   5
ENDBRANCH   2   3
ENDBRANCH   1   2
BRANCH   1  15
ATOM     15  C   UNL     1       3.854   5.779  18.097  0.00  0.00    +0.000 C 
BRANCH  15  16
ATOM     16  C   UNL     1       2.594   6.553  18.486  0.00  0.00    +0.000 C 
BRANCH  16  17
ATOM     17  N   UNL     1       2.652   6.899  19.899  0.00  0.00    +0.000 NA
ATOM     18  H   UNL     1       2.610   7.910  20.016  0.00  0.00    +0.000 HD
BRANCH  17  19
ATOM     19  C   UNL     1       1.540   6.297  20.631  0.00  0.00    +0.000 C 
BRANCH  19  20
ATOM     20  C   UNL     1       1.669   4.796  20.635  0.00  0.00    +0.000 A 
ATOM     21  C   UNL     1       2.426   4.138  21.610  0.00  0.00    +0.000 A 
ATOM     22  C   UNL     1       2.559   2.751  21.572  0.00  0.00    +0.000 A 
ATOM     23  C   UNL     1       1.927   2.013  20.566  0.00  0.00    +0.000 A 
ATOM     24  C   UNL     1       1.123   2.645  19.615  0.00  0.00    +0.000 A 
ATOM     25  C   UNL     1       1.035   4.037  19.636  0.00  0.00    +0.000 A 
BRANCH  24  26
ATOM     26  N   UNL     1       0.618   1.927  18.525  0.00  0.00    +0.000 N 
ATOM     27  H   UNL     1       0.913   0.956  18.501  0.00  0.00    +0.000 HD
ATOM     28  H   UNL     1      -0.384   2.033  18.400  0.00  0.00    +0.000 HD
ENDBRANCH  24  26
ENDBRANCH  19  20
ENDBRANCH  17  19
ENDBRANCH  16  17
ENDBRANCH  15  16
ENDBRANCH   1  15
TORSDOF 11
ENDMDL
MODEL 6
REMARK VINA RESULT:      -6.4      3.984      6.488
REMARK  Name = 
REMARK  11 active torsions:
REMARK  status: ('A' for Active; 'I' for Inactive)
REMARK    1  A    between atoms: N_1  and  C_2
REMARK    2  A    between atoms: C_6  and  C_7
REMARK    3  A    between atoms: C_7  and  N_8
REMARK    4  A    between atoms: N_8  and  C_9
REMARK    5  A    between atoms: C_9  and  C_10
REMARK    6  A    between atoms: C_10  and  C_11
REMARK    7  A    between atoms: C_11  and  C_12
REMARK    8  A    between atoms: C_12  and  N_13
REMARK    9  A    between atoms: N_13  and  C_14
REMARK   10  A    between atoms: C_14  and  C_15
REMARK   11  A    between atoms: C_19  and  N_20
REMARK                            x       y       z     vdW  Elec       q    Type
REMARK                         _______ _______ _______ _____ _____    ______ ____
ROOT
ATOM      1  C   UNL     1       7.285   7.522  17.151  0.00  0.00    +0.000 C 
ENDROOT
BRANCH   1   2
ATOM      2  C   UNL     1       7.904   7.099  18.482  0.00  0.00    +0.000 C 
BRANCH   2   3
ATOM      3  N   UNL     1       8.820   8.129  18.950  0.00  0.00    +0.000 NA
ATOM      4  H   UNL     1       8.791   8.194  19.967  0.00  0.00    +0.000 HD
BRANCH   3   5
ATOM      5  C   UNL     1       8.472   9.428  18.378  0.00  0.00    +0.000 C 
BRANCH   5  10
ATOM      6  C   UNL     1      11.266  12.022  18.252  0.00  0.00    +0.000 A 
ATOM      7  C   UNL     1      11.339  12.386  19.600  0.00  0.00    +0.000 A 
ATOM      8  C   UNL     1      10.462  11.840  20.538  0.00  0.00    +0.000 A 
ATOM      9  C   UNL     1       9.522  10.893  20.139  0.00  0.00    +0.000 A 
ATOM     10  C   UNL     1       9.464  10.476  18.803  0.00  0.00    +0.000 A 
ATOM     11  C   UNL     1      10.357  11.032  17.875  0.00  0.00    +0.000 A 
BRANCH   6  12
ATOM     12  N   UNL     1      12.238  12.464  17.348  0.00  0.00    +0.000 N 
ATOM     13  H   UNL     1      11.854  12.964  16.552  0.00  0.00    +0.000 HD
ATOM     14  H   UNL     1      12.894  11.742  17.068  0.00  0.00    +0.000 HD
ENDBRANCH   6  12
ENDBRANCH   5  10
ENDBRANCH   3   5
ENDBRANCH   2   3
ENDBRANCH   1   2
BRANCH   1  15
ATOM     15  C   UNL     1       6.297   6.484  16.616  0.00  0.00    +0.000 C 
BRANCH  15  16
ATOM     16  C   UNL     1       6.973   5.154  16.280  0.00  0.00    +0.000 C 
BRANCH  16  17
ATOM     17  N   UNL     1       6.117   4.053  16.700  0.00  0.00    +0.000 NA
ATOM     18  H   UNL     1       6.563   3.161  16.494  0.00  0.00    +0.000 HD
BRANCH  17  19
ATOM     19  C   UNL     1       5.848   4.119  18.136  0.00  0.00    +0.000 C 
BRANCH  19  20
ATOM     20  C   UNL     1       4.368   4.252  18.383  0.00  0.00    +0.000 A 
ATOM     21  C   UNL     1       3.434   3.675  17.516  0.00  0.00    +0.000 A 
ATOM     22  C   UNL     1       2.071   3.842  17.748  0.00  0.00    +0.000 A 
ATOM     23  C   UNL     1       1.631   4.577  18.853  0.00  0.00    +0.000 A 
ATOM     24  C   UNL     1       2.545   5.115  19.761  0.00  0.00    +0.000 A 
ATOM     25  C   UNL     1       3.908   4.981  19.494  0.00  0.00    +0.000 A 
BRANCH  24  26
ATOM     26  N   UNL     1       2.112   5.974  20.778  0.00  0.00    +0.000 N 
ATOM     27  H   UNL     1       2.798   6.118  21.513  0.00  0.00    +0.000 HD
ATOM     28  H   UNL     1       1.722   6.846  20.433  0.00  0.00    +0.000 HD
ENDBRANCH  24  26
ENDBRANCH  19  20
ENDBRANCH  17  19
ENDBRANCH  16  17
ENDBRANCH  15  16
ENDBRANCH   1  15
TORSDOF 11
ENDMDL
MODEL 7
REMARK VINA RESULT:      -6.4      1.090      5.723
REMARK  Name = 
REMARK  11 active torsions:
REMARK  status: ('A' for Active; 'I' for Inactive)
REMARK    1  A    between atoms: N_1  and  C_2
REMARK    2  A    between atoms: C_6  and  C_7
REMARK    3  A    between atoms: C_7  and  N_8
REMARK    4  A    between atoms: N_8  and  C_9
REMARK    5  A    between atoms: C_9  and  C_10
REMARK    6  A    between atoms: C_10  and  C_11
REMARK    7  A    between atoms: C_11  and  C_12
REMARK    8  A    between atoms: C_12  and  N_13
REMARK    9  A    between atoms: N_13  and  C_14
REMARK   10  A    between atoms: C_14  and  C_15
REMARK   11  A    between atoms: C_19  and  N_20
REMARK                            x       y       z     vdW  Elec       q    Type
REMARK                         _______ _______ _______ _____ _____    ______ ____
ROOT
ATOM      1  C   UNL     1       1.571   4.427  18.006  0.00  0.00    +0.000 C 
ENDROOT
BRANCH   1   2
ATOM      2  C   UNL     1       1.896   4.436  19.499  0.00  0.00    +0.000 C 
BRANCH   2   3
ATOM      3  N   UNL     1       2.695   5.609  19.823  0.00  0.00    +0.000 NA
ATOM      4  H   UNL     1       3.516   5.340  20.364  0.00  0.00    +0.000 HD
BRANCH   3   5
ATOM      5  C   UNL     1       1.909   6.570  20.594  0.00  0.00    +0.000 C 
BRANCH   5  10
ATOM      6  C   UNL     1       0.931  10.149  19.703  0.00  0.00    +0.000 A 
ATOM      7  C   UNL     1       1.413  10.229  18.394  0.00  0.00    +0.000 A 
ATOM      8  C   UNL     1       2.096   9.158  17.816  0.00  0.00    +0.000 A 
ATOM      9  C   UNL     1       2.270   7.977  18.534  0.00  0.00    +0.000 A 
ATOM     10  C   UNL     1       1.751   7.857  19.829  0.00  0.00    +0.000 A 
ATOM     11  C   UNL     1       1.063   8.942  20.393  0.00  0.00    +0.000 A 
BRANCH   6  12
ATOM     12  N   UNL     1       0.126  11.169  20.223  0.00  0.00    +0.000 N 
ATOM     13  H   UNL     1       0.541  11.649  21.016  0.00  0.00    +0.000 HD
ATOM     14  H   UNL     1      -0.831  10.883  20.403  0.00  0.00    +0.000 HD
ENDBRANCH   6  12
ENDBRANCH   5  10
ENDBRANCH   3   5
ENDBRANCH   2   3
ENDBRANCH   1   2
BRANCH   1  15
ATOM     15  C   UNL     1       2.545   3.559  17.206  0.00  0.00    +0.000 C 
BRANCH  15  16
ATOM     16  C   UNL     1       3.399   2.662  18.104  0.00  0.00    +0.000 C 
BRANCH  16  17
ATOM     17  N   UNL     1       4.803   3.017  17.952  0.00  0.00    +0.000 NA
ATOM     18  H   UNL     1       5.339   2.209  17.636  0.00  0.00    +0.000 HD
BRANCH  17  19
ATOM     19  C   UNL     1       4.967   4.095  16.979  0.00  0.00    +0.000 C 
BRANCH  19  20
ATOM     20  C   UNL     1       5.966   5.104  17.482  0.00  0.00    +0.000 A 
ATOM     21  C   UNL     1       6.190   6.304  16.799  0.00  0.00    +0.000 A 
ATOM     22  C   UNL     1       7.145   7.205  17.266  0.00  0.00    +0.000 A 
ATOM     23  C   UNL     1       7.874   6.918  18.424  0.00  0.00    +0.000 A 
ATOM     24  C   UNL     1       7.629   5.751  19.151  0.00  0.00    +0.000 A 
ATOM     25  C   UNL     1       6.704   4.835  18.648  0.00  0.00    +0.000 A 
BRANCH  24  26
ATOM     26  N   UNL     1       8.460   5.393  20.219  0.00  0.00    +0.000 N 
ATOM     27  H   UNL     1       9.406   5.152  19.939  0.00  0.00    +0.000 HD
ATOM     28  H   UNL     1       8.438   6.055  20.989  0.00  0.00    +0.000 HD
ENDBRANCH  24  26
ENDBRANCH  19  20
ENDBRANCH  17  19
ENDBRANCH  16  17
ENDBRANCH  15  16
ENDBRANCH   1  15
TORSDOF 11
ENDMDL
MODEL 8
REMARK VINA RESULT:      -6.4      1.389      1.940
REMARK  Name = 
REMARK  11 active torsions:
REMARK  status: ('A' for Active; 'I' for Inactive)
REMARK    1  A    between atoms: N_1  and  C_2
REMARK    2  A    between atoms: C_6  and  C_7
REMARK    3  A    between atoms: C_7  and  N_8
REMARK    4  A    between atoms: N_8  and  C_9
REMARK    5  A    between atoms: C_9  and  C_10
REMARK    6  A    between atoms: C_10  and  C_11
REMARK    7  A    between atoms: C_11  and  C_12
REMARK    8  A    between atoms: C_12  and  N_13
REMARK    9  A    between atoms: N_13  and  C_14
REMARK   10  A    between atoms: C_14  and  C_15
REMARK   11  A    between atoms: C_19  and  N_20
REMARK                            x       y       z     vdW  Elec       q    Type
REMARK                         _______ _______ _______ _____ _____    ______ ____
ROOT
ATOM      1  C   UNL     1       2.821   2.311  18.306  0.00  0.00    +0.000 C 
ENDROOT
BRANCH   1   2
ATOM      2  C   UNL     1       3.715   2.150  19.535  0.00  0.00    +0.000 C 
BRANCH   2   3
ATOM      3  N   UNL     1       5.052   2.644  19.241  0.00  0.00    +0.000 NA
ATOM      4  H   UNL     1       5.717   2.301  19.934  0.00  0.00    +0.000 HD
BRANCH   3   5
ATOM      5  C   UNL     1       5.073   4.106  19.242  0.00  0.00    +0.000 C 
BRANCH   5  10
ATOM      6  C   UNL     1       6.277   4.404  15.634  0.00  0.00    +0.000 A 
ATOM      7  C   UNL     1       7.061   5.558  15.719  0.00  0.00    +0.000 A 
ATOM      8  C   UNL     1       7.162   6.268  16.916  0.00  0.00    +0.000 A 
ATOM      9  C   UNL     1       6.506   5.806  18.054  0.00  0.00    +0.000 A 
ATOM     10  C   UNL     1       5.756   4.624  18.005  0.00  0.00    +0.000 A 
ATOM     11  C   UNL     1       5.669   3.921  16.794  0.00  0.00    +0.000 A 
BRANCH   6  12
ATOM     12  N   UNL     1       6.295   3.623  14.473  0.00  0.00    +0.000 N 
ATOM     13  H   UNL     1       7.229   3.455  14.111  0.00  0.00    +0.000 HD
ATOM     14  H   UNL     1       5.656   3.945  13.754  0.00  0.00    +0.000 HD
ENDBRANCH   6  12
ENDBRANCH   5  10
ENDBRANCH   3   5
ENDBRANCH   2   3
ENDBRANCH   1   2
BRANCH   1  15
ATOM     15  C   UNL     1       1.557   3.117  18.612  0.00  0.00    +0.000 C 
BRANCH  15  16
ATOM     16  C   UNL     1       1.243   3.164  20.108  0.00  0.00    +0.000 C 
BRANCH  16  17
ATOM     17  N   UNL     1       0.897   4.526  20.489  0.00  0.00    +0.000 NA
ATOM     18  H   UNL     1       0.338   4.523  21.341  0.00  0.00    +0.000 HD
BRANCH  17  19
ATOM     19  C   UNL     1       2.100   5.324  20.723  0.00  0.00    +0.000 C 
BRANCH  19  20
ATOM     20  C   UNL     1       2.059   6.584  19.898  0.00  0.00    +0.000 A 
ATOM     21  C   UNL     1       2.634   6.633  18.623  0.00  0.00    +0.000 A 
ATOM     22  C   UNL     1       2.614   7.820  17.895  0.00  0.00    +0.000 A 
ATOM     23  C   UNL     1       2.009   8.962  18.429  0.00  0.00    +0.000 A 
ATOM     24  C   UNL     1       1.382   8.920  19.675  0.00  0.00    +0.000 A 
ATOM     25  C   UNL     1       1.449   7.739  20.416  0.00  0.00    +0.000 A 
BRANCH  24  26
ATOM     26  N   UNL     1       0.913  10.096  20.272  0.00  0.00    +0.000 N 
ATOM     27  H   UNL     1       1.079  10.142  21.273  0.00  0.00    +0.000 HD
ATOM     28  H   UNL     1       1.205  10.940  19.789  0.00  0.00    +0.000 HD
ENDBRANCH  24  26
ENDBRANCH  19  20
ENDBRANCH  17  19
ENDBRANCH  16  17
ENDBRANCH  15  16
ENDBRANCH   1  15
TORSDOF 11
ENDMDL
MODEL 9
REMARK VINA RESULT:      -6.4      3.970      6.830
REMARK  Name = 
REMARK  11 active torsions:
REMARK  status: ('A' for Active; 'I' for Inactive)
REMARK    1  A    between atoms: N_1  and  C_2
REMARK    2  A    between atoms: C_6  and  C_7
REMARK    3  A    between atoms: C_7  and  N_8
REMARK    4  A    between atoms: N_8  and  C_9
REMARK    5  A    between atoms: C_9  and  C_10
REMARK    6  A    between atoms: C_10  and  C_11
REMARK    7  A    between atoms: C_11  and  C_12
REMARK    8  A    between atoms: C_12  and  N_13
REMARK    9  A    between atoms: N_13  and  C_14
REMARK   10  A    between atoms: C_14  and  C_15
REMARK   11  A    between atoms: C_19  and  N_20
REMARK                            x       y       z     vdW  Elec       q    Type
REMARK                         _______ _______ _______ _____ _____    ______ ____
ROOT
ATOM      1  C   UNL     1       7.116   5.337  18.500  0.00  0.00    +0.000 C 
ENDROOT
BRANCH   1   2
ATOM      2  C   UNL     1       6.719   4.903  17.089  0.00  0.00    +0.000 C 
BRANCH   2   3
ATOM      3  N   UNL     1       5.737   3.832  17.160  0.00  0.00    +0.000 NA
ATOM      4  H   UNL     1       6.081   3.002  16.680  0.00  0.00    +0.000 HD
BRANCH   3   5
ATOM      5  C   UNL     1       4.475   4.248  16.549  0.00  0.00    +0.000 C 
BRANCH   5  10
ATOM      6  C   UNL     1       2.242   5.160  19.505  0.00  0.00    +0.000 A 
ATOM      7  C   UNL     1       1.321   4.109  19.465  0.00  0.00    +0.000 A 
ATOM      8  C   UNL     1       1.384   3.139  18.463  0.00  0.00    +0.000 A 
ATOM      9  C   UNL     1       2.398   3.193  17.509  0.00  0.00    +0.000 A 
ATOM     10  C   UNL     1       3.361   4.208  17.559  0.00  0.00    +0.000 A 
ATOM     11  C   UNL     1       3.284   5.172  18.576  0.00  0.00    +0.000 A 
BRANCH   6  12
ATOM     12  N   UNL     1       2.258   6.043  20.590  0.00  0.00    +0.000 N 
ATOM     13  H   UNL     1       2.963   5.819  21.285  0.00  0.00    +0.000 HD
ATOM     14  H   UNL     1       1.345   6.199  21.004  0.00  0.00    +0.000 HD
ENDBRANCH   6  12
ENDBRANCH   5  10
ENDBRANCH   3   5
ENDBRANCH   2   3
ENDBRANCH   1   2
BRANCH   1  15
ATOM     15  C   UNL     1       7.889   6.657  18.504  0.00  0.00    +0.000 C 
BRANCH  15  16
ATOM     16  C   UNL     1       7.348   7.653  17.476  0.00  0.00    +0.000 C 
BRANCH  16  17
ATOM     17  N   UNL     1       8.064   8.915  17.599  0.00  0.00    +0.000 NA
ATOM     18  H   UNL     1       7.416   9.697  17.516  0.00  0.00    +0.000 HD
BRANCH  17  19
ATOM     19  C   UNL     1       8.744   9.007  18.889  0.00  0.00    +0.000 C 
BRANCH  19  20
ATOM     20  C   UNL     1       9.248  10.409  19.115  0.00  0.00    +0.000 A 
ATOM     21  C   UNL     1       9.655  10.836  20.383  0.00  0.00    +0.000 A 
ATOM     22  C   UNL     1      10.083  12.149  20.572  0.00  0.00    +0.000 A 
ATOM     23  C   UNL     1      10.118  13.038  19.495  0.00  0.00    +0.000 A 
ATOM     24  C   UNL     1       9.768  12.617  18.210  0.00  0.00    +0.000 A 
ATOM     25  C   UNL     1       9.296  11.315  18.041  0.00  0.00    +0.000 A 
BRANCH  24  26
ATOM     26  N   UNL     1       9.658  13.543  17.166  0.00  0.00    +0.000 N 
ATOM     27  H   UNL     1      10.521  13.682  16.649  0.00  0.00    +0.000 HD
ATOM     28  H   UNL     1       8.862  13.375  16.558  0.00  0.00    +0.000 HD
ENDBRANCH  24  26
ENDBRANCH  19  20
ENDBRANCH  17  19
ENDBRANCH  16  17
ENDBRANCH  15  16
ENDBRANCH   1  15
TORSDOF 11
ENDMDL
