MODEL 1
REMARK VINA RESULT:      -8.8      0.000      0.000
REMARK  Name = 
REMARK  11 active torsions:
REMARK  status: ('A' for Active; 'I' for Inactive)
REMARK    1  A    between atoms: C_1  and  N_2
REMARK    2  A    between atoms: C_3  and  C_4
REMARK    3  A    between atoms: C_4  and  C_5
REMARK    4  A    between atoms: C_16  and  C_17
REMARK    5  A    between atoms: C_17  and  C_18
REMARK    6  A    between atoms: C_17  and  N_28
REMARK    7  A    between atoms: C_18  and  C_19
REMARK    8  A    between atoms: C_29  and  C_31
REMARK    9  A    between atoms: C_31  and  C_32
REMARK   10  A    between atoms: C_31  and  C_33
REMARK   11  A    between atoms: C_31  and  N_34
REMARK                            x       y       z     vdW  Elec       q    Type
REMARK                         _______ _______ _______ _____ _____    ______ ____
ROOT
ATOM      1  C   UNL     1       2.613   6.718  18.553  0.00  0.00    +0.000 C 
ENDROOT
BRANCH   1   7
ATOM      2  C   UNL     1       2.166   9.780  17.793  0.00  0.00    +0.000 C 
ATOM      3  N   UNL     1       1.617   9.091  18.932  0.00  0.00    +0.000 N 
ATOM      4  C   UNL     1       0.754   9.615  19.878  0.00  0.00    +0.000 A 
ATOM      5  N   UNL     1       0.675   8.764  20.875  0.00  0.00    +0.000 NA
ATOM      6  N   UNL     1       1.373   7.637  20.539  0.00  0.00    +0.000 NA
ATOM      7  C   UNL     1       1.877   7.794  19.330  0.00  0.00    +0.000 A 
BRANCH   4   8
ATOM      8  C   UNL     1      -0.028  10.892  19.767  0.00  0.00    +0.000 C 
BRANCH   8   9
ATOM      9  C   UNL     1      -1.211  10.787  18.857  0.00  0.00    +0.000 A 
ATOM     10  C   UNL     1      -1.316  10.000  17.723  0.00  0.00    +0.000 A 
ATOM     11  N   UNL     1      -2.598  10.089  17.253  0.00  0.00    +0.000 N 
ATOM     12  C   UNL     1      -3.336  10.930  18.052  0.00  0.00    +0.000 A 
ATOM     13  C   UNL     1      -4.699  11.247  18.014  0.00  0.00    +0.000 A 
ATOM     14  C   UNL     1      -5.181  12.142  18.974  0.00  0.00    +0.000 A 
ATOM     15  C   UNL     1      -4.323  12.740  19.894  0.00  0.00    +0.000 A 
ATOM     16  C   UNL     1      -2.963  12.419  19.911  0.00  0.00    +0.000 A 
ATOM     17  C   UNL     1      -2.466  11.458  19.006  0.00  0.00    +0.000 A 
ATOM     18  H   UNL     1      -2.965   9.572  16.467  0.00  0.00    +0.000 HD
ENDBRANCH   8   9
ENDBRANCH   4   8
ENDBRANCH   1   7
BRANCH   1  19
ATOM     19  N   UNL     1       2.342   5.411  19.167  0.00  0.00    +0.000 N 
ATOM     20  C   UNL     1       1.732   4.366  18.519  0.00  0.00    +0.000 C 
ATOM     21  O   UNL     1       1.341   4.444  17.354  0.00  0.00    +0.000 OA
ATOM     22  H   UNL     1       2.905   5.189  19.978  0.00  0.00    +0.000 HD
BRANCH  20  23
ATOM     23  C   UNL     1       1.511   3.081  19.380  0.00  0.00    +0.000 C 
ATOM     24  C   UNL     1       2.730   2.158  19.326  0.00  0.00    +0.000 C 
ATOM     25  C   UNL     1       1.190   3.468  20.827  0.00  0.00    +0.000 C 
BRANCH  23  26
ATOM     26  N   UNL     1       0.347   2.337  18.839  0.00  0.00    +0.000 NA
ATOM     27  H   UNL     1       0.700   1.493  18.381  0.00  0.00    +0.000 HD
ATOM     28  H   UNL     1      -0.043   2.881  18.067  0.00  0.00    +0.000 HD
ENDBRANCH  23  26
ENDBRANCH  20  23
ENDBRANCH   1  19
BRANCH   1  29
ATOM     29  C   UNL     1       4.146   7.001  18.599  0.00  0.00    +0.000 C 
BRANCH  29  30
ATOM     30  C   UNL     1       5.001   5.841  18.165  0.00  0.00    +0.000 A 
ATOM     31  C   UNL     1       5.542   4.878  18.992  0.00  0.00    +0.000 A 
ATOM     32  N   UNL     1       6.290   4.019  18.229  0.00  0.00    +0.000 N 
ATOM     33  C   UNL     1       6.203   4.367  16.907  0.00  0.00    +0.000 A 
ATOM     34  C   UNL     1       6.768   3.743  15.777  0.00  0.00    +0.000 A 
ATOM     35  C   UNL     1       6.475   4.292  14.523  0.00  0.00    +0.000 A 
ATOM     36  C   UNL     1       5.656   5.409  14.408  0.00  0.00    +0.000 A 
ATOM     37  C   UNL     1       5.110   6.021  15.542  0.00  0.00    +0.000 A 
ATOM     38  C   UNL     1       5.386   5.491  16.824  0.00  0.00    +0.000 A 
ATOM     39  H   UNL     1       6.800   3.227  18.581  0.00  0.00    +0.000 HD
ENDBRANCH  29  30
ENDBRANCH   1  29
TORSDOF 8
ENDMDL
MODEL 2
REMARK VINA RESULT:      -8.7      1.970      2.715
REMARK  Name = 
REMARK  11 active torsions:
REMARK  status: ('A' for Active; 'I' for Inactive)
REMARK    1  A    between atoms: C_1  and  N_2
REMARK    2  A    between atoms: C_3  and  C_4
REMARK    3  A    between atoms: C_4  and  C_5
REMARK    4  A    between atoms: C_16  and  C_17
REMARK    5  A    between atoms: C_17  and  C_18
REMARK    6  A    between atoms: C_17  and  N_28
REMARK    7  A    between atoms: C_18  and  C_19
REMARK    8  A    between atoms: C_29  and  C_31
REMARK    9  A    between atoms: C_31  and  C_32
REMARK   10  A    between atoms: C_31  and  C_33
REMARK   11  A    between atoms: C_31  and  N_34
REMARK                            x       y       z     vdW  Elec       q    Type
REMARK                         _______ _______ _______ _____ _____    ______ ____
ROOT
ATOM      1  C   UNL     1       2.615   6.652  18.677  0.00  0.00    +0.000 C 
ENDROOT
BRANCH   1   7
ATOM      2  C   UNL     1       1.562   9.552  17.883  0.00  0.00    +0.000 C 
ATOM      3  N   UNL     1       1.353   8.880  19.138  0.00  0.00    +0.000 N 
ATOM      4  C   UNL     1       0.616   9.344  20.212  0.00  0.00    +0.000 A 
ATOM      5  N   UNL     1       0.862   8.568  21.243  0.00  0.00    +0.000 NA
ATOM      6  N   UNL     1       1.649   7.531  20.827  0.00  0.00    +0.000 NA
ATOM      7  C   UNL     1       1.883   7.667  19.535  0.00  0.00    +0.000 A 
BRANCH   4   8
ATOM      8  C   UNL     1      -0.361  10.484  20.202  0.00  0.00    +0.000 C 
BRANCH   8   9
ATOM      9  C   UNL     1       0.226  11.775  20.681  0.00  0.00    +0.000 A 
ATOM     10  C   UNL     1       1.336  12.420  20.165  0.00  0.00    +0.000 A 
ATOM     11  N   UNL     1       1.463  13.629  20.794  0.00  0.00    +0.000 N 
ATOM     12  C   UNL     1       0.462  13.785  21.724  0.00  0.00    +0.000 A 
ATOM     13  C   UNL     1       0.139  14.884  22.529  0.00  0.00    +0.000 A 
ATOM     14  C   UNL     1      -0.956  14.755  23.388  0.00  0.00    +0.000 A 
ATOM     15  C   UNL     1      -1.660  13.557  23.481  0.00  0.00    +0.000 A 
ATOM     16  C   UNL     1      -1.318  12.467  22.676  0.00  0.00    +0.000 A 
ATOM     17  C   UNL     1      -0.269  12.597  21.743  0.00  0.00    +0.000 A 
ATOM     18  H   UNL     1       2.157  14.329  20.573  0.00  0.00    +0.000 HD
ENDBRANCH   8   9
ENDBRANCH   4   8
ENDBRANCH   1   7
BRANCH   1  19
ATOM     19  N   UNL     1       2.345   5.302  19.192  0.00  0.00    +0.000 N 
ATOM     20  C   UNL     1       1.724   4.312  18.472  0.00  0.00    +0.000 C 
ATOM     21  O   UNL     1       1.322   4.481  17.320  0.00  0.00    +0.000 OA
ATOM     22  H   UNL     1       2.915   5.017  19.978  0.00  0.00    +0.000 HD
BRANCH  20  23
ATOM     23  C   UNL     1       1.506   2.966  19.234  0.00  0.00    +0.000 C 
ATOM     24  C   UNL     1       2.737   2.063  19.134  0.00  0.00    +0.000 C 
ATOM     25  C   UNL     1       1.158   3.244  20.700  0.00  0.00    +0.000 C 
BRANCH  23  26
ATOM     26  N   UNL     1       0.360   2.249  18.621  0.00  0.00    +0.000 NA
ATOM     27  H   UNL     1       0.636   1.970  17.677  0.00  0.00    +0.000 HD
ATOM     28  H   UNL     1      -0.386   2.929  18.460  0.00  0.00    +0.000 HD
ENDBRANCH  23  26
ENDBRANCH  20  23
ENDBRANCH   1  19
BRANCH   1  29
ATOM     29  C   UNL     1       4.149   6.930  18.740  0.00  0.00    +0.000 C 
BRANCH  29  30
ATOM     30  C   UNL     1       5.003   5.787  18.261  0.00  0.00    +0.000 A 
ATOM     31  C   UNL     1       5.555   4.800  19.052  0.00  0.00    +0.000 A 
ATOM     32  N   UNL     1       6.298   3.967  18.255  0.00  0.00    +0.000 N 
ATOM     33  C   UNL     1       6.196   4.356  16.945  0.00  0.00    +0.000 A 
ATOM     34  C   UNL     1       6.752   3.770  15.791  0.00  0.00    +0.000 A 
ATOM     35  C   UNL     1       6.446   4.357  14.558  0.00  0.00    +0.000 A 
ATOM     36  C   UNL     1       5.622   5.476  14.486  0.00  0.00    +0.000 A 
ATOM     37  C   UNL     1       5.086   6.049  15.644  0.00  0.00    +0.000 A 
ATOM     38  C   UNL     1       5.376   5.480  16.906  0.00  0.00    +0.000 A 
ATOM     39  H   UNL     1       6.814   3.166  18.576  0.00  0.00    +0.000 HD
ENDBRANCH  29  30
ENDBRANCH   1  29
TORSDOF 8
ENDMDL
MODEL 3
REMARK VINA RESULT:      -8.6      1.957      4.516
REMARK  Name = 
REMARK  11 active torsions:
REMARK  status: ('A' for Active; 'I' for Inactive)
REMARK    1  A    between atoms: C_1  and  N_2
REMARK    2  A    between atoms: C_3  and  C_4
REMARK    3  A    between atoms: C_4  and  C_5
REMARK    4  A    between atoms: C_16  and  C_17
REMARK    5  A    between atoms: C_17  and  C_18
REMARK    6  A    between atoms: C_17  and  N_28
REMARK    7  A    between atoms: C_18  and  C_19
REMARK    8  A    between atoms: C_29  and  C_31
REMARK    9  A    between atoms: C_31  and  C_32
REMARK   10  A    between atoms: C_31  and  C_33
REMARK   11  A    between atoms: C_31  and  N_34
REMARK                            x       y       z     vdW  Elec       q    Type
REMARK                         _______ _______ _______ _____ _____    ______ ____
ROOT
ATOM      1  C   UNL     1       2.810   6.845  18.371  0.00  0.00    +0.000 C 
ENDROOT
BRANCH   1   7
ATOM      2  C   UNL     1       1.216   8.403  20.648  0.00  0.00    +0.000 C 
ATOM      3  N   UNL     1       1.656   8.943  19.388  0.00  0.00    +0.000 N 
ATOM      4  C   UNL     1       1.513  10.248  18.953  0.00  0.00    +0.000 A 
ATOM      5  N   UNL     1       1.817  10.289  17.676  0.00  0.00    +0.000 NA
ATOM      6  N   UNL     1       2.276   9.058  17.300  0.00  0.00    +0.000 NA
ATOM      7  C   UNL     1       2.260   8.259  18.351  0.00  0.00    +0.000 A 
BRANCH   4   8
ATOM      8  C   UNL     1       1.155  11.439  19.795  0.00  0.00    +0.000 C 
BRANCH   8   9
ATOM      9  C   UNL     1      -0.257  11.898  19.603  0.00  0.00    +0.000 A 
ATOM     10  C   UNL     1      -0.922  12.047  18.399  0.00  0.00    +0.000 A 
ATOM     11  N   UNL     1      -2.229  12.357  18.664  0.00  0.00    +0.000 N 
ATOM     12  C   UNL     1      -2.432  12.427  20.022  0.00  0.00    +0.000 A 
ATOM     13  C   UNL     1      -3.611  12.621  20.751  0.00  0.00    +0.000 A 
ATOM     14  C   UNL     1      -3.513  12.638  22.146  0.00  0.00    +0.000 A 
ATOM     15  C   UNL     1      -2.279  12.526  22.781  0.00  0.00    +0.000 A 
ATOM     16  C   UNL     1      -1.110  12.342  22.036  0.00  0.00    +0.000 A 
ATOM     17  C   UNL     1      -1.191  12.241  20.632  0.00  0.00    +0.000 A 
ATOM     18  H   UNL     1      -2.952  12.467  17.967  0.00  0.00    +0.000 HD
ENDBRANCH   8   9
ENDBRANCH   4   8
ENDBRANCH   1   7
BRANCH   1  19
ATOM     19  N   UNL     1       4.075   6.810  17.624  0.00  0.00    +0.000 N 
ATOM     20  C   UNL     1       5.175   6.083  18.005  0.00  0.00    +0.000 C 
ATOM     21  O   UNL     1       5.198   5.400  19.030  0.00  0.00    +0.000 OA
ATOM     22  H   UNL     1       4.011   7.079  16.651  0.00  0.00    +0.000 HD
BRANCH  20  23
ATOM     23  C   UNL     1       6.426   6.225  17.079  0.00  0.00    +0.000 C 
ATOM     24  C   UNL     1       7.313   7.391  17.517  0.00  0.00    +0.000 C 
ATOM     25  C   UNL     1       7.220   4.915  17.067  0.00  0.00    +0.000 C 
BRANCH  23  26
ATOM     26  N   UNL     1       5.967   6.492  15.693  0.00  0.00    +0.000 NA
ATOM     27  H   UNL     1       6.660   6.098  15.053  0.00  0.00    +0.000 HD
ATOM     28  H   UNL     1       6.035   7.498  15.527  0.00  0.00    +0.000 HD
ENDBRANCH  23  26
ENDBRANCH  20  23
ENDBRANCH   1  19
BRANCH   1  29
ATOM     29  C   UNL     1       1.787   5.881  17.696  0.00  0.00    +0.000 C 
BRANCH  29  30
ATOM     30  C   UNL     1       1.947   4.437  18.090  0.00  0.00    +0.000 A 
ATOM     31  C   UNL     1       2.131   3.376  17.227  0.00  0.00    +0.000 A 
ATOM     32  N   UNL     1       2.192   2.221  17.963  0.00  0.00    +0.000 N 
ATOM     33  C   UNL     1       2.108   2.510  19.300  0.00  0.00    +0.000 A 
ATOM     34  C   UNL     1       2.172   1.645  20.410  0.00  0.00    +0.000 A 
ATOM     35  C   UNL     1       2.104   2.222  21.683  0.00  0.00    +0.000 A 
ATOM     36  C   UNL     1       1.980   3.599  21.836  0.00  0.00    +0.000 A 
ATOM     37  C   UNL     1       1.910   4.442  20.722  0.00  0.00    +0.000 A 
ATOM     38  C   UNL     1       1.976   3.891  19.421  0.00  0.00    +0.000 A 
ATOM     39  H   UNL     1       2.315   1.298  17.584  0.00  0.00    +0.000 HD
ENDBRANCH  29  30
ENDBRANCH   1  29
TORSDOF 8
ENDMDL
MODEL 4
REMARK VINA RESULT:      -8.6      2.198      4.622
REMARK  Name = 
REMARK  11 active torsions:
REMARK  status: ('A' for Active; 'I' for Inactive)
REMARK    1  A    between atoms: C_1  and  N_2
REMARK    2  A    between atoms: C_3  and  C_4
REMARK    3  A    between atoms: C_4  and  C_5
REMARK    4  A    between atoms: C_16  and  C_17
REMARK    5  A    between atoms: C_17  and  C_18
REMARK    6  A    between atoms: C_17  and  N_28
REMARK    7  A    between atoms: C_18  and  C_19
REMARK    8  A    between atoms: C_29  and  C_31
REMARK    9  A    between atoms: C_31  and  C_32
REMARK   10  A    between atoms: C_31  and  C_33
REMARK   11  A    between atoms: C_31  and  N_34
REMARK                            x       y       z     vdW  Elec       q    Type
REMARK                         _______ _______ _______ _____ _____    ______ ____
ROOT
ATOM      1  C   UNL     1       3.334   6.354  18.440  0.00  0.00    +0.000 C 
ENDROOT
BRANCH   1   7
ATOM      2  C   UNL     1       1.405   7.808  20.518  0.00  0.00    +0.000 C 
ATOM      3  N   UNL     1       1.893   8.352  19.278  0.00  0.00    +0.000 N 
ATOM      4  C   UNL     1       1.657   9.621  18.783  0.00  0.00    +0.000 A 
ATOM      5  N   UNL     1       2.062   9.655  17.533  0.00  0.00    +0.000 NA
ATOM      6  N   UNL     1       2.673   8.467  17.244  0.00  0.00    +0.000 NA
ATOM      7  C   UNL     1       2.649   7.703  18.320  0.00  0.00    +0.000 A 
BRANCH   4   8
ATOM      8  C   UNL     1       1.111  10.793  19.546  0.00  0.00    +0.000 C 
BRANCH   8   9
ATOM      9  C   UNL     1       0.020  11.517  18.820  0.00  0.00    +0.000 A 
ATOM     10  C   UNL     1       0.023  12.846  18.434  0.00  0.00    +0.000 A 
ATOM     11  N   UNL     1      -1.097  13.081  17.684  0.00  0.00    +0.000 N 
ATOM     12  C   UNL     1      -1.845  11.931  17.581  0.00  0.00    +0.000 A 
ATOM     13  C   UNL     1      -3.007  11.672  16.845  0.00  0.00    +0.000 A 
ATOM     14  C   UNL     1      -3.550  10.386  16.928  0.00  0.00    +0.000 A 
ATOM     15  C   UNL     1      -2.988   9.420  17.758  0.00  0.00    +0.000 A 
ATOM     16  C   UNL     1      -1.833   9.699  18.492  0.00  0.00    +0.000 A 
ATOM     17  C   UNL     1      -1.218  10.963  18.365  0.00  0.00    +0.000 A 
ATOM     18  H   UNL     1      -1.319  13.954  17.229  0.00  0.00    +0.000 HD
ENDBRANCH   8   9
ENDBRANCH   4   8
ENDBRANCH   1   7
BRANCH   1  19
ATOM     19  N   UNL     1       4.754   6.504  18.091  0.00  0.00    +0.000 N 
ATOM     20  C   UNL     1       5.743   5.644  18.498  0.00  0.00    +0.000 C 
ATOM     21  O   UNL     1       5.520   4.667  19.215  0.00  0.00    +0.000 OA
ATOM     22  H   UNL     1       4.942   7.074  17.277  0.00  0.00    +0.000 HD
BRANCH  20  23
ATOM     23  C   UNL     1       7.189   6.019  18.040  0.00  0.00    +0.000 C 
ATOM     24  C   UNL     1       7.227   7.406  17.397  0.00  0.00    +0.000 C 
ATOM     25  C   UNL     1       8.151   5.948  19.230  0.00  0.00    +0.000 C 
BRANCH  23  26
ATOM     26  N   UNL     1       7.642   5.032  17.029  0.00  0.00    +0.000 NA
ATOM     27  H   UNL     1       7.709   4.121  17.490  0.00  0.00    +0.000 HD
ATOM     28  H   UNL     1       8.611   5.249  16.788  0.00  0.00    +0.000 HD
ENDBRANCH  23  26
ENDBRANCH  20  23
ENDBRANCH   1  19
BRANCH   1  29
ATOM     29  C   UNL     1       2.667   5.343  17.458  0.00  0.00    +0.000 C 
BRANCH  29  30
ATOM     30  C   UNL     1       2.427   3.979  18.046  0.00  0.00    +0.000 A 
ATOM     31  C   UNL     1       2.384   2.791  17.345  0.00  0.00    +0.000 A 
ATOM     32  N   UNL     1       2.102   1.777  18.225  0.00  0.00    +0.000 N 
ATOM     33  C   UNL     1       2.015   2.271  19.500  0.00  0.00    +0.000 A 
ATOM     34  C   UNL     1       1.787   1.589  20.711  0.00  0.00    +0.000 A 
ATOM     35  C   UNL     1       1.793   2.346  21.889  0.00  0.00    +0.000 A 
ATOM     36  C   UNL     1       2.018   3.718  21.853  0.00  0.00    +0.000 A 
ATOM     37  C   UNL     1       2.234   4.380  20.639  0.00  0.00    +0.000 A 
ATOM     38  C   UNL     1       2.235   3.644  19.431  0.00  0.00    +0.000 A 
ATOM     39  H   UNL     1       2.007   0.806  17.979  0.00  0.00    +0.000 HD
ENDBRANCH  29  30
ENDBRANCH   1  29
TORSDOF 8
ENDMDL
MODEL 5
REMARK VINA RESULT:      -8.6      3.123      9.588
REMARK  Name = 
REMARK  11 active torsions:
REMARK  status: ('A' for Active; 'I' for Inactive)
REMARK    1  A    between atoms: C_1  and  N_2
REMARK    2  A    between atoms: C_3  and  C_4
REMARK    3  A    between atoms: C_4  and  C_5
REMARK    4  A    between atoms: C_16  and  C_17
REMARK    5  A    between atoms: C_17  and  C_18
REMARK    6  A    between atoms: C_17  and  N_28
REMARK    7  A    between atoms: C_18  and  C_19
REMARK    8  A    between atoms: C_29  and  C_31
REMARK    9  A    between atoms: C_31  and  C_32
REMARK   10  A    between atoms: C_31  and  C_33
REMARK   11  A    between atoms: C_31  and  N_34
REMARK                            x       y       z     vdW  Elec       q    Type
REMARK                         _______ _______ _______ _____ _____    ______ ____
ROOT
ATOM      1  C   UNL     1       0.935  10.736  19.010  0.00  0.00    +0.000 C 
ENDROOT
BRANCH   1   7
ATOM      2  C   UNL     1       1.613   7.997  20.491  0.00  0.00    +0.000 C 
ATOM      3  N   UNL     1       1.913   8.328  19.122  0.00  0.00    +0.000 N 
ATOM      4  C   UNL     1       2.505   7.503  18.183  0.00  0.00    +0.000 A 
ATOM      5  N   UNL     1       2.827   8.234  17.141  0.00  0.00    +0.000 NA
ATOM      6  N   UNL     1       2.342   9.498  17.332  0.00  0.00    +0.000 NA
ATOM      7  C   UNL     1       1.715   9.542  18.492  0.00  0.00    +0.000 A 
BRANCH   4   8
ATOM      8  C   UNL     1       2.683   6.015  18.283  0.00  0.00    +0.000 C 
BRANCH   8   9
ATOM      9  C   UNL     1       4.115   5.595  18.401  0.00  0.00    +0.000 A 
ATOM     10  C   UNL     1       4.780   5.239  19.561  0.00  0.00    +0.000 A 
ATOM     11  N   UNL     1       6.030   4.796  19.223  0.00  0.00    +0.000 N 
ATOM     12  C   UNL     1       6.203   4.866  17.861  0.00  0.00    +0.000 A 
ATOM     13  C   UNL     1       7.271   4.440  17.062  0.00  0.00    +0.000 A 
ATOM     14  C   UNL     1       7.164   4.636  15.682  0.00  0.00    +0.000 A 
ATOM     15  C   UNL     1       6.062   5.286  15.132  0.00  0.00    +0.000 A 
ATOM     16  C   UNL     1       5.009   5.713  15.945  0.00  0.00    +0.000 A 
ATOM     17  C   UNL     1       5.055   5.455  17.331  0.00  0.00    +0.000 A 
ATOM     18  H   UNL     1       6.709   4.422  19.871  0.00  0.00    +0.000 HD
ENDBRANCH   8   9
ENDBRANCH   4   8
ENDBRANCH   1   7
BRANCH   1  19
ATOM     19  N   UNL     1      -0.335  10.834  18.278  0.00  0.00    +0.000 N 
ATOM     20  C   UNL     1      -1.550  11.075  18.870  0.00  0.00    +0.000 C 
ATOM     21  O   UNL     1      -1.679  11.215  20.087  0.00  0.00    +0.000 OA
ATOM     22  H   UNL     1      -0.252  11.041  17.291  0.00  0.00    +0.000 HD
BRANCH  20  23
ATOM     23  C   UNL     1      -2.775  11.100  17.901  0.00  0.00    +0.000 C 
ATOM     24  C   UNL     1      -3.212   9.685  17.519  0.00  0.00    +0.000 C 
ATOM     25  C   UNL     1      -3.935  11.869  18.543  0.00  0.00    +0.000 C 
BRANCH  23  26
ATOM     26  N   UNL     1      -2.388  11.813  16.659  0.00  0.00    +0.000 NA
ATOM     27  H   UNL     1      -2.147  12.774  16.913  0.00  0.00    +0.000 HD
ATOM     28  H   UNL     1      -3.226  11.922  16.084  0.00  0.00    +0.000 HD
ENDBRANCH  23  26
ENDBRANCH  20  23
ENDBRANCH   1  19
BRANCH   1  29
ATOM     29  C   UNL     1       1.764  12.037  18.779  0.00  0.00    +0.000 C 
BRANCH  29  30
ATOM     30  C   UNL     1       1.461  13.142  19.755  0.00  0.00    +0.000 A 
ATOM     31  C   UNL     1       1.038  12.980  21.058  0.00  0.00    +0.000 A 
ATOM     32  N   UNL     1       0.830  14.220  21.606  0.00  0.00    +0.000 N 
ATOM     33  C   UNL     1       1.164  15.195  20.703  0.00  0.00    +0.000 A 
ATOM     34  C   UNL     1       1.150  16.596  20.852  0.00  0.00    +0.000 A 
ATOM     35  C   UNL     1       1.591  17.364  19.768  0.00  0.00    +0.000 A 
ATOM     36  C   UNL     1       2.025  16.757  18.594  0.00  0.00    +0.000 A 
ATOM     37  C   UNL     1       2.024  15.364  18.462  0.00  0.00    +0.000 A 
ATOM     38  C   UNL     1       1.585  14.559  19.539  0.00  0.00    +0.000 A 
ATOM     39  H   UNL     1       0.513  14.393  22.545  0.00  0.00    +0.000 HD
ENDBRANCH  29  30
ENDBRANCH   1  29
TORSDOF 8
ENDMDL
MODEL 6
REMARK VINA RESULT:      -8.5      1.699      4.560
REMARK  Name = 
REMARK  11 active torsions:
REMARK  status: ('A' for Active; 'I' for Inactive)
REMARK    1  A    between atoms: C_1  and  N_2
REMARK    2  A    between atoms: C_3  and  C_4
REMARK    3  A    between atoms: C_4  and  C_5
REMARK    4  A    between atoms: C_16  and  C_17
REMARK    5  A    between atoms: C_17  and  C_18
REMARK    6  A    between atoms: C_17  and  N_28
REMARK    7  A    between atoms: C_18  and  C_19
REMARK    8  A    between atoms: C_29  and  C_31
REMARK    9  A    between atoms: C_31  and  C_32
REMARK   10  A    between atoms: C_31  and  C_33
REMARK   11  A    between atoms: C_31  and  N_34
REMARK                            x       y       z     vdW  Elec       q    Type
REMARK                         _______ _______ _______ _____ _____    ______ ____
ROOT
ATOM      1  C   UNL     1       2.954   6.715  18.338  0.00  0.00    +0.000 C 
ENDROOT
BRANCH   1   7
ATOM      2  C   UNL     1       1.176   8.283  20.467  0.00  0.00    +0.000 C 
ATOM      3  N   UNL     1       1.715   8.816  19.244  0.00  0.00    +0.000 N 
ATOM      4  C   UNL     1       1.605  10.118  18.790  0.00  0.00    +0.000 A 
ATOM      5  N   UNL     1       2.012  10.152  17.542  0.00  0.00    +0.000 NA
ATOM      6  N   UNL     1       2.504   8.920  17.212  0.00  0.00    +0.000 NA
ATOM      7  C   UNL     1       2.404   8.127  18.263  0.00  0.00    +0.000 A 
BRANCH   4   8
ATOM      8  C   UNL     1       1.176  11.313  19.592  0.00  0.00    +0.000 C 
BRANCH   8   9
ATOM      9  C   UNL     1      -0.308  11.509  19.618  0.00  0.00    +0.000 A 
ATOM     10  C   UNL     1      -1.026  12.270  20.523  0.00  0.00    +0.000 A 
ATOM     11  N   UNL     1      -2.335  12.296  20.122  0.00  0.00    +0.000 N 
ATOM     12  C   UNL     1      -2.492  11.554  18.975  0.00  0.00    +0.000 A 
ATOM     13  C   UNL     1      -3.617  11.372  18.163  0.00  0.00    +0.000 A 
ATOM     14  C   UNL     1      -3.476  10.556  17.037  0.00  0.00    +0.000 A 
ATOM     15  C   UNL     1      -2.277   9.902  16.769  0.00  0.00    +0.000 A 
ATOM     16  C   UNL     1      -1.165  10.088  17.596  0.00  0.00    +0.000 A 
ATOM     17  C   UNL     1      -1.257  10.969  18.693  0.00  0.00    +0.000 A 
ATOM     18  H   UNL     1      -3.069  12.824  20.571  0.00  0.00    +0.000 HD
ENDBRANCH   8   9
ENDBRANCH   4   8
ENDBRANCH   1   7
BRANCH   1  19
ATOM     19  N   UNL     1       4.254   6.669  17.655  0.00  0.00    +0.000 N 
ATOM     20  C   UNL     1       5.340   5.962  18.110  0.00  0.00    +0.000 C 
ATOM     21  O   UNL     1       5.316   5.309  19.154  0.00  0.00    +0.000 OA
ATOM     22  H   UNL     1       4.237   6.910  16.672  0.00  0.00    +0.000 HD
BRANCH  20  23
ATOM     23  C   UNL     1       6.633   6.088  17.243  0.00  0.00    +0.000 C 
ATOM     24  C   UNL     1       6.335   5.856  15.761  0.00  0.00    +0.000 C 
ATOM     25  C   UNL     1       7.276   7.462  17.456  0.00  0.00    +0.000 C 
BRANCH  23  26
ATOM     26  N   UNL     1       7.606   5.057  17.682  0.00  0.00    +0.000 NA
ATOM     27  H   UNL     1       8.217   4.846  16.890  0.00  0.00    +0.000 HD
ATOM     28  H   UNL     1       7.095   4.184  17.828  0.00  0.00    +0.000 HD
ENDBRANCH  23  26
ENDBRANCH  20  23
ENDBRANCH   1  19
BRANCH   1  29
ATOM     29  C   UNL     1       1.967   5.736  17.631  0.00  0.00    +0.000 C 
BRANCH  29  30
ATOM     30  C   UNL     1       2.091   4.305  18.079  0.00  0.00    +0.000 A 
ATOM     31  C   UNL     1       2.289   3.213  17.259  0.00  0.00    +0.000 A 
ATOM     32  N   UNL     1       2.307   2.082  18.035  0.00  0.00    +0.000 N 
ATOM     33  C   UNL     1       2.182   2.419  19.358  0.00  0.00    +0.000 A 
ATOM     34  C   UNL     1       2.193   1.590  20.498  0.00  0.00    +0.000 A 
ATOM     35  C   UNL     1       2.090   2.212  21.748  0.00  0.00    +0.000 A 
ATOM     36  C   UNL     1       1.982   3.594  21.850  0.00  0.00    +0.000 A 
ATOM     37  C   UNL     1       1.963   4.400  20.706  0.00  0.00    +0.000 A 
ATOM     38  C   UNL     1       2.066   3.804  19.428  0.00  0.00    +0.000 A 
ATOM     39  H   UNL     1       2.430   1.146  17.692  0.00  0.00    +0.000 HD
ENDBRANCH  29  30
ENDBRANCH   1  29
TORSDOF 8
ENDMDL
MODEL 7
REMARK VINA RESULT:      -8.5      3.332      9.090
REMARK  Name = 
REMARK  11 active torsions:
REMARK  status: ('A' for Active; 'I' for Inactive)
REMARK    1  A    between atoms: C_1  and  N_2
REMARK    2  A    between atoms: C_3  and  C_4
REMARK    3  A    between atoms: C_4  and  C_5
REMARK    4  A    between atoms: C_16  and  C_17
REMARK    5  A    between atoms: C_17  and  C_18
REMARK    6  A    between atoms: C_17  and  N_28
REMARK    7  A    between atoms: C_18  and  C_19
REMARK    8  A    between atoms: C_29  and  C_31
REMARK    9  A    between atoms: C_31  and  C_32
REMARK   10  A    between atoms: C_31  and  C_33
REMARK   11  A    between atoms: C_31  and  N_34
REMARK                            x       y       z     vdW  Elec       q    Type
REMARK                         _______ _______ _______ _____ _____    ______ ____
ROOT
ATOM      1  C   UNL     1       0.612  10.821  18.761  0.00  0.00    +0.000 C 
ENDROOT
BRANCH   1   7
ATOM      2  C   UNL     1       1.248   8.672  21.026  0.00  0.00    +0.000 C 
ATOM      3  N   UNL     1       1.628   8.593  19.640  0.00  0.00    +0.000 N 
ATOM      4  C   UNL     1       2.293   7.549  19.023  0.00  0.00    +0.000 A 
ATOM      5  N   UNL     1       2.666   7.950  17.829  0.00  0.00    +0.000 NA
ATOM      6  N   UNL     1       2.146   9.194  17.608  0.00  0.00    +0.000 NA
ATOM      7  C   UNL     1       1.446   9.558  18.667  0.00  0.00    +0.000 A 
BRANCH   4   8
ATOM      8  C   UNL     1       2.493   6.166  19.572  0.00  0.00    +0.000 C 
BRANCH   8   9
ATOM      9  C   UNL     1       2.979   5.186  18.550  0.00  0.00    +0.000 A 
ATOM     10  C   UNL     1       2.206   4.304  17.817  0.00  0.00    +0.000 A 
ATOM     11  N   UNL     1       3.011   3.680  16.903  0.00  0.00    +0.000 N 
ATOM     12  C   UNL     1       4.305   4.129  17.031  0.00  0.00    +0.000 A 
ATOM     13  C   UNL     1       5.439   3.848  16.260  0.00  0.00    +0.000 A 
ATOM     14  C   UNL     1       6.638   4.467  16.627  0.00  0.00    +0.000 A 
ATOM     15  C   UNL     1       6.711   5.284  17.752  0.00  0.00    +0.000 A 
ATOM     16  C   UNL     1       5.570   5.547  18.514  0.00  0.00    +0.000 A 
ATOM     17  C   UNL     1       4.331   5.000  18.120  0.00  0.00    +0.000 A 
ATOM     18  H   UNL     1       2.696   3.026  16.201  0.00  0.00    +0.000 HD
ENDBRANCH   8   9
ENDBRANCH   4   8
ENDBRANCH   1   7
BRANCH   1  19
ATOM     19  N   UNL     1      -0.612  10.650  17.966  0.00  0.00    +0.000 N 
ATOM     20  C   UNL     1      -1.798  11.290  18.228  0.00  0.00    +0.000 C 
ATOM     21  O   UNL     1      -1.940  12.062  19.177  0.00  0.00    +0.000 OA
ATOM     22  H   UNL     1      -0.473  10.297  17.028  0.00  0.00    +0.000 HD
BRANCH  20  23
ATOM     23  C   UNL     1      -2.980  10.928  17.273  0.00  0.00    +0.000 C 
ATOM     24  C   UNL     1      -2.517  10.849  15.817  0.00  0.00    +0.000 C 
ATOM     25  C   UNL     1      -3.620   9.606  17.709  0.00  0.00    +0.000 C 
BRANCH  23  26
ATOM     26  N   UNL     1      -4.015  11.988  17.369  0.00  0.00    +0.000 NA
ATOM     27  H   UNL     1      -4.589  11.790  18.192  0.00  0.00    +0.000 HD
ATOM     28  H   UNL     1      -4.665  11.865  16.590  0.00  0.00    +0.000 HD
ENDBRANCH  23  26
ENDBRANCH  20  23
ENDBRANCH   1  19
BRANCH   1  29
ATOM     29  C   UNL     1       1.428  12.025  18.198  0.00  0.00    +0.000 C 
BRANCH  29  30
ATOM     30  C   UNL     1       1.828  13.039  19.236  0.00  0.00    +0.000 A 
ATOM     31  C   UNL     1       1.601  12.942  20.594  0.00  0.00    +0.000 A 
ATOM     32  N   UNL     1       2.074  14.079  21.197  0.00  0.00    +0.000 N 
ATOM     33  C   UNL     1       2.659  14.896  20.266  0.00  0.00    +0.000 A 
ATOM     34  C   UNL     1       3.309  16.134  20.442  0.00  0.00    +0.000 A 
ATOM     35  C   UNL     1       3.863  16.739  19.309  0.00  0.00    +0.000 A 
ATOM     36  C   UNL     1       3.772  16.132  18.060  0.00  0.00    +0.000 A 
ATOM     37  C   UNL     1       3.115  14.907  17.903  0.00  0.00    +0.000 A 
ATOM     38  C   UNL     1       2.544  14.269  19.028  0.00  0.00    +0.000 A 
ATOM     39  H   UNL     1       2.031  14.272  22.183  0.00  0.00    +0.000 HD
ENDBRANCH  29  30
ENDBRANCH   1  29
TORSDOF 8
ENDMDL
MODEL 8
REMARK VINA RESULT:      -8.4      1.946      3.265
REMARK  Name = 
REMARK  11 active torsions:
REMARK  status: ('A' for Active; 'I' for Inactive)
REMARK    1  A    between atoms: C_1  and  N_2
REMARK    2  A    between atoms: C_3  and  C_4
REMARK    3  A    between atoms: C_4  and  C_5
REMARK    4  A    between atoms: C_16  and  C_17
REMARK    5  A    between atoms: C_17  and  C_18
REMARK    6  A    between atoms: C_17  and  N_28
REMARK    7  A    between atoms: C_18  and  C_19
REMARK    8  A    between atoms: C_29  and  C_31
REMARK    9  A    between atoms: C_31  and  C_32
REMARK   10  A    between atoms: C_31  and  C_33
REMARK   11  A    between atoms: C_31  and  N_34
REMARK                            x       y       z     vdW  Elec       q    Type
REMARK                         _______ _______ _______ _____ _____    ______ ____
ROOT
ATOM      1  C   UNL     1       2.640   6.608  18.823  0.00  0.00    +0.000 C 
ENDROOT
BRANCH   1   7
ATOM      2  C   UNL     1       1.776   9.462  17.698  0.00  0.00    +0.000 C 
ATOM      3  N   UNL     1       1.438   8.910  18.984  0.00  0.00    +0.000 N 
ATOM      4  C   UNL     1       0.635   9.492  19.948  0.00  0.00    +0.000 A 
ATOM      5  N   UNL     1       0.763   8.802  21.059  0.00  0.00    +0.000 NA
ATOM      6  N   UNL     1       1.538   7.706  20.801  0.00  0.00    +0.000 NA
ATOM      7  C   UNL     1       1.882   7.719  19.526  0.00  0.00    +0.000 A 
BRANCH   4   8
ATOM      8  C   UNL     1      -0.290  10.660  19.758  0.00  0.00    +0.000 C 
BRANCH   8   9
ATOM      9  C   UNL     1       0.234  11.934  20.342  0.00  0.00    +0.000 A 
ATOM     10  C   UNL     1      -0.133  12.505  21.548  0.00  0.00    +0.000 A 
ATOM     11  N   UNL     1       0.670  13.590  21.775  0.00  0.00    +0.000 N 
ATOM     12  C   UNL     1       1.553  13.750  20.732  0.00  0.00    +0.000 A 
ATOM     13  C   UNL     1       2.609  14.654  20.574  0.00  0.00    +0.000 A 
ATOM     14  C   UNL     1       3.353  14.576  19.393  0.00  0.00    +0.000 A 
ATOM     15  C   UNL     1       3.016  13.672  18.389  0.00  0.00    +0.000 A 
ATOM     16  C   UNL     1       1.952  12.783  18.561  0.00  0.00    +0.000 A 
ATOM     17  C   UNL     1       1.236  12.785  19.776  0.00  0.00    +0.000 A 
ATOM     18  H   UNL     1       0.655  14.159  22.609  0.00  0.00    +0.000 HD
ENDBRANCH   8   9
ENDBRANCH   4   8
ENDBRANCH   1   7
BRANCH   1  19
ATOM     19  N   UNL     1       2.269   5.319  19.423  0.00  0.00    +0.000 N 
ATOM     20  C   UNL     1       1.739   4.265  18.720  0.00  0.00    +0.000 C 
ATOM     21  O   UNL     1       1.513   4.321  17.511  0.00  0.00    +0.000 OA
ATOM     22  H   UNL     1       2.712   5.110  20.308  0.00  0.00    +0.000 HD
BRANCH  20  23
ATOM     23  C   UNL     1       1.384   3.004  19.570  0.00  0.00    +0.000 C 
ATOM     24  C   UNL     1       2.329   1.841  19.263  0.00  0.00    +0.000 C 
ATOM     25  C   UNL     1       1.421   3.350  21.062  0.00  0.00    +0.000 C 
BRANCH  23  26
ATOM     26  N   UNL     1       0.003   2.575  19.236  0.00  0.00    +0.000 NA
ATOM     27  H   UNL     1      -0.568   3.416  19.128  0.00  0.00    +0.000 HD
ATOM     28  H   UNL     1      -0.394   2.121  20.061  0.00  0.00    +0.000 HD
ENDBRANCH  23  26
ENDBRANCH  20  23
ENDBRANCH   1  19
BRANCH   1  29
ATOM     29  C   UNL     1       4.173   6.835  18.996  0.00  0.00    +0.000 C 
BRANCH  29  30
ATOM     30  C   UNL     1       5.027   5.734  18.429  0.00  0.00    +0.000 A 
ATOM     31  C   UNL     1       5.622   4.717  19.148  0.00  0.00    +0.000 A 
ATOM     32  N   UNL     1       6.349   3.939  18.283  0.00  0.00    +0.000 N 
ATOM     33  C   UNL     1       6.196   4.394  17.000  0.00  0.00    +0.000 A 
ATOM     34  C   UNL     1       6.720   3.879  15.798  0.00  0.00    +0.000 A 
ATOM     35  C   UNL     1       6.361   4.523  14.609  0.00  0.00    +0.000 A 
ATOM     36  C   UNL     1       5.518   5.629  14.623  0.00  0.00    +0.000 A 
ATOM     37  C   UNL     1       5.014   6.132  15.828  0.00  0.00    +0.000 A 
ATOM     38  C   UNL     1       5.357   5.504  17.047  0.00  0.00    +0.000 A 
ATOM     39  H   UNL     1       6.889   3.132  18.544  0.00  0.00    +0.000 HD
ENDBRANCH  29  30
ENDBRANCH   1  29
TORSDOF 8
ENDMDL
MODEL 9
REMARK VINA RESULT:      -8.4      2.559      9.557
REMARK  Name = 
REMARK  11 active torsions:
REMARK  status: ('A' for Active; 'I' for Inactive)
REMARK    1  A    between atoms: C_1  and  N_2
REMARK    2  A    between atoms: C_3  and  C_4
REMARK    3  A    between atoms: C_4  and  C_5
REMARK    4  A    between atoms: C_16  and  C_17
REMARK    5  A    between atoms: C_17  and  C_18
REMARK    6  A    between atoms: C_17  and  N_28
REMARK    7  A    between atoms: C_18  and  C_19
REMARK    8  A    between atoms: C_29  and  C_31
REMARK    9  A    between atoms: C_31  and  C_32
REMARK   10  A    between atoms: C_31  and  C_33
REMARK   11  A    between atoms: C_31  and  N_34
REMARK                            x       y       z     vdW  Elec       q    Type
REMARK                         _______ _______ _______ _____ _____    ______ ____
ROOT
ATOM      1  C   UNL     1      -0.798  10.275  19.423  0.00  0.00    +0.000 C 
ENDROOT
BRANCH   1   7
ATOM      2  C   UNL     1       1.169   8.764  21.423  0.00  0.00    +0.000 C 
ATOM      3  N   UNL     1       1.233   8.750  19.985  0.00  0.00    +0.000 N 
ATOM      4  C   UNL     1       2.127   8.040  19.204  0.00  0.00    +0.000 A 
ATOM      5  N   UNL     1       2.024   8.472  17.968  0.00  0.00    +0.000 NA
ATOM      6  N   UNL     1       0.989   9.364  17.906  0.00  0.00    +0.000 NA
ATOM      7  C   UNL     1       0.451   9.476  19.106  0.00  0.00    +0.000 A 
BRANCH   4   8
ATOM      8  C   UNL     1       3.011   6.913  19.654  0.00  0.00    +0.000 C 
BRANCH   8   9
ATOM      9  C   UNL     1       2.292   5.607  19.777  0.00  0.00    +0.000 A 
ATOM     10  C   UNL     1       1.212   5.330  20.597  0.00  0.00    +0.000 A 
ATOM     11  N   UNL     1       0.769   4.066  20.316  0.00  0.00    +0.000 N 
ATOM     12  C   UNL     1       1.547   3.501  19.333  0.00  0.00    +0.000 A 
ATOM     13  C   UNL     1       1.415   2.277  18.669  0.00  0.00    +0.000 A 
ATOM     14  C   UNL     1       2.366   1.966  17.692  0.00  0.00    +0.000 A 
ATOM     15  C   UNL     1       3.437   2.817  17.436  0.00  0.00    +0.000 A 
ATOM     16  C   UNL     1       3.559   4.032  18.115  0.00  0.00    +0.000 A 
ATOM     17  C   UNL     1       2.569   4.407  19.048  0.00  0.00    +0.000 A 
ATOM     18  H   UNL     1      -0.042   3.630  20.730  0.00  0.00    +0.000 HD
ENDBRANCH   8   9
ENDBRANCH   4   8
ENDBRANCH   1   7
BRANCH   1  19
ATOM     19  N   UNL     1      -1.437  10.688  18.166  0.00  0.00    +0.000 N 
ATOM     20  C   UNL     1      -2.610  10.160  17.687  0.00  0.00    +0.000 C 
ATOM     21  O   UNL     1      -3.227   9.271  18.275  0.00  0.00    +0.000 OA
ATOM     22  H   UNL     1      -1.163  11.598  17.819  0.00  0.00    +0.000 HD
BRANCH  20  23
ATOM     23  C   UNL     1      -3.085  10.723  16.309  0.00  0.00    +0.000 C 
ATOM     24  C   UNL     1      -3.154   9.621  15.251  0.00  0.00    +0.000 C 
ATOM     25  C   UNL     1      -4.446  11.409  16.464  0.00  0.00    +0.000 C 
BRANCH  23  26
ATOM     26  N   UNL     1      -2.111  11.743  15.847  0.00  0.00    +0.000 NA
ATOM     27  H   UNL     1      -1.173  11.349  15.951  0.00  0.00    +0.000 HD
ATOM     28  H   UNL     1      -2.122  12.514  16.518  0.00  0.00    +0.000 HD
ENDBRANCH  23  26
ENDBRANCH  20  23
ENDBRANCH   1  19
BRANCH   1  29
ATOM     29  C   UNL     1      -0.408  11.543  20.243  0.00  0.00    +0.000 C 
BRANCH  29  30
ATOM     30  C   UNL     1      -1.335  11.845  21.390  0.00  0.00    +0.000 A 
ATOM     31  C   UNL     1      -1.049  11.679  22.730  0.00  0.00    +0.000 A 
ATOM     32  N   UNL     1      -2.158  12.023  23.459  0.00  0.00    +0.000 N 
ATOM     33  C   UNL     1      -3.150  12.467  22.624  0.00  0.00    +0.000 A 
ATOM     34  C   UNL     1      -4.433  12.958  22.938  0.00  0.00    +0.000 A 
ATOM     35  C   UNL     1      -5.235  13.391  21.877  0.00  0.00    +0.000 A 
ATOM     36  C   UNL     1      -4.775  13.336  20.566  0.00  0.00    +0.000 A 
ATOM     37  C   UNL     1      -3.501  12.837  20.272  0.00  0.00    +0.000 A 
ATOM     38  C   UNL     1      -2.665  12.391  21.321  0.00  0.00    +0.000 A 
ATOM     39  H   UNL     1      -2.226  11.989  24.461  0.00  0.00    +0.000 HD
ENDBRANCH  29  30
ENDBRANCH   1  29
TORSDOF 8
ENDMDL
