MODEL 1
REMARK VINA RESULT:      -9.0      0.000      0.000
REMARK  Name = 
REMARK  7 active torsions:
REMARK  status: ('A' for Active; 'I' for Inactive)
REMARK    1  A    between atoms: C_2  and  O_3
REMARK    2  A    between atoms: C_2  and  C_4
REMARK    3  A    between atoms: C_7  and  N_8
REMARK    4  A    between atoms: C_9  and  C_11
REMARK    5  A    between atoms: C_13  and  C_14
REMARK    6  A    between atoms: N_21  and  C_22
REMARK    7  A    between atoms: C_22  and  C_23
REMARK                            x       y       z     vdW  Elec       q    Type
REMARK                         _______ _______ _______ _____ _____    ______ ____
ROOT
ATOM      1  C   UNL     1       0.790   9.472  21.207  0.00  0.00    +0.000 A 
ATOM      2  C   UNL     1       1.438   8.244  21.291  0.00  0.00    +0.000 A 
ATOM      3  C   UNL     1       1.796   7.816  19.983  0.00  0.00    +0.000 A 
ATOM      4  C   UNL     1       1.431   8.832  19.130  0.00  0.00    +0.000 A 
ATOM      5  N   UNL     1       0.811   9.819  19.863  0.00  0.00    +0.000 N 
ENDROOT
BRANCH   3   6
ATOM      6  C   UNL     1       2.314   6.535  19.534  0.00  0.00    +0.000 A 
ATOM      7  C   UNL     1       2.946   6.449  18.285  0.00  0.00    +0.000 A 
ATOM      8  C   UNL     1       3.507   5.247  17.853  0.00  0.00    +0.000 A 
ATOM      9  C   UNL     1       3.439   4.117  18.662  0.00  0.00    +0.000 A 
ATOM     10  C   UNL     1       2.808   4.186  19.904  0.00  0.00    +0.000 A 
ATOM     11  C   UNL     1       2.247   5.390  20.338  0.00  0.00    +0.000 A 
ENDBRANCH   3   6
BRANCH   1  13
ATOM     12  N   UNL     1      -0.687  11.269  21.788  0.00  0.00    +0.000 N 
ATOM     13  C   UNL     1       0.121  10.241  22.251  0.00  0.00    +0.000 C 
ATOM     14  O   UNL     1       0.265   9.970  23.438  0.00  0.00    +0.000 OA
ATOM     15  H   UNL     1      -0.869  11.288  20.795  0.00  0.00    +0.000 HD
BRANCH  12  19
ATOM     16  C   UNL     1      -2.680  14.207  24.096  0.00  0.00    +0.000 A 
ATOM     17  C   UNL     1      -1.418  14.486  23.570  0.00  0.00    +0.000 A 
ATOM     18  C   UNL     1      -0.741  13.518  22.820  0.00  0.00    +0.000 A 
ATOM     19  C   UNL     1      -1.313  12.268  22.566  0.00  0.00    +0.000 A 
ATOM     20  C   UNL     1      -2.594  12.004  23.069  0.00  0.00    +0.000 A 
ATOM     21  C   UNL     1      -3.273  12.965  23.828  0.00  0.00    +0.000 A 
BRANCH  16  23
ATOM     22  O   UNL     1      -2.920  15.924  25.724  0.00  0.00    +0.000 OA
ATOM     23  C   UNL     1      -3.446  15.203  24.888  0.00  0.00    +0.000 C 
BRANCH  23  24
ATOM     24  O   UNL     1      -4.757  15.271  24.585  0.00  0.00    +0.000 OA
ATOM     25  H   UNL     1      -5.192  16.122  24.774  0.00  0.00    +0.000 HD
ENDBRANCH  23  24
ENDBRANCH  16  23
ENDBRANCH  12  19
ENDBRANCH   1  13
BRANCH   5  26
ATOM     26  C   UNL     1       0.308  11.055  19.261  0.00  0.00    +0.000 C 
BRANCH  26  27
ATOM     27  C   UNL     1      -1.001  10.859  18.569  0.00  0.00    +0.000 A 
ATOM     28  C   UNL     1      -1.207  10.079  17.451  0.00  0.00    +0.000 A 
ATOM     29  S   UNL     1      -2.846  10.118  16.998  0.00  0.00    +0.000 S 
ATOM     30  C   UNL     1      -3.212  11.189  18.314  0.00  0.00    +0.000 A 
ATOM     31  N   UNL     1      -4.458  11.682  18.559  0.00  0.00    +0.000 N 
ATOM     32  C   UNL     1      -4.677  12.605  19.669  0.00  0.00    +0.000 C 
ATOM     33  C   UNL     1      -5.782  12.035  20.555  0.00  0.00    +0.000 C 
ATOM     34  C   UNL     1      -7.061  11.788  19.752  0.00  0.00    +0.000 C 
ATOM     35  C   UNL     1      -6.798  10.984  18.476  0.00  0.00    +0.000 C 
ATOM     36  C   UNL     1      -5.603  11.506  17.674  0.00  0.00    +0.000 C 
ATOM     37  N   UNL     1      -2.159  11.445  19.071  0.00  0.00    +0.000 NA
ENDBRANCH  26  27
ENDBRANCH   5  26
TORSDOF 7
ENDMDL
MODEL 2
REMARK VINA RESULT:      -8.9      0.192      1.281
REMARK  Name = 
REMARK  7 active torsions:
REMARK  status: ('A' for Active; 'I' for Inactive)
REMARK    1  A    between atoms: C_2  and  O_3
REMARK    2  A    between atoms: C_2  and  C_4
REMARK    3  A    between atoms: C_7  and  N_8
REMARK    4  A    between atoms: C_9  and  C_11
REMARK    5  A    between atoms: C_13  and  C_14
REMARK    6  A    between atoms: N_21  and  C_22
REMARK    7  A    between atoms: C_22  and  C_23
REMARK                            x       y       z     vdW  Elec       q    Type
REMARK                         _______ _______ _______ _____ _____    ______ ____
ROOT
ATOM      1  C   UNL     1       0.753   9.459  21.225  0.00  0.00    +0.000 A 
ATOM      2  C   UNL     1       1.401   8.232  21.318  0.00  0.00    +0.000 A 
ATOM      3  C   UNL     1       1.775   7.803  20.015  0.00  0.00    +0.000 A 
ATOM      4  C   UNL     1       1.420   8.818  19.157  0.00  0.00    +0.000 A 
ATOM      5  N   UNL     1       0.790   9.805  19.880  0.00  0.00    +0.000 N 
ENDROOT
BRANCH   3   6
ATOM      6  C   UNL     1       2.300   6.521  19.575  0.00  0.00    +0.000 A 
ATOM      7  C   UNL     1       2.186   5.406  20.419  0.00  0.00    +0.000 A 
ATOM      8  C   UNL     1       2.626   4.150  20.000  0.00  0.00    +0.000 A 
ATOM      9  C   UNL     1       3.189   3.995  18.737  0.00  0.00    +0.000 A 
ATOM     10  C   UNL     1       3.315   5.097  17.891  0.00  0.00    +0.000 A 
ATOM     11  C   UNL     1       2.873   6.355  18.308  0.00  0.00    +0.000 A 
ENDBRANCH   3   6
BRANCH   1  13
ATOM     12  N   UNL     1      -0.776  11.219  21.784  0.00  0.00    +0.000 N 
ATOM     13  C   UNL     1       0.072  10.230  22.259  0.00  0.00    +0.000 C 
ATOM     14  O   UNL     1       0.238   9.991  23.451  0.00  0.00    +0.000 OA
ATOM     15  H   UNL     1      -0.971  11.209  20.793  0.00  0.00    +0.000 HD
BRANCH  12  19
ATOM     16  C   UNL     1      -2.608  14.253  24.101  0.00  0.00    +0.000 A 
ATOM     17  C   UNL     1      -3.302  13.070  23.845  0.00  0.00    +0.000 A 
ATOM     18  C   UNL     1      -2.715  12.067  23.067  0.00  0.00    +0.000 A 
ATOM     19  C   UNL     1      -1.426  12.214  22.547  0.00  0.00    +0.000 A 
ATOM     20  C   UNL     1      -0.720  13.390  22.834  0.00  0.00    +0.000 A 
ATOM     21  C   UNL     1      -1.305  14.402  23.606  0.00  0.00    +0.000 A 
BRANCH  16  23
ATOM     22  O   UNL     1      -4.309  15.780  24.757  0.00  0.00    +0.000 OA
ATOM     23  C   UNL     1      -3.181  15.343  24.932  0.00  0.00    +0.000 C 
BRANCH  23  24
ATOM     24  O   UNL     1      -2.369  15.785  25.913  0.00  0.00    +0.000 OA
ATOM     25  H   UNL     1      -2.335  15.234  26.715  0.00  0.00    +0.000 HD
ENDBRANCH  23  24
ENDBRANCH  16  23
ENDBRANCH  12  19
ENDBRANCH   1  13
BRANCH   5  26
ATOM     26  C   UNL     1       0.294  11.040  19.270  0.00  0.00    +0.000 C 
BRANCH  26  27
ATOM     27  C   UNL     1      -1.017  10.846  18.580  0.00  0.00    +0.000 A 
ATOM     28  C   UNL     1      -1.230  10.052  17.473  0.00  0.00    +0.000 A 
ATOM     29  S   UNL     1      -2.868  10.099  17.018  0.00  0.00    +0.000 S 
ATOM     30  C   UNL     1      -3.225  11.193  18.319  0.00  0.00    +0.000 A 
ATOM     31  N   UNL     1      -4.467  11.701  18.556  0.00  0.00    +0.000 N 
ATOM     32  C   UNL     1      -4.677  12.642  19.653  0.00  0.00    +0.000 C 
ATOM     33  C   UNL     1      -5.789  12.094  20.546  0.00  0.00    +0.000 C 
ATOM     34  C   UNL     1      -7.069  11.848  19.745  0.00  0.00    +0.000 C 
ATOM     35  C   UNL     1      -6.813  11.023  18.481  0.00  0.00    +0.000 C 
ATOM     36  C   UNL     1      -5.612  11.523  17.673  0.00  0.00    +0.000 C 
ATOM     37  N   UNL     1      -2.170  11.450  19.073  0.00  0.00    +0.000 NA
ENDBRANCH  26  27
ENDBRANCH   5  26
TORSDOF 7
ENDMDL
MODEL 3
REMARK VINA RESULT:      -8.7      0.866      1.477
REMARK  Name = 
REMARK  7 active torsions:
REMARK  status: ('A' for Active; 'I' for Inactive)
REMARK    1  A    between atoms: C_2  and  O_3
REMARK    2  A    between atoms: C_2  and  C_4
REMARK    3  A    between atoms: C_7  and  N_8
REMARK    4  A    between atoms: C_9  and  C_11
REMARK    5  A    between atoms: C_13  and  C_14
REMARK    6  A    between atoms: N_21  and  C_22
REMARK    7  A    between atoms: C_22  and  C_23
REMARK                            x       y       z     vdW  Elec       q    Type
REMARK                         _______ _______ _______ _____ _____    ______ ____
ROOT
ATOM      1  C   UNL     1       0.687   9.565  20.223  0.00  0.00    +0.000 A 
ATOM      2  C   UNL     1       1.526   8.456  20.220  0.00  0.00    +0.000 A 
ATOM      3  C   UNL     1       1.994   8.230  18.897  0.00  0.00    +0.000 A 
ATOM      4  C   UNL     1       1.495   9.257  18.129  0.00  0.00    +0.000 A 
ATOM      5  N   UNL     1       0.695  10.049  18.922  0.00  0.00    +0.000 N 
ENDROOT
BRANCH   3   6
ATOM      6  C   UNL     1       2.733   7.102  18.354  0.00  0.00    +0.000 A 
ATOM      7  C   UNL     1       2.281   5.799  18.608  0.00  0.00    +0.000 A 
ATOM      8  C   UNL     1       2.933   4.699  18.051  0.00  0.00    +0.000 A 
ATOM      9  C   UNL     1       4.048   4.889  17.238  0.00  0.00    +0.000 A 
ATOM     10  C   UNL     1       4.512   6.179  16.983  0.00  0.00    +0.000 A 
ATOM     11  C   UNL     1       3.857   7.282  17.539  0.00  0.00    +0.000 A 
ENDBRANCH   3   6
BRANCH   1  13
ATOM     12  N   UNL     1      -0.502  11.433  21.145  0.00  0.00    +0.000 N 
ATOM     13  C   UNL     1      -0.135  10.104  21.301  0.00  0.00    +0.000 C 
ATOM     14  O   UNL     1      -0.478   9.411  22.253  0.00  0.00    +0.000 OA
ATOM     15  H   UNL     1      -0.314  11.850  20.244  0.00  0.00    +0.000 HD
BRANCH  12  19
ATOM     16  C   UNL     1      -2.314  13.940  24.035  0.00  0.00    +0.000 A 
ATOM     17  C   UNL     1      -2.947  12.755  23.660  0.00  0.00    +0.000 A 
ATOM     18  C   UNL     1      -2.368  11.926  22.693  0.00  0.00    +0.000 A 
ATOM     19  C   UNL     1      -1.145  12.251  22.100  0.00  0.00    +0.000 A 
ATOM     20  C   UNL     1      -0.497  13.425  22.503  0.00  0.00    +0.000 A 
ATOM     21  C   UNL     1      -1.076  14.264  23.464  0.00  0.00    +0.000 A 
BRANCH  16  23
ATOM     22  O   UNL     1      -2.218  15.279  25.998  0.00  0.00    +0.000 OA
ATOM     23  C   UNL     1      -2.880  14.849  25.065  0.00  0.00    +0.000 C 
BRANCH  23  24
ATOM     24  O   UNL     1      -4.170  15.185  24.867  0.00  0.00    +0.000 OA
ATOM     25  H   UNL     1      -4.321  16.024  24.397  0.00  0.00    +0.000 HD
ENDBRANCH  23  24
ENDBRANCH  16  23
ENDBRANCH  12  19
ENDBRANCH   1  13
BRANCH   5  26
ATOM     26  C   UNL     1       0.016  11.243  18.417  0.00  0.00    +0.000 C 
BRANCH  26  27
ATOM     27  C   UNL     1      -1.407  10.975  18.048  0.00  0.00    +0.000 A 
ATOM     28  C   UNL     1      -1.829  10.091  17.078  0.00  0.00    +0.000 A 
ATOM     29  S   UNL     1      -3.527  10.077  16.991  0.00  0.00    +0.000 S 
ATOM     30  C   UNL     1      -3.628  11.266  18.252  0.00  0.00    +0.000 A 
ATOM     31  N   UNL     1      -4.805  11.774  18.716  0.00  0.00    +0.000 N 
ATOM     32  C   UNL     1      -4.802  12.797  19.757  0.00  0.00    +0.000 C 
ATOM     33  C   UNL     1      -5.675  12.307  20.911  0.00  0.00    +0.000 C 
ATOM     34  C   UNL     1      -7.090  11.978  20.431  0.00  0.00    +0.000 C 
ATOM     35  C   UNL     1      -7.088  11.057  19.209  0.00  0.00    +0.000 C 
ATOM     36  C   UNL     1      -6.109  11.508  18.121  0.00  0.00    +0.000 C 
ATOM     37  N   UNL     1      -2.443  11.599  18.734  0.00  0.00    +0.000 NA
ENDBRANCH  26  27
ENDBRANCH   5  26
TORSDOF 7
ENDMDL
MODEL 4
REMARK VINA RESULT:      -8.7      1.179      1.542
REMARK  Name = 
REMARK  7 active torsions:
REMARK  status: ('A' for Active; 'I' for Inactive)
REMARK    1  A    between atoms: C_2  and  O_3
REMARK    2  A    between atoms: C_2  and  C_4
REMARK    3  A    between atoms: C_7  and  N_8
REMARK    4  A    between atoms: C_9  and  C_11
REMARK    5  A    between atoms: C_13  and  C_14
REMARK    6  A    between atoms: N_21  and  C_22
REMARK    7  A    between atoms: C_22  and  C_23
REMARK                            x       y       z     vdW  Elec       q    Type
REMARK                         _______ _______ _______ _____ _____    ______ ____
ROOT
ATOM      1  C   UNL     1       0.440  10.711  20.758  0.00  0.00    +0.000 A 
ATOM      2  C   UNL     1       1.112   9.549  21.124  0.00  0.00    +0.000 A 
ATOM      3  C   UNL     1       1.381   8.780  19.959  0.00  0.00    +0.000 A 
ATOM      4  C   UNL     1       0.940   9.528  18.892  0.00  0.00    +0.000 A 
ATOM      5  N   UNL     1       0.358  10.679  19.372  0.00  0.00    +0.000 N 
ENDROOT
BRANCH   3   6
ATOM      6  C   UNL     1       1.887   7.423  19.838  0.00  0.00    +0.000 A 
ATOM      7  C   UNL     1       2.723   7.095  18.760  0.00  0.00    +0.000 A 
ATOM      8  C   UNL     1       3.273   5.818  18.650  0.00  0.00    +0.000 A 
ATOM      9  C   UNL     1       2.989   4.852  19.612  0.00  0.00    +0.000 A 
ATOM     10  C   UNL     1       2.153   5.163  20.685  0.00  0.00    +0.000 A 
ATOM     11  C   UNL     1       1.604   6.443  20.797  0.00  0.00    +0.000 A 
ENDBRANCH   3   6
BRANCH   1  13
ATOM     12  N   UNL     1      -1.530  11.604  21.791  0.00  0.00    +0.000 N 
ATOM     13  C   UNL     1      -0.163  11.738  21.600  0.00  0.00    +0.000 C 
ATOM     14  O   UNL     1       0.510  12.631  22.103  0.00  0.00    +0.000 OA
ATOM     15  H   UNL     1      -1.947  10.739  21.479  0.00  0.00    +0.000 HD
BRANCH  12  19
ATOM     16  C   UNL     1      -4.043  14.491  23.602  0.00  0.00    +0.000 A 
ATOM     17  C   UNL     1      -3.996  13.197  24.123  0.00  0.00    +0.000 A 
ATOM     18  C   UNL     1      -3.183  12.229  23.524  0.00  0.00    +0.000 A 
ATOM     19  C   UNL     1      -2.393  12.535  22.413  0.00  0.00    +0.000 A 
ATOM     20  C   UNL     1      -2.418  13.843  21.913  0.00  0.00    +0.000 A 
ATOM     21  C   UNL     1      -3.236  14.814  22.503  0.00  0.00    +0.000 A 
BRANCH  16  23
ATOM     22  O   UNL     1      -6.022  15.788  23.839  0.00  0.00    +0.000 OA
ATOM     23  C   UNL     1      -4.880  15.559  24.208  0.00  0.00    +0.000 C 
BRANCH  23  24
ATOM     24  O   UNL     1      -4.289  16.227  25.218  0.00  0.00    +0.000 OA
ATOM     25  H   UNL     1      -3.888  17.083  24.982  0.00  0.00    +0.000 HD
ENDBRANCH  23  24
ENDBRANCH  16  23
ENDBRANCH  12  19
ENDBRANCH   1  13
BRANCH   5  26
ATOM     26  C   UNL     1      -0.207  11.707  18.496  0.00  0.00    +0.000 C 
BRANCH  26  27
ATOM     27  C   UNL     1      -1.611  11.398  18.090  0.00  0.00    +0.000 A 
ATOM     28  C   UNL     1      -1.981  10.576  17.046  0.00  0.00    +0.000 A 
ATOM     29  S   UNL     1      -3.675  10.485  16.939  0.00  0.00    +0.000 S 
ATOM     30  C   UNL     1      -3.846  11.561  18.291  0.00  0.00    +0.000 A 
ATOM     31  N   UNL     1      -5.050  11.969  18.781  0.00  0.00    +0.000 N 
ATOM     32  C   UNL     1      -5.107  12.902  19.903  0.00  0.00    +0.000 C 
ATOM     33  C   UNL     1      -5.962  12.277  21.003  0.00  0.00    +0.000 C 
ATOM     34  C   UNL     1      -7.355  11.917  20.482  0.00  0.00    +0.000 C 
ATOM     35  C   UNL     1      -7.298  11.101  19.188  0.00  0.00    +0.000 C 
ATOM     36  C   UNL     1      -6.335  11.688  18.152  0.00  0.00    +0.000 C 
ATOM     37  N   UNL     1      -2.683  11.912  18.813  0.00  0.00    +0.000 NA
ENDBRANCH  26  27
ENDBRANCH   5  26
TORSDOF 7
ENDMDL
MODEL 5
REMARK VINA RESULT:      -8.7      1.091      1.496
REMARK  Name = 
REMARK  7 active torsions:
REMARK  status: ('A' for Active; 'I' for Inactive)
REMARK    1  A    between atoms: C_2  and  O_3
REMARK    2  A    between atoms: C_2  and  C_4
REMARK    3  A    between atoms: C_7  and  N_8
REMARK    4  A    between atoms: C_9  and  C_11
REMARK    5  A    between atoms: C_13  and  C_14
REMARK    6  A    between atoms: N_21  and  C_22
REMARK    7  A    between atoms: C_22  and  C_23
REMARK                            x       y       z     vdW  Elec       q    Type
REMARK                         _______ _______ _______ _____ _____    ______ ____
ROOT
ATOM      1  C   UNL     1       0.636  10.494  20.798  0.00  0.00    +0.000 A 
ATOM      2  C   UNL     1       1.284   9.349  21.249  0.00  0.00    +0.000 A 
ATOM      3  C   UNL     1       1.533   8.488  20.145  0.00  0.00    +0.000 A 
ATOM      4  C   UNL     1       1.103   9.162  19.025  0.00  0.00    +0.000 A 
ATOM      5  N   UNL     1       0.547  10.358  19.418  0.00  0.00    +0.000 N 
ENDROOT
BRANCH   3   6
ATOM      6  C   UNL     1       2.009   7.115  20.127  0.00  0.00    +0.000 A 
ATOM      7  C   UNL     1       1.373   6.157  20.931  0.00  0.00    +0.000 A 
ATOM      8  C   UNL     1       1.768   4.820  20.890  0.00  0.00    +0.000 A 
ATOM      9  C   UNL     1       2.806   4.426  20.051  0.00  0.00    +0.000 A 
ATOM     10  C   UNL     1       3.452   5.370  19.252  0.00  0.00    +0.000 A 
ATOM     11  C   UNL     1       3.056   6.709  19.290  0.00  0.00    +0.000 A 
ENDBRANCH   3   6
BRANCH   1  13
ATOM     12  N   UNL     1      -1.298  11.469  21.826  0.00  0.00    +0.000 N 
ATOM     13  C   UNL     1       0.057  11.594  21.560  0.00  0.00    +0.000 C 
ATOM     14  O   UNL     1       0.741  12.539  21.941  0.00  0.00    +0.000 OA
ATOM     15  H   UNL     1      -1.718  10.573  21.620  0.00  0.00    +0.000 HD
BRANCH  12  19
ATOM     16  C   UNL     1      -3.910  14.313  23.564  0.00  0.00    +0.000 A 
ATOM     17  C   UNL     1      -3.075  14.698  22.515  0.00  0.00    +0.000 A 
ATOM     18  C   UNL     1      -2.195  13.772  21.943  0.00  0.00    +0.000 A 
ATOM     19  C   UNL     1      -2.144  12.450  22.391  0.00  0.00    +0.000 A 
ATOM     20  C   UNL     1      -3.007  12.059  23.423  0.00  0.00    +0.000 A 
ATOM     21  C   UNL     1      -3.884  12.982  24.005  0.00  0.00    +0.000 A 
BRANCH  16  23
ATOM     22  O   UNL     1      -6.060  15.264  23.917  0.00  0.00    +0.000 OA
ATOM     23  C   UNL     1      -4.871  15.252  24.198  0.00  0.00    +0.000 C 
BRANCH  23  24
ATOM     24  O   UNL     1      -4.330  16.063  25.128  0.00  0.00    +0.000 OA
ATOM     25  H   UNL     1      -4.452  15.786  26.053  0.00  0.00    +0.000 HD
ENDBRANCH  23  24
ENDBRANCH  16  23
ENDBRANCH  12  19
ENDBRANCH   1  13
BRANCH   5  26
ATOM     26  C   UNL     1       0.001  11.328  18.468  0.00  0.00    +0.000 C 
BRANCH  26  27
ATOM     27  C   UNL     1      -1.412  11.022  18.092  0.00  0.00    +0.000 A 
ATOM     28  C   UNL     1      -1.806  10.112  17.134  0.00  0.00    +0.000 A 
ATOM     29  S   UNL     1      -3.503  10.058  17.033  0.00  0.00    +0.000 S 
ATOM     30  C   UNL     1      -3.641  11.267  18.272  0.00  0.00    +0.000 A 
ATOM     31  N   UNL     1      -4.833  11.756  18.718  0.00  0.00    +0.000 N 
ATOM     32  C   UNL     1      -4.861  12.796  19.741  0.00  0.00    +0.000 C 
ATOM     33  C   UNL     1      -5.733  12.307  20.896  0.00  0.00    +0.000 C 
ATOM     34  C   UNL     1      -7.136  11.938  20.411  0.00  0.00    +0.000 C 
ATOM     35  C   UNL     1      -7.104  10.996  19.204  0.00  0.00    +0.000 C 
ATOM     36  C   UNL     1      -6.125  11.450  18.117  0.00  0.00    +0.000 C 
ATOM     37  N   UNL     1      -2.468  11.634  18.758  0.00  0.00    +0.000 NA
ENDBRANCH  26  27
ENDBRANCH   5  26
TORSDOF 7
ENDMDL
MODEL 6
REMARK VINA RESULT:      -8.5      4.265      9.029
REMARK  Name = 
REMARK  7 active torsions:
REMARK  status: ('A' for Active; 'I' for Inactive)
REMARK    1  A    between atoms: C_2  and  O_3
REMARK    2  A    between atoms: C_2  and  C_4
REMARK    3  A    between atoms: C_7  and  N_8
REMARK    4  A    between atoms: C_9  and  C_11
REMARK    5  A    between atoms: C_13  and  C_14
REMARK    6  A    between atoms: N_21  and  C_22
REMARK    7  A    between atoms: C_22  and  C_23
REMARK                            x       y       z     vdW  Elec       q    Type
REMARK                         _______ _______ _______ _____ _____    ______ ____
ROOT
ATOM      1  C   UNL     1       0.049  10.206  19.365  0.00  0.00    +0.000 A 
ATOM      2  C   UNL     1      -1.196  10.054  18.765  0.00  0.00    +0.000 A 
ATOM      3  C   UNL     1      -1.916  11.275  18.871  0.00  0.00    +0.000 A 
ATOM      4  C   UNL     1      -1.063  12.177  19.463  0.00  0.00    +0.000 A 
ATOM      5  N   UNL     1       0.111  11.531  19.776  0.00  0.00    +0.000 N 
ENDROOT
BRANCH   3   6
ATOM      6  C   UNL     1      -3.309  11.561  18.570  0.00  0.00    +0.000 A 
ATOM      7  C   UNL     1      -4.095  12.228  19.522  0.00  0.00    +0.000 A 
ATOM      8  C   UNL     1      -5.417  12.570  19.239  0.00  0.00    +0.000 A 
ATOM      9  C   UNL     1      -5.971  12.244  18.004  0.00  0.00    +0.000 A 
ATOM     10  C   UNL     1      -5.204  11.574  17.052  0.00  0.00    +0.000 A 
ATOM     11  C   UNL     1      -3.878  11.233  17.333  0.00  0.00    +0.000 A 
ENDBRANCH   3   6
BRANCH   1  13
ATOM     12  N   UNL     1       1.721   8.721  18.498  0.00  0.00    +0.000 N 
ATOM     13  C   UNL     1       1.081   9.208  19.628  0.00  0.00    +0.000 C 
ATOM     14  O   UNL     1       1.355   8.856  20.771  0.00  0.00    +0.000 OA
ATOM     15  H   UNL     1       1.540   9.208  17.632  0.00  0.00    +0.000 HD
BRANCH  12  19
ATOM     16  C   UNL     1       4.474   5.518  18.201  0.00  0.00    +0.000 A 
ATOM     17  C   UNL     1       3.463   5.469  19.162  0.00  0.00    +0.000 A 
ATOM     18  C   UNL     1       2.557   6.528  19.282  0.00  0.00    +0.000 A 
ATOM     19  C   UNL     1       2.630   7.642  18.440  0.00  0.00    +0.000 A 
ATOM     20  C   UNL     1       3.626   7.673  17.456  0.00  0.00    +0.000 A 
ATOM     21  C   UNL     1       4.541   6.619  17.336  0.00  0.00    +0.000 A 
BRANCH  16  23
ATOM     22  O   UNL     1       6.036   4.216  16.968  0.00  0.00    +0.000 OA
ATOM     23  C   UNL     1       5.453   4.414  18.024  0.00  0.00    +0.000 C 
BRANCH  23  24
ATOM     24  O   UNL     1       5.669   3.675  19.129  0.00  0.00    +0.000 OA
ATOM     25  H   UNL     1       5.986   4.163  19.910  0.00  0.00    +0.000 HD
ENDBRANCH  23  24
ENDBRANCH  16  23
ENDBRANCH  12  19
ENDBRANCH   1  13
BRANCH   5  26
ATOM     26  C   UNL     1       1.244  12.209  20.409  0.00  0.00    +0.000 C 
BRANCH  26  27
ATOM     27  C   UNL     1       1.796  13.307  19.560  0.00  0.00    +0.000 A 
ATOM     28  C   UNL     1       2.972  13.251  18.842  0.00  0.00    +0.000 A 
ATOM     29  S   UNL     1       3.220  14.707  18.000  0.00  0.00    +0.000 S 
ATOM     30  C   UNL     1       1.744  15.360  18.640  0.00  0.00    +0.000 A 
ATOM     31  N   UNL     1       1.293  16.615  18.363  0.00  0.00    +0.000 N 
ATOM     32  C   UNL     1       0.056  17.101  18.969  0.00  0.00    +0.000 C 
ATOM     33  C   UNL     1      -0.874  17.566  17.850  0.00  0.00    +0.000 C 
ATOM     34  C   UNL     1      -0.202  18.631  16.980  0.00  0.00    +0.000 C 
ATOM     35  C   UNL     1       1.187  18.199  16.505  0.00  0.00    +0.000 C 
ATOM     36  C   UNL     1       2.052  17.620  17.629  0.00  0.00    +0.000 C 
ATOM     37  N   UNL     1       1.090  14.495  19.397  0.00  0.00    +0.000 NA
ENDBRANCH  26  27
ENDBRANCH   5  26
TORSDOF 7
ENDMDL
MODEL 7
REMARK VINA RESULT:      -8.3      3.939      8.086
REMARK  Name = 
REMARK  7 active torsions:
REMARK  status: ('A' for Active; 'I' for Inactive)
REMARK    1  A    between atoms: C_2  and  O_3
REMARK    2  A    between atoms: C_2  and  C_4
REMARK    3  A    between atoms: C_7  and  N_8
REMARK    4  A    between atoms: C_9  and  C_11
REMARK    5  A    between atoms: C_13  and  C_14
REMARK    6  A    between atoms: N_21  and  C_22
REMARK    7  A    between atoms: C_22  and  C_23
REMARK                            x       y       z     vdW  Elec       q    Type
REMARK                         _______ _______ _______ _____ _____    ______ ____
ROOT
ATOM      1  C   UNL     1       1.485  10.534  18.532  0.00  0.00    +0.000 A 
ATOM      2  C   UNL     1       2.339  11.615  18.340  0.00  0.00    +0.000 A 
ATOM      3  C   UNL     1       1.642  12.818  18.635  0.00  0.00    +0.000 A 
ATOM      4  C   UNL     1       0.396  12.444  19.081  0.00  0.00    +0.000 A 
ATOM      5  N   UNL     1       0.294  11.073  19.003  0.00  0.00    +0.000 N 
ENDROOT
BRANCH   3   6
ATOM      6  C   UNL     1       2.037  14.199  18.411  0.00  0.00    +0.000 A 
ATOM      7  C   UNL     1       1.171  15.232  18.800  0.00  0.00    +0.000 A 
ATOM      8  C   UNL     1       1.548  16.568  18.654  0.00  0.00    +0.000 A 
ATOM      9  C   UNL     1       2.790  16.885  18.112  0.00  0.00    +0.000 A 
ATOM     10  C   UNL     1       3.657  15.868  17.716  0.00  0.00    +0.000 A 
ATOM     11  C   UNL     1       3.282  14.530  17.864  0.00  0.00    +0.000 A 
ENDBRANCH   3   6
BRANCH   1  13
ATOM     12  N   UNL     1       2.078   8.348  19.316  0.00  0.00    +0.000 N 
ATOM     13  C   UNL     1       1.692   9.122  18.232  0.00  0.00    +0.000 C 
ATOM     14  O   UNL     1       1.516   8.674  17.104  0.00  0.00    +0.000 OA
ATOM     15  H   UNL     1       2.020   8.783  20.225  0.00  0.00    +0.000 HD
BRANCH  12  19
ATOM     16  C   UNL     1       3.394   4.329  19.096  0.00  0.00    +0.000 A 
ATOM     17  C   UNL     1       2.476   4.699  20.079  0.00  0.00    +0.000 A 
ATOM     18  C   UNL     1       2.046   6.027  20.174  0.00  0.00    +0.000 A 
ATOM     19  C   UNL     1       2.506   7.002  19.284  0.00  0.00    +0.000 A 
ATOM     20  C   UNL     1       3.403   6.620  18.279  0.00  0.00    +0.000 A 
ATOM     21  C   UNL     1       3.844   5.294  18.184  0.00  0.00    +0.000 A 
BRANCH  16  23
ATOM     22  O   UNL     1       3.262   2.093  18.298  0.00  0.00    +0.000 OA
ATOM     23  C   UNL     1       3.873   2.931  18.945  0.00  0.00    +0.000 C 
BRANCH  23  24
ATOM     24  O   UNL     1       5.050   2.674  19.549  0.00  0.00    +0.000 OA
ATOM     25  H   UNL     1       5.092   2.881  20.499  0.00  0.00    +0.000 HD
ENDBRANCH  23  24
ENDBRANCH  16  23
ENDBRANCH  12  19
ENDBRANCH   1  13
BRANCH   5  26
ATOM     26  C   UNL     1      -0.906  10.343  19.415  0.00  0.00    +0.000 C 
BRANCH  26  27
ATOM     27  C   UNL     1      -2.099  10.698  18.589  0.00  0.00    +0.000 A 
ATOM     28  C   UNL     1      -2.346  10.255  17.307  0.00  0.00    +0.000 A 
ATOM     29  S   UNL     1      -3.822  10.883  16.740  0.00  0.00    +0.000 S 
ATOM     30  C   UNL     1      -4.065  11.733  18.234  0.00  0.00    +0.000 A 
ATOM     31  N   UNL     1      -5.145  12.527  18.482  0.00  0.00    +0.000 N 
ATOM     32  C   UNL     1      -5.258  13.234  19.754  0.00  0.00    +0.000 C 
ATOM     33  C   UNL     1      -6.599  12.867  20.388  0.00  0.00    +0.000 C 
ATOM     34  C   UNL     1      -7.761  13.188  19.445  0.00  0.00    +0.000 C 
ATOM     35  C   UNL     1      -7.547  12.610  18.044  0.00  0.00    +0.000 C 
ATOM     36  C   UNL     1      -6.148  12.888  17.488  0.00  0.00    +0.000 C 
ATOM     37  N   UNL     1      -3.107  11.500  19.115  0.00  0.00    +0.000 NA
ENDBRANCH  26  27
ENDBRANCH   5  26
TORSDOF 7
ENDMDL
MODEL 8
REMARK VINA RESULT:      -8.2      4.019      7.969
REMARK  Name = 
REMARK  7 active torsions:
REMARK  status: ('A' for Active; 'I' for Inactive)
REMARK    1  A    between atoms: C_2  and  O_3
REMARK    2  A    between atoms: C_2  and  C_4
REMARK    3  A    between atoms: C_7  and  N_8
REMARK    4  A    between atoms: C_9  and  C_11
REMARK    5  A    between atoms: C_13  and  C_14
REMARK    6  A    between atoms: N_21  and  C_22
REMARK    7  A    between atoms: C_22  and  C_23
REMARK                            x       y       z     vdW  Elec       q    Type
REMARK                         _______ _______ _______ _____ _____    ______ ____
ROOT
ATOM      1  C   UNL     1       1.543  10.582  18.483  0.00  0.00    +0.000 A 
ATOM      2  C   UNL     1       2.328  11.727  18.391  0.00  0.00    +0.000 A 
ATOM      3  C   UNL     1       1.513  12.869  18.623  0.00  0.00    +0.000 A 
ATOM      4  C   UNL     1       0.260  12.395  18.933  0.00  0.00    +0.000 A 
ATOM      5  N   UNL     1       0.273  11.022  18.832  0.00  0.00    +0.000 N 
ENDROOT
BRANCH   3   6
ATOM      6  C   UNL     1       1.822  14.280  18.454  0.00  0.00    +0.000 A 
ATOM      7  C   UNL     1       0.898  15.242  18.887  0.00  0.00    +0.000 A 
ATOM      8  C   UNL     1       1.191  16.602  18.794  0.00  0.00    +0.000 A 
ATOM      9  C   UNL     1       2.409  17.017  18.262  0.00  0.00    +0.000 A 
ATOM     10  C   UNL     1       3.334  16.071  17.820  0.00  0.00    +0.000 A 
ATOM     11  C   UNL     1       3.042  14.707  17.915  0.00  0.00    +0.000 A 
ENDBRANCH   3   6
BRANCH   1  13
ATOM     12  N   UNL     1       1.944   8.365  19.304  0.00  0.00    +0.000 N 
ATOM     13  C   UNL     1       1.889   9.195  18.194  0.00  0.00    +0.000 C 
ATOM     14  O   UNL     1       2.093   8.811  17.047  0.00  0.00    +0.000 OA
ATOM     15  H   UNL     1       1.586   8.745  20.169  0.00  0.00    +0.000 HD
BRANCH  12  19
ATOM     16  C   UNL     1       3.300   4.361  19.540  0.00  0.00    +0.000 A 
ATOM     17  C   UNL     1       3.863   5.223  18.598  0.00  0.00    +0.000 A 
ATOM     18  C   UNL     1       3.412   6.543  18.498  0.00  0.00    +0.000 A 
ATOM     19  C   UNL     1       2.411   7.033  19.342  0.00  0.00    +0.000 A 
ATOM     20  C   UNL     1       1.871   6.174  20.308  0.00  0.00    +0.000 A 
ATOM     21  C   UNL     1       2.312   4.848  20.408  0.00  0.00    +0.000 A 
BRANCH  16  23
ATOM     22  O   UNL     1       4.912   2.660  19.940  0.00  0.00    +0.000 OA
ATOM     23  C   UNL     1       3.751   2.954  19.696  0.00  0.00    +0.000 C 
BRANCH  23  24
ATOM     24  O   UNL     1       2.772   2.036  19.581  0.00  0.00    +0.000 OA
ATOM     25  H   UNL     1       3.023   1.120  19.796  0.00  0.00    +0.000 HD
ENDBRANCH  23  24
ENDBRANCH  16  23
ENDBRANCH  12  19
ENDBRANCH   1  13
BRANCH   5  26
ATOM     26  C   UNL     1      -0.903  10.196  19.110  0.00  0.00    +0.000 C 
BRANCH  26  27
ATOM     27  C   UNL     1      -2.097  10.623  18.320  0.00  0.00    +0.000 A 
ATOM     28  C   UNL     1      -2.352  10.283  17.008  0.00  0.00    +0.000 A 
ATOM     29  S   UNL     1      -3.825  10.962  16.497  0.00  0.00    +0.000 S 
ATOM     30  C   UNL     1      -4.058  11.694  18.055  0.00  0.00    +0.000 A 
ATOM     31  N   UNL     1      -5.131  12.472  18.368  0.00  0.00    +0.000 N 
ATOM     32  C   UNL     1      -5.236  13.079  19.692  0.00  0.00    +0.000 C 
ATOM     33  C   UNL     1      -6.577  12.672  20.299  0.00  0.00    +0.000 C 
ATOM     34  C   UNL     1      -7.740  13.073  19.389  0.00  0.00    +0.000 C 
ATOM     35  C   UNL     1      -7.534  12.605  17.946  0.00  0.00    +0.000 C 
ATOM     36  C   UNL     1      -6.135  12.917  17.409  0.00  0.00    +0.000 C 
ATOM     37  N   UNL     1      -3.098  11.387  18.911  0.00  0.00    +0.000 NA
ENDBRANCH  26  27
ENDBRANCH   5  26
TORSDOF 7
ENDMDL
MODEL 9
REMARK VINA RESULT:      -8.2      4.345      9.584
REMARK  Name = 
REMARK  7 active torsions:
REMARK  status: ('A' for Active; 'I' for Inactive)
REMARK    1  A    between atoms: C_2  and  O_3
REMARK    2  A    between atoms: C_2  and  C_4
REMARK    3  A    between atoms: C_7  and  N_8
REMARK    4  A    between atoms: C_9  and  C_11
REMARK    5  A    between atoms: C_13  and  C_14
REMARK    6  A    between atoms: N_21  and  C_22
REMARK    7  A    between atoms: C_22  and  C_23
REMARK                            x       y       z     vdW  Elec       q    Type
REMARK                         _______ _______ _______ _____ _____    ______ ____
ROOT
ATOM      1  C   UNL     1       0.271  10.470  18.503  0.00  0.00    +0.000 A 
ATOM      2  C   UNL     1      -0.940  10.561  17.824  0.00  0.00    +0.000 A 
ATOM      3  C   UNL     1      -1.849  11.337  18.594  0.00  0.00    +0.000 A 
ATOM      4  C   UNL     1      -1.148  11.774  19.694  0.00  0.00    +0.000 A 
ATOM      5  N   UNL     1       0.119  11.239  19.649  0.00  0.00    +0.000 N 
ENDROOT
BRANCH   3   6
ATOM      6  C   UNL     1      -3.273  11.558  18.405  0.00  0.00    +0.000 A 
ATOM      7  C   UNL     1      -4.013  12.175  19.424  0.00  0.00    +0.000 A 
ATOM      8  C   UNL     1      -5.368  12.455  19.249  0.00  0.00    +0.000 A 
ATOM      9  C   UNL     1      -6.000  12.117  18.055  0.00  0.00    +0.000 A 
ATOM     10  C   UNL     1      -5.277  11.497  17.036  0.00  0.00    +0.000 A 
ATOM     11  C   UNL     1      -3.919  11.218  17.210  0.00  0.00    +0.000 A 
ENDBRANCH   3   6
BRANCH   1  13
ATOM     12  N   UNL     1       1.408   8.363  18.629  0.00  0.00    +0.000 N 
ATOM     13  C   UNL     1       1.454   9.677  18.188  0.00  0.00    +0.000 C 
ATOM     14  O   UNL     1       2.397  10.154  17.565  0.00  0.00    +0.000 OA
ATOM     15  H   UNL     1       0.517   8.033  18.971  0.00  0.00    +0.000 HD
BRANCH  12  19
ATOM     16  C   UNL     1       4.563   5.541  18.709  0.00  0.00    +0.000 A 
ATOM     17  C   UNL     1       4.510   6.483  17.681  0.00  0.00    +0.000 A 
ATOM     18  C   UNL     1       3.463   7.410  17.634  0.00  0.00    +0.000 A 
ATOM     19  C   UNL     1       2.467   7.428  18.613  0.00  0.00    +0.000 A 
ATOM     20  C   UNL     1       2.542   6.501  19.661  0.00  0.00    +0.000 A 
ATOM     21  C   UNL     1       3.582   5.565  19.710  0.00  0.00    +0.000 A 
BRANCH  16  23
ATOM     22  O   UNL     1       6.840   4.854  18.749  0.00  0.00    +0.000 OA
ATOM     23  C   UNL     1       5.659   4.543  18.813  0.00  0.00    +0.000 C 
BRANCH  23  24
ATOM     24  O   UNL     1       5.246   3.277  19.018  0.00  0.00    +0.000 OA
ATOM     25  H   UNL     1       4.753   3.121  19.843  0.00  0.00    +0.000 HD
ENDBRANCH  23  24
ENDBRANCH  16  23
ENDBRANCH  12  19
ENDBRANCH   1  13
BRANCH   5  26
ATOM     26  C   UNL     1       1.133  11.516  20.669  0.00  0.00    +0.000 C 
BRANCH  26  27
ATOM     27  C   UNL     1       1.555  12.949  20.676  0.00  0.00    +0.000 A 
ATOM     28  C   UNL     1       1.026  13.936  21.480  0.00  0.00    +0.000 A 
ATOM     29  S   UNL     1       1.802  15.420  21.183  0.00  0.00    +0.000 S 
ATOM     30  C   UNL     1       2.811  14.681  19.978  0.00  0.00    +0.000 A 
ATOM     31  N   UNL     1       3.745  15.362  19.257  0.00  0.00    +0.000 N 
ATOM     32  C   UNL     1       4.531  14.672  18.238  0.00  0.00    +0.000 C 
ATOM     33  C   UNL     1       6.011  14.895  18.544  0.00  0.00    +0.000 C 
ATOM     34  C   UNL     1       6.341  16.388  18.613  0.00  0.00    +0.000 C 
ATOM     35  C   UNL     1       5.386  17.150  19.535  0.00  0.00    +0.000 C 
ATOM     36  C   UNL     1       3.914  16.810  19.286  0.00  0.00    +0.000 C 
ATOM     37  N   UNL     1       2.598  13.381  19.863  0.00  0.00    +0.000 NA
ENDBRANCH  26  27
ENDBRANCH   5  26
TORSDOF 7
ENDMDL
