MODEL 1
REMARK VINA RESULT:      -6.9      0.000      0.000
REMARK  Name = 
REMARK  4 active torsions:
REMARK  status: ('A' for Active; 'I' for Inactive)
REMARK    1  A    between atoms: C_1  and  C_2
REMARK    2  A    between atoms: N_4  and  C_5
REMARK    3  A    between atoms: C_5  and  C_6
REMARK    4  A    between atoms: N_11  and  C_12
REMARK                            x       y       z     vdW  Elec       q    Type
REMARK                         _______ _______ _______ _____ _____    ______ ____
ROOT
ATOM      1  C   UNL     1       7.641   5.244  19.009  0.00  0.00    +0.000 C 
ATOM      2  C   UNL     1       6.920   5.005  17.719  0.00  0.00    +0.000 A 
ATOM      3  N   UNL     1       7.507   5.170  16.565  0.00  0.00    +0.000 NA
ATOM      4  N   UNL     1       6.576   4.735  15.649  0.00  0.00    +0.000 N 
ATOM      5  C   UNL     1       5.394   4.358  16.303  0.00  0.00    +0.000 A 
ATOM      6  O   UNL     1       4.349   4.014  15.769  0.00  0.00    +0.000 OA
ATOM      7  N   UNL     1       5.653   4.537  17.649  0.00  0.00    +0.000 N 
ENDROOT
BRANCH   7   8
ATOM      8  C   UNL     1       4.756   4.228  18.694  0.00  0.00    +0.000 A 
ATOM      9  C   UNL     1       3.867   5.209  19.152  0.00  0.00    +0.000 A 
ATOM     10  C   UNL     1       2.892   4.895  20.107  0.00  0.00    +0.000 A 
ATOM     11  C   UNL     1       2.833   3.611  20.640  0.00  0.00    +0.000 A 
ATOM     12 CL   UNL     1       1.620   3.217  21.791  0.00  0.00    +0.000 Cl
ATOM     13  C   UNL     1       3.753   2.642  20.242  0.00  0.00    +0.000 A 
ATOM     14  C   UNL     1       4.708   2.951  19.267  0.00  0.00    +0.000 A 
ENDBRANCH   7   8
BRANCH   4  15
ATOM     15  C   UNL     1       6.711   4.915  14.226  0.00  0.00    +0.000 C 
BRANCH  15  16
ATOM     16  C   UNL     1       6.452   3.656  13.451  0.00  0.00    +0.000 C 
ATOM     17  C   UNL     1       5.366   3.533  12.408  0.00  0.00    +0.000 C 
ATOM     18  C   UNL     1       6.803   3.630  11.981  0.00  0.00    +0.000 C 
ENDBRANCH  15  16
ENDBRANCH   4  15
TORSDOF 3
ENDMDL
MODEL 2
REMARK VINA RESULT:      -6.7      3.187      4.270
REMARK  Name = 
REMARK  4 active torsions:
REMARK  status: ('A' for Active; 'I' for Inactive)
REMARK    1  A    between atoms: C_1  and  C_2
REMARK    2  A    between atoms: N_4  and  C_5
REMARK    3  A    between atoms: C_5  and  C_6
REMARK    4  A    between atoms: N_11  and  C_12
REMARK                            x       y       z     vdW  Elec       q    Type
REMARK                         _______ _______ _______ _____ _____    ______ ____
ROOT
ATOM      1  C   UNL     1       1.641   4.160  17.998  0.00  0.00    +0.000 C 
ATOM      2  C   UNL     1       3.008   4.703  17.717  0.00  0.00    +0.000 A 
ATOM      3  N   UNL     1       3.940   3.966  17.177  0.00  0.00    +0.000 NA
ATOM      4  N   UNL     1       4.981   4.842  16.965  0.00  0.00    +0.000 N 
ATOM      5  C   UNL     1       4.647   6.115  17.450  0.00  0.00    +0.000 A 
ATOM      6  O   UNL     1       5.385   7.089  17.495  0.00  0.00    +0.000 OA
ATOM      7  N   UNL     1       3.354   5.993  17.925  0.00  0.00    +0.000 N 
ENDROOT
BRANCH   7   8
ATOM      8  C   UNL     1       2.586   7.049  18.460  0.00  0.00    +0.000 A 
ATOM      9  C   UNL     1       2.280   7.056  19.827  0.00  0.00    +0.000 A 
ATOM     10  C   UNL     1       1.618   8.147  20.403  0.00  0.00    +0.000 A 
ATOM     11  C   UNL     1       1.219   9.214  19.604  0.00  0.00    +0.000 A 
ATOM     12 CL   UNL     1       0.432  10.566  20.314  0.00  0.00    +0.000 Cl
ATOM     13  C   UNL     1       1.458   9.193  18.231  0.00  0.00    +0.000 A 
ATOM     14  C   UNL     1       2.145   8.113  17.664  0.00  0.00    +0.000 A 
ENDBRANCH   7   8
BRANCH   4  15
ATOM     15  C   UNL     1       6.303   4.432  16.565  0.00  0.00    +0.000 C 
BRANCH  15  16
ATOM     16  C   UNL     1       6.338   3.838  15.187  0.00  0.00    +0.000 C 
ATOM     17  C   UNL     1       5.508   4.360  14.038  0.00  0.00    +0.000 C 
ATOM     18  C   UNL     1       6.985   4.634  14.077  0.00  0.00    +0.000 C 
ENDBRANCH  15  16
ENDBRANCH   4  15
TORSDOF 3
ENDMDL
MODEL 3
REMARK VINA RESULT:      -6.7      1.472      1.850
REMARK  Name = 
REMARK  4 active torsions:
REMARK  status: ('A' for Active; 'I' for Inactive)
REMARK    1  A    between atoms: C_1  and  C_2
REMARK    2  A    between atoms: N_4  and  C_5
REMARK    3  A    between atoms: C_5  and  C_6
REMARK    4  A    between atoms: N_11  and  C_12
REMARK                            x       y       z     vdW  Elec       q    Type
REMARK                         _______ _______ _______ _____ _____    ______ ____
ROOT
ATOM      1  C   UNL     1       3.975   7.609  17.213  0.00  0.00    +0.000 C 
ATOM      2  C   UNL     1       4.625   6.420  16.576  0.00  0.00    +0.000 A 
ATOM      3  N   UNL     1       5.479   6.547  15.597  0.00  0.00    +0.000 NA
ATOM      4  N   UNL     1       5.937   5.267  15.383  0.00  0.00    +0.000 N 
ATOM      5  C   UNL     1       5.281   4.369  16.236  0.00  0.00    +0.000 A 
ATOM      6  O   UNL     1       5.395   3.151  16.232  0.00  0.00    +0.000 OA
ATOM      7  N   UNL     1       4.440   5.151  17.006  0.00  0.00    +0.000 N 
ENDROOT
BRANCH   7   8
ATOM      8  C   UNL     1       3.617   4.671  18.047  0.00  0.00    +0.000 A 
ATOM      9  C   UNL     1       2.279   4.354  17.779  0.00  0.00    +0.000 A 
ATOM     10  C   UNL     1       1.475   3.771  18.766  0.00  0.00    +0.000 A 
ATOM     11  C   UNL     1       1.993   3.545  20.037  0.00  0.00    +0.000 A 
ATOM     12 CL   UNL     1       1.016   2.803  21.240  0.00  0.00    +0.000 Cl
ATOM     13  C   UNL     1       3.303   3.915  20.338  0.00  0.00    +0.000 A 
ATOM     14  C   UNL     1       4.113   4.472  19.341  0.00  0.00    +0.000 A 
ENDBRANCH   7   8
BRANCH   4  15
ATOM     15  C   UNL     1       6.756   4.890  14.258  0.00  0.00    +0.000 C 
BRANCH  15  16
ATOM     16  C   UNL     1       6.239   3.680  13.538  0.00  0.00    +0.000 C 
ATOM     17  C   UNL     1       5.172   3.743  12.471  0.00  0.00    +0.000 C 
ATOM     18  C   UNL     1       6.603   3.497  12.083  0.00  0.00    +0.000 C 
ENDBRANCH  15  16
ENDBRANCH   4  15
TORSDOF 3
ENDMDL
MODEL 4
REMARK VINA RESULT:      -6.7      1.416      1.892
REMARK  Name = 
REMARK  4 active torsions:
REMARK  status: ('A' for Active; 'I' for Inactive)
REMARK    1  A    between atoms: C_1  and  C_2
REMARK    2  A    between atoms: N_4  and  C_5
REMARK    3  A    between atoms: C_5  and  C_6
REMARK    4  A    between atoms: N_11  and  C_12
REMARK                            x       y       z     vdW  Elec       q    Type
REMARK                         _______ _______ _______ _____ _____    ______ ____
ROOT
ATOM      1  C   UNL     1       3.988   7.303  17.387  0.00  0.00    +0.000 C 
ATOM      2  C   UNL     1       4.643   6.186  16.635  0.00  0.00    +0.000 A 
ATOM      3  N   UNL     1       5.477   6.413  15.657  0.00  0.00    +0.000 NA
ATOM      4  N   UNL     1       5.950   5.165  15.322  0.00  0.00    +0.000 N 
ATOM      5  C   UNL     1       5.323   4.184  16.103  0.00  0.00    +0.000 A 
ATOM      6  O   UNL     1       5.455   2.973  15.988  0.00  0.00    +0.000 OA
ATOM      7  N   UNL     1       4.485   4.881  16.954  0.00  0.00    +0.000 N 
ENDROOT
BRANCH   7   8
ATOM      8  C   UNL     1       3.689   4.298  17.962  0.00  0.00    +0.000 A 
ATOM      9  C   UNL     1       4.284   3.902  19.167  0.00  0.00    +0.000 A 
ATOM     10  C   UNL     1       3.499   3.426  20.225  0.00  0.00    +0.000 A 
ATOM     11  C   UNL     1       2.123   3.302  20.065  0.00  0.00    +0.000 A 
ATOM     12 CL   UNL     1       1.156   2.746  21.371  0.00  0.00    +0.000 Cl
ATOM     13  C   UNL     1       1.524   3.630  18.850  0.00  0.00    +0.000 A 
ATOM     14  C   UNL     1       2.308   4.132  17.804  0.00  0.00    +0.000 A 
ENDBRANCH   7   8
BRANCH   4  15
ATOM     15  C   UNL     1       6.753   4.903  14.154  0.00  0.00    +0.000 C 
BRANCH  15  16
ATOM     16  C   UNL     1       6.320   3.673  13.411  0.00  0.00    +0.000 C 
ATOM     17  C   UNL     1       5.260   3.683  12.336  0.00  0.00    +0.000 C 
ATOM     18  C   UNL     1       6.706   3.537  11.956  0.00  0.00    +0.000 C 
ENDBRANCH  15  16
ENDBRANCH   4  15
TORSDOF 3
ENDMDL
MODEL 5
REMARK VINA RESULT:      -6.7      3.207      4.228
REMARK  Name = 
REMARK  4 active torsions:
REMARK  status: ('A' for Active; 'I' for Inactive)
REMARK    1  A    between atoms: C_1  and  C_2
REMARK    2  A    between atoms: N_4  and  C_5
REMARK    3  A    between atoms: C_5  and  C_6
REMARK    4  A    between atoms: N_11  and  C_12
REMARK                            x       y       z     vdW  Elec       q    Type
REMARK                         _______ _______ _______ _____ _____    ______ ____
ROOT
ATOM      1  C   UNL     1       1.599   4.267  18.141  0.00  0.00    +0.000 C 
ATOM      2  C   UNL     1       2.970   4.761  17.800  0.00  0.00    +0.000 A 
ATOM      3  N   UNL     1       3.858   3.986  17.240  0.00  0.00    +0.000 NA
ATOM      4  N   UNL     1       4.917   4.826  16.975  0.00  0.00    +0.000 N 
ATOM      5  C   UNL     1       4.642   6.116  17.449  0.00  0.00    +0.000 A 
ATOM      6  O   UNL     1       5.411   7.067  17.450  0.00  0.00    +0.000 OA
ATOM      7  N   UNL     1       3.364   6.044  17.973  0.00  0.00    +0.000 N 
ENDROOT
BRANCH   7   8
ATOM      8  C   UNL     1       2.649   7.132  18.517  0.00  0.00    +0.000 A 
ATOM      9  C   UNL     1       2.254   8.184  17.682  0.00  0.00    +0.000 A 
ATOM     10  C   UNL     1       1.448   9.219  18.173  0.00  0.00    +0.000 A 
ATOM     11  C   UNL     1       1.073   9.227  19.513  0.00  0.00    +0.000 A 
ATOM     12 CL   UNL     1       0.061  10.479  20.111  0.00  0.00    +0.000 Cl
ATOM     13  C   UNL     1       1.512   8.221  20.372  0.00  0.00    +0.000 A 
ATOM     14  C   UNL     1       2.294   7.174  19.871  0.00  0.00    +0.000 A 
ENDBRANCH   7   8
BRANCH   4  15
ATOM     15  C   UNL     1       6.209   4.367  16.533  0.00  0.00    +0.000 C 
BRANCH  15  16
ATOM     16  C   UNL     1       6.181   3.782  15.151  0.00  0.00    +0.000 C 
ATOM     17  C   UNL     1       5.373   4.370  14.019  0.00  0.00    +0.000 C 
ATOM     18  C   UNL     1       6.866   4.538  14.036  0.00  0.00    +0.000 C 
ENDBRANCH  15  16
ENDBRANCH   4  15
TORSDOF 3
ENDMDL
MODEL 6
REMARK VINA RESULT:      -6.7      0.187      1.151
REMARK  Name = 
REMARK  4 active torsions:
REMARK  status: ('A' for Active; 'I' for Inactive)
REMARK    1  A    between atoms: C_1  and  C_2
REMARK    2  A    between atoms: N_4  and  C_5
REMARK    3  A    between atoms: C_5  and  C_6
REMARK    4  A    between atoms: N_11  and  C_12
REMARK                            x       y       z     vdW  Elec       q    Type
REMARK                         _______ _______ _______ _____ _____    ______ ____
ROOT
ATOM      1  C   UNL     1       7.424   5.469  19.054  0.00  0.00    +0.000 C 
ATOM      2  C   UNL     1       6.808   5.169  17.722  0.00  0.00    +0.000 A 
ATOM      3  N   UNL     1       7.465   5.344  16.608  0.00  0.00    +0.000 NA
ATOM      4  N   UNL     1       6.624   4.842  15.640  0.00  0.00    +0.000 N 
ATOM      5  C   UNL     1       5.421   4.414  16.219  0.00  0.00    +0.000 A 
ATOM      6  O   UNL     1       4.436   4.004  15.622  0.00  0.00    +0.000 OA
ATOM      7  N   UNL     1       5.576   4.631  17.576  0.00  0.00    +0.000 N 
ENDROOT
BRANCH   7   8
ATOM      8  C   UNL     1       4.626   4.293  18.563  0.00  0.00    +0.000 A 
ATOM      9  C   UNL     1       4.552   2.973  19.026  0.00  0.00    +0.000 A 
ATOM     10  C   UNL     1       3.698   2.637  20.084  0.00  0.00    +0.000 A 
ATOM     11  C   UNL     1       2.881   3.611  20.651  0.00  0.00    +0.000 A 
ATOM     12 CL   UNL     1       1.854   3.206  21.966  0.00  0.00    +0.000 Cl
ATOM     13  C   UNL     1       2.896   4.914  20.157  0.00  0.00    +0.000 A 
ATOM     14  C   UNL     1       3.771   5.253  19.119  0.00  0.00    +0.000 A 
ENDBRANCH   7   8
BRANCH   4  15
ATOM     15  C   UNL     1       6.848   5.003  14.226  0.00  0.00    +0.000 C 
BRANCH  15  16
ATOM     16  C   UNL     1       6.640   3.734  13.453  0.00  0.00    +0.000 C 
ATOM     17  C   UNL     1       5.538   3.553  12.437  0.00  0.00    +0.000 C 
ATOM     18  C   UNL     1       6.957   3.730  11.975  0.00  0.00    +0.000 C 
ENDBRANCH  15  16
ENDBRANCH   4  15
TORSDOF 3
ENDMDL
MODEL 7
REMARK VINA RESULT:      -6.5      1.814      2.483
REMARK  Name = 
REMARK  4 active torsions:
REMARK  status: ('A' for Active; 'I' for Inactive)
REMARK    1  A    between atoms: C_1  and  C_2
REMARK    2  A    between atoms: N_4  and  C_5
REMARK    3  A    between atoms: C_5  and  C_6
REMARK    4  A    between atoms: N_11  and  C_12
REMARK                            x       y       z     vdW  Elec       q    Type
REMARK                         _______ _______ _______ _____ _____    ______ ____
ROOT
ATOM      1  C   UNL     1       7.064   7.467  17.710  0.00  0.00    +0.000 C 
ATOM      2  C   UNL     1       6.551   6.307  16.914  0.00  0.00    +0.000 A 
ATOM      3  N   UNL     1       7.302   5.684  16.048  0.00  0.00    +0.000 NA
ATOM      4  N   UNL     1       6.528   4.624  15.633  0.00  0.00    +0.000 N 
ATOM      5  C   UNL     1       5.268   4.675  16.247  0.00  0.00    +0.000 A 
ATOM      6  O   UNL     1       4.322   3.933  16.022  0.00  0.00    +0.000 OA
ATOM      7  N   UNL     1       5.318   5.777  17.081  0.00  0.00    +0.000 N 
ENDROOT
BRANCH   7   8
ATOM      8  C   UNL     1       4.279   6.185  17.945  0.00  0.00    +0.000 A 
ATOM      9  C   UNL     1       4.021   5.449  19.108  0.00  0.00    +0.000 A 
ATOM     10  C   UNL     1       3.073   5.897  20.037  0.00  0.00    +0.000 A 
ATOM     11  C   UNL     1       2.349   7.058  19.783  0.00  0.00    +0.000 A 
ATOM     12 CL   UNL     1       1.207   7.623  20.935  0.00  0.00    +0.000 Cl
ATOM     13  C   UNL     1       2.549   7.765  18.599  0.00  0.00    +0.000 A 
ATOM     14  C   UNL     1       3.516   7.330  17.686  0.00  0.00    +0.000 A 
ENDBRANCH   7   8
BRANCH   4  15
ATOM     15  C   UNL     1       6.873   3.767  14.527  0.00  0.00    +0.000 C 
BRANCH  15  16
ATOM     16  C   UNL     1       6.370   4.283  13.210  0.00  0.00    +0.000 C 
ATOM     17  C   UNL     1       6.880   3.789  11.877  0.00  0.00    +0.000 C 
ATOM     18  C   UNL     1       5.520   3.371  12.357  0.00  0.00    +0.000 C 
ENDBRANCH  15  16
ENDBRANCH   4  15
TORSDOF 3
ENDMDL
MODEL 8
REMARK VINA RESULT:      -6.5      1.592      1.886
REMARK  Name = 
REMARK  4 active torsions:
REMARK  status: ('A' for Active; 'I' for Inactive)
REMARK    1  A    between atoms: C_1  and  C_2
REMARK    2  A    between atoms: N_4  and  C_5
REMARK    3  A    between atoms: C_5  and  C_6
REMARK    4  A    between atoms: N_11  and  C_12
REMARK                            x       y       z     vdW  Elec       q    Type
REMARK                         _______ _______ _______ _____ _____    ______ ____
ROOT
ATOM      1  C   UNL     1       7.586   7.050  17.636  0.00  0.00    +0.000 C 
ATOM      2  C   UNL     1       6.940   6.210  16.580  0.00  0.00    +0.000 A 
ATOM      3  N   UNL     1       7.589   5.829  15.513  0.00  0.00    +0.000 NA
ATOM      4  N   UNL     1       6.712   4.986  14.869  0.00  0.00    +0.000 N 
ATOM      5  C   UNL     1       5.498   4.925  15.568  0.00  0.00    +0.000 A 
ATOM      6  O   UNL     1       4.486   4.338  15.212  0.00  0.00    +0.000 OA
ATOM      7  N   UNL     1       5.681   5.726  16.681  0.00  0.00    +0.000 N 
ENDROOT
BRANCH   7   8
ATOM      8  C   UNL     1       4.729   5.918  17.704  0.00  0.00    +0.000 A 
ATOM      9  C   UNL     1       3.785   6.946  17.584  0.00  0.00    +0.000 A 
ATOM     10  C   UNL     1       2.762   7.086  18.529  0.00  0.00    +0.000 A 
ATOM     11  C   UNL     1       2.706   6.227  19.622  0.00  0.00    +0.000 A 
ATOM     12 CL   UNL     1       1.434   6.380  20.767  0.00  0.00    +0.000 Cl
ATOM     13  C   UNL     1       3.676   5.240  19.790  0.00  0.00    +0.000 A 
ATOM     14  C   UNL     1       4.682   5.085  18.829  0.00  0.00    +0.000 A 
ENDBRANCH   7   8
BRANCH   4  15
ATOM     15  C   UNL     1       6.924   4.477  13.538  0.00  0.00    +0.000 C 
BRANCH  15  16
ATOM     16  C   UNL     1       5.933   3.419  13.151  0.00  0.00    +0.000 C 
ATOM     17  C   UNL     1       5.029   3.530  11.946  0.00  0.00    +0.000 C 
ATOM     18  C   UNL     1       6.205   2.595  11.914  0.00  0.00    +0.000 C 
ENDBRANCH  15  16
ENDBRANCH   4  15
TORSDOF 3
ENDMDL
MODEL 9
REMARK VINA RESULT:      -6.4      2.716      4.496
REMARK  Name = 
REMARK  4 active torsions:
REMARK  status: ('A' for Active; 'I' for Inactive)
REMARK    1  A    between atoms: C_1  and  C_2
REMARK    2  A    between atoms: N_4  and  C_5
REMARK    3  A    between atoms: C_5  and  C_6
REMARK    4  A    between atoms: N_11  and  C_12
REMARK                            x       y       z     vdW  Elec       q    Type
REMARK                         _______ _______ _______ _____ _____    ______ ____
ROOT
ATOM      1  C   UNL     1       5.202   5.540  14.971  0.00  0.00    +0.000 C 
ATOM      2  C   UNL     1       5.781   5.786  16.329  0.00  0.00    +0.000 A 
ATOM      3  N   UNL     1       6.846   6.520  16.497  0.00  0.00    +0.000 NA
ATOM      4  N   UNL     1       6.980   6.611  17.864  0.00  0.00    +0.000 N 
ATOM      5  C   UNL     1       5.983   5.856  18.499  0.00  0.00    +0.000 A 
ATOM      6  O   UNL     1       5.880   5.656  19.701  0.00  0.00    +0.000 OA
ATOM      7  N   UNL     1       5.214   5.338  17.472  0.00  0.00    +0.000 N 
ENDROOT
BRANCH   7   8
ATOM      8  C   UNL     1       4.055   4.552  17.647  0.00  0.00    +0.000 A 
ATOM      9  C   UNL     1       4.168   3.157  17.688  0.00  0.00    +0.000 A 
ATOM     10  C   UNL     1       3.052   2.361  17.973  0.00  0.00    +0.000 A 
ATOM     11  C   UNL     1       1.810   2.955  18.172  0.00  0.00    +0.000 A 
ATOM     12 CL   UNL     1       0.446   1.982  18.550  0.00  0.00    +0.000 Cl
ATOM     13  C   UNL     1       1.669   4.338  18.070  0.00  0.00    +0.000 A 
ATOM     14  C   UNL     1       2.792   5.133  17.813  0.00  0.00    +0.000 A 
ENDBRANCH   7   8
BRANCH   4  15
ATOM     15  C   UNL     1       8.137   7.167  18.519  0.00  0.00    +0.000 C 
BRANCH  15  16
ATOM     16  C   UNL     1       8.591   8.459  17.906  0.00  0.00    +0.000 C 
ATOM     17  C   UNL     1       7.785   9.735  17.971  0.00  0.00    +0.000 C 
ATOM     18  C   UNL     1       9.012   9.583  18.825  0.00  0.00    +0.000 C 
ENDBRANCH  15  16
ENDBRANCH   4  15
TORSDOF 3
ENDMDL
