MODEL 1
REMARK VINA RESULT:      -9.1      0.000      0.000
REMARK  Name = 
REMARK  5 active torsions:
REMARK  status: ('A' for Active; 'I' for Inactive)
REMARK    1  A    between atoms: N_3  and  C_4
REMARK    2  A    between atoms: C_7  and  C_8
REMARK    3  A    between atoms: C_21  and  C_22
REMARK    4  A    between atoms: C_22  and  O_23
REMARK    5  A    between atoms: O_23  and  C_24
REMARK                            x       y       z     vdW  Elec       q    Type
REMARK                         _______ _______ _______ _____ _____    ______ ____
ROOT
ATOM      1  O   UNL     1       1.955   8.415  18.972  0.00  0.00    +0.000 OA
ATOM      2  C   UNL     1       1.963   7.610  19.901  0.00  0.00    +0.000 C 
ATOM      3  N   UNL     1       1.441   7.871  21.146  0.00  0.00    +0.000 N 
ATOM      4  N   UNL     1       2.505   6.344  19.735  0.00  0.00    +0.000 N 
ATOM      5  C   UNL     1       2.473   5.227  20.694  0.00  0.00    +0.000 C 
ATOM      6  C   UNL     1       1.631   4.055  20.159  0.00  0.00    +0.000 C 
ATOM      7  N   UNL     1       2.048   3.620  18.817  0.00  0.00    +0.000 NA
ATOM      8  C   UNL     1       2.022   4.768  17.888  0.00  0.00    +0.000 C 
ATOM      9  C   UNL     1       2.906   5.949  18.360  0.00  0.00    +0.000 C 
ATOM     10  H   UNL     1       1.774   7.307  21.906  0.00  0.00    +0.000 HD
ATOM     11  H   UNL     1       1.401   2.908  18.477  0.00  0.00    +0.000 HD
ENDROOT
BRANCH   3  12
ATOM     12  C   UNL     1       0.702   9.007  21.529  0.00  0.00    +0.000 A 
ATOM     13  C   UNL     1       0.710  10.209  20.830  0.00  0.00    +0.000 A 
ATOM     14  C   UNL     1      -0.002  11.314  21.307  0.00  0.00    +0.000 A 
ATOM     15  C   UNL     1      -0.777  11.245  22.475  0.00  0.00    +0.000 A 
ATOM     16  C   UNL     1      -0.816  10.007  23.140  0.00  0.00    +0.000 A 
ATOM     17  C   UNL     1      -0.085   8.906  22.678  0.00  0.00    +0.000 A 
BRANCH  15  18
ATOM     18  C   UNL     1      -1.519  12.423  22.979  0.00  0.00    +0.000 A 
ATOM     19  C   UNL     1      -0.898  13.679  23.110  0.00  0.00    +0.000 A 
ATOM     20  C   UNL     1      -1.593  14.791  23.593  0.00  0.00    +0.000 A 
ATOM     21  C   UNL     1      -2.932  14.678  23.944  0.00  0.00    +0.000 A 
ATOM     22  C   UNL     1      -3.574  13.450  23.824  0.00  0.00    +0.000 A 
ATOM     23  C   UNL     1      -2.872  12.335  23.356  0.00  0.00    +0.000 A 
ENDBRANCH  15  18
ENDBRANCH   3  12
BRANCH   9  24
ATOM     24  C   UNL     1       4.406   5.628  18.275  0.00  0.00    +0.000 C 
BRANCH  24  25
ATOM     25  O   UNL     1       4.600   4.424  17.525  0.00  0.00    +0.000 OA
BRANCH  25  26
ATOM     26  C   UNL     1       5.401   4.526  16.425  0.00  0.00    +0.000 A 
ATOM     27  C   UNL     1       5.219   3.872  15.211  0.00  0.00    +0.000 A 
ATOM     28  C   UNL     1       6.124   4.080  14.173  0.00  0.00    +0.000 A 
ATOM     29  C   UNL     1       7.187   4.940  14.386  0.00  0.00    +0.000 A 
ATOM     30  N   UNL     1       7.405   5.589  15.549  0.00  0.00    +0.000 NA
ATOM     31  C   UNL     1       6.505   5.365  16.538  0.00  0.00    +0.000 A 
ENDBRANCH  25  26
ENDBRANCH  24  25
ENDBRANCH   9  24
TORSDOF 5
ENDMDL
MODEL 2
REMARK VINA RESULT:      -8.8      2.055      4.338
REMARK  Name = 
REMARK  5 active torsions:
REMARK  status: ('A' for Active; 'I' for Inactive)
REMARK    1  A    between atoms: N_3  and  C_4
REMARK    2  A    between atoms: C_7  and  C_8
REMARK    3  A    between atoms: C_21  and  C_22
REMARK    4  A    between atoms: C_22  and  O_23
REMARK    5  A    between atoms: O_23  and  C_24
REMARK                            x       y       z     vdW  Elec       q    Type
REMARK                         _______ _______ _______ _____ _____    ______ ____
ROOT
ATOM      1  O   UNL     1       2.654   6.073  19.950  0.00  0.00    +0.000 OA
ATOM      2  C   UNL     1       3.005   6.614  18.904  0.00  0.00    +0.000 C 
ATOM      3  N   UNL     1       2.512   7.818  18.460  0.00  0.00    +0.000 N 
ATOM      4  N   UNL     1       3.962   6.025  18.091  0.00  0.00    +0.000 N 
ATOM      5  C   UNL     1       4.585   6.600  16.887  0.00  0.00    +0.000 C 
ATOM      6  C   UNL     1       6.089   6.852  17.101  0.00  0.00    +0.000 C 
ATOM      7  N   UNL     1       6.804   5.659  17.578  0.00  0.00    +0.000 NA
ATOM      8  C   UNL     1       6.165   5.150  18.808  0.00  0.00    +0.000 C 
ATOM      9  C   UNL     1       4.662   4.825  18.619  0.00  0.00    +0.000 C 
ATOM     10  H   UNL     1       2.602   8.013  17.479  0.00  0.00    +0.000 HD
ATOM     11  H   UNL     1       7.771   5.907  17.789  0.00  0.00    +0.000 HD
ENDROOT
BRANCH   3  12
ATOM     12  C   UNL     1       1.657   8.690  19.162  0.00  0.00    +0.000 A 
ATOM     13  C   UNL     1       1.388   8.582  20.523  0.00  0.00    +0.000 A 
ATOM     14  C   UNL     1       0.479   9.448  21.138  0.00  0.00    +0.000 A 
ATOM     15  C   UNL     1      -0.161  10.475  20.427  0.00  0.00    +0.000 A 
ATOM     16  C   UNL     1       0.164  10.602  19.065  0.00  0.00    +0.000 A 
ATOM     17  C   UNL     1       1.054   9.722  18.440  0.00  0.00    +0.000 A 
BRANCH  15  18
ATOM     18  C   UNL     1      -1.130  11.380  21.084  0.00  0.00    +0.000 A 
ATOM     19  C   UNL     1      -1.245  11.439  22.486  0.00  0.00    +0.000 A 
ATOM     20  C   UNL     1      -2.164  12.287  23.109  0.00  0.00    +0.000 A 
ATOM     21  C   UNL     1      -2.984  13.108  22.345  0.00  0.00    +0.000 A 
ATOM     22  C   UNL     1      -2.893  13.074  20.958  0.00  0.00    +0.000 A 
ATOM     23  C   UNL     1      -1.983  12.213  20.337  0.00  0.00    +0.000 A 
ENDBRANCH  15  18
ENDBRANCH   3  12
BRANCH   9  24
ATOM     24  C   UNL     1       4.436   3.596  17.726  0.00  0.00    +0.000 C 
BRANCH  24  25
ATOM     25  O   UNL     1       4.154   2.453  18.540  0.00  0.00    +0.000 OA
BRANCH  25  26
ATOM     26  C   UNL     1       3.151   2.600  19.453  0.00  0.00    +0.000 A 
ATOM     27  C   UNL     1       1.810   2.841  19.170  0.00  0.00    +0.000 A 
ATOM     28  C   UNL     1       0.897   2.964  20.215  0.00  0.00    +0.000 A 
ATOM     29  C   UNL     1       1.359   2.844  21.514  0.00  0.00    +0.000 A 
ATOM     30  N   UNL     1       2.650   2.618  21.832  0.00  0.00    +0.000 NA
ATOM     31  C   UNL     1       3.513   2.501  20.793  0.00  0.00    +0.000 A 
ENDBRANCH  25  26
ENDBRANCH  24  25
ENDBRANCH   9  24
TORSDOF 5
ENDMDL
MODEL 3
REMARK VINA RESULT:      -8.7      2.014      4.219
REMARK  Name = 
REMARK  5 active torsions:
REMARK  status: ('A' for Active; 'I' for Inactive)
REMARK    1  A    between atoms: N_3  and  C_4
REMARK    2  A    between atoms: C_7  and  C_8
REMARK    3  A    between atoms: C_21  and  C_22
REMARK    4  A    between atoms: C_22  and  O_23
REMARK    5  A    between atoms: O_23  and  C_24
REMARK                            x       y       z     vdW  Elec       q    Type
REMARK                         _______ _______ _______ _____ _____    ______ ____
ROOT
ATOM      1  O   UNL     1       2.477   6.056  19.560  0.00  0.00    +0.000 OA
ATOM      2  C   UNL     1       2.965   6.645  18.598  0.00  0.00    +0.000 C 
ATOM      3  N   UNL     1       2.551   7.884  18.168  0.00  0.00    +0.000 N 
ATOM      4  N   UNL     1       4.006   6.080  17.877  0.00  0.00    +0.000 N 
ATOM      5  C   UNL     1       4.783   6.706  16.794  0.00  0.00    +0.000 C 
ATOM      6  C   UNL     1       6.252   6.911  17.206  0.00  0.00    +0.000 C 
ATOM      7  N   UNL     1       6.883   5.676  17.697  0.00  0.00    +0.000 NA
ATOM      8  C   UNL     1       6.087   5.114  18.808  0.00  0.00    +0.000 C 
ATOM      9  C   UNL     1       4.614   4.837  18.416  0.00  0.00    +0.000 C 
ATOM     10  H   UNL     1       2.765   8.131  17.219  0.00  0.00    +0.000 HD
ATOM     11  H   UNL     1       7.820   5.889  18.041  0.00  0.00    +0.000 HD
ENDROOT
BRANCH   3  12
ATOM     12  C   UNL     1       1.630   8.735  18.809  0.00  0.00    +0.000 A 
ATOM     13  C   UNL     1       0.839   9.664  18.141  0.00  0.00    +0.000 A 
ATOM     14  C   UNL     1      -0.008  10.519  18.853  0.00  0.00    +0.000 A 
ATOM     15  C   UNL     1      -0.125  10.448  20.250  0.00  0.00    +0.000 A 
ATOM     16  C   UNL     1       0.642   9.468  20.903  0.00  0.00    +0.000 A 
ATOM     17  C   UNL     1       1.510   8.627  20.196  0.00  0.00    +0.000 A 
BRANCH  15  18
ATOM     18  C   UNL     1      -1.016  11.365  20.997  0.00  0.00    +0.000 A 
ATOM     19  C   UNL     1      -1.838  12.293  20.331  0.00  0.00    +0.000 A 
ATOM     20  C   UNL     1      -2.675  13.165  21.033  0.00  0.00    +0.000 A 
ATOM     21  C   UNL     1      -2.720  13.120  22.421  0.00  0.00    +0.000 A 
ATOM     22  C   UNL     1      -1.921  12.212  23.107  0.00  0.00    +0.000 A 
ATOM     23  C   UNL     1      -1.073  11.352  22.403  0.00  0.00    +0.000 A 
ENDBRANCH  15  18
ENDBRANCH   3  12
BRANCH   9  24
ATOM     24  C   UNL     1       4.480   3.665  17.432  0.00  0.00    +0.000 C 
BRANCH  24  25
ATOM     25  O   UNL     1       4.089   2.483  18.138  0.00  0.00    +0.000 OA
BRANCH  25  26
ATOM     26  C   UNL     1       3.075   2.632  19.040  0.00  0.00    +0.000 A 
ATOM     27  C   UNL     1       1.729   2.811  18.742  0.00  0.00    +0.000 A 
ATOM     28  C   UNL     1       0.806   2.946  19.777  0.00  0.00    +0.000 A 
ATOM     29  C   UNL     1       1.264   2.899  21.081  0.00  0.00    +0.000 A 
ATOM     30  N   UNL     1       2.562   2.735  21.414  0.00  0.00    +0.000 NA
ATOM     31  C   UNL     1       3.434   2.606  20.384  0.00  0.00    +0.000 A 
ENDBRANCH  25  26
ENDBRANCH  24  25
ENDBRANCH   9  24
TORSDOF 5
ENDMDL
MODEL 4
REMARK VINA RESULT:      -8.7      0.718      1.314
REMARK  Name = 
REMARK  5 active torsions:
REMARK  status: ('A' for Active; 'I' for Inactive)
REMARK    1  A    between atoms: N_3  and  C_4
REMARK    2  A    between atoms: C_7  and  C_8
REMARK    3  A    between atoms: C_21  and  C_22
REMARK    4  A    between atoms: C_22  and  O_23
REMARK    5  A    between atoms: O_23  and  C_24
REMARK                            x       y       z     vdW  Elec       q    Type
REMARK                         _______ _______ _______ _____ _____    ______ ____
ROOT
ATOM      1  O   UNL     1       2.122   8.240  19.122  0.00  0.00    +0.000 OA
ATOM      2  C   UNL     1       1.982   7.412  20.019  0.00  0.00    +0.000 C 
ATOM      3  N   UNL     1       1.311   7.658  21.193  0.00  0.00    +0.000 N 
ATOM      4  N   UNL     1       2.500   6.132  19.886  0.00  0.00    +0.000 N 
ATOM      5  C   UNL     1       2.306   4.992  20.798  0.00  0.00    +0.000 C 
ATOM      6  C   UNL     1       1.504   3.865  20.123  0.00  0.00    +0.000 C 
ATOM      7  N   UNL     1       2.078   3.451  18.834  0.00  0.00    +0.000 NA
ATOM      8  C   UNL     1       2.211   4.623  17.944  0.00  0.00    +0.000 C 
ATOM      9  C   UNL     1       3.064   5.758  18.563  0.00  0.00    +0.000 C 
ATOM     10  H   UNL     1       1.523   7.063  21.973  0.00  0.00    +0.000 HD
ATOM     11  H   UNL     1       1.459   2.772  18.391  0.00  0.00    +0.000 HD
ENDROOT
BRANCH   3  12
ATOM     12  C   UNL     1       0.565   8.810  21.512  0.00  0.00    +0.000 A 
ATOM     13  C   UNL     1       0.214   9.171  22.808  0.00  0.00    +0.000 A 
ATOM     14  C   UNL     1      -0.582  10.297  23.042  0.00  0.00    +0.000 A 
ATOM     15  C   UNL     1      -1.019  11.123  21.995  0.00  0.00    +0.000 A 
ATOM     16  C   UNL     1      -0.610  10.772  20.696  0.00  0.00    +0.000 A 
ATOM     17  C   UNL     1       0.165   9.632  20.456  0.00  0.00    +0.000 A 
BRANCH  15  18
ATOM     18  C   UNL     1      -1.871  12.307  22.250  0.00  0.00    +0.000 A 
ATOM     19  C   UNL     1      -2.772  12.342  23.330  0.00  0.00    +0.000 A 
ATOM     20  C   UNL     1      -3.583  13.455  23.569  0.00  0.00    +0.000 A 
ATOM     21  C   UNL     1      -3.502  14.567  22.740  0.00  0.00    +0.000 A 
ATOM     22  C   UNL     1      -2.619  14.563  21.666  0.00  0.00    +0.000 A 
ATOM     23  C   UNL     1      -1.821  13.442  21.419  0.00  0.00    +0.000 A 
ENDBRANCH  15  18
ENDBRANCH   3  12
BRANCH   9  24
ATOM     24  C   UNL     1       4.551   5.385  18.663  0.00  0.00    +0.000 C 
BRANCH  24  25
ATOM     25  O   UNL     1       4.807   4.209  17.890  0.00  0.00    +0.000 OA
BRANCH  25  26
ATOM     26  C   UNL     1       5.488   4.395  16.722  0.00  0.00    +0.000 A 
ATOM     27  C   UNL     1       5.148   3.871  15.479  0.00  0.00    +0.000 A 
ATOM     28  C   UNL     1       5.944   4.155  14.372  0.00  0.00    +0.000 A 
ATOM     29  C   UNL     1       7.059   4.956  14.546  0.00  0.00    +0.000 A 
ATOM     30  N   UNL     1       7.428   5.478  15.734  0.00  0.00    +0.000 NA
ATOM     31  C   UNL     1       6.632   5.184  16.792  0.00  0.00    +0.000 A 
ENDBRANCH  25  26
ENDBRANCH  24  25
ENDBRANCH   9  24
TORSDOF 5
ENDMDL
MODEL 5
REMARK VINA RESULT:      -8.7      1.964      4.364
REMARK  Name = 
REMARK  5 active torsions:
REMARK  status: ('A' for Active; 'I' for Inactive)
REMARK    1  A    between atoms: N_3  and  C_4
REMARK    2  A    between atoms: C_7  and  C_8
REMARK    3  A    between atoms: C_21  and  C_22
REMARK    4  A    between atoms: C_22  and  O_23
REMARK    5  A    between atoms: O_23  and  C_24
REMARK                            x       y       z     vdW  Elec       q    Type
REMARK                         _______ _______ _______ _____ _____    ______ ____
ROOT
ATOM      1  O   UNL     1       2.540   5.933  19.646  0.00  0.00    +0.000 OA
ATOM      2  C   UNL     1       2.979   6.532  18.666  0.00  0.00    +0.000 C 
ATOM      3  N   UNL     1       2.575   7.792  18.294  0.00  0.00    +0.000 N 
ATOM      4  N   UNL     1       3.950   5.955  17.861  0.00  0.00    +0.000 N 
ATOM      5  C   UNL     1       4.670   6.586  16.742  0.00  0.00    +0.000 C 
ATOM      6  C   UNL     1       6.170   6.737  17.056  0.00  0.00    +0.000 C 
ATOM      7  N   UNL     1       6.794   5.472  17.473  0.00  0.00    +0.000 NA
ATOM      8  C   UNL     1       6.059   4.906  18.623  0.00  0.00    +0.000 C 
ATOM      9  C   UNL     1       4.555   4.682  18.328  0.00  0.00    +0.000 C 
ATOM     10  H   UNL     1       2.731   8.058  17.339  0.00  0.00    +0.000 HD
ATOM     11  H   UNL     1       7.759   5.650  17.755  0.00  0.00    +0.000 HD
ENDROOT
BRANCH   3  12
ATOM     12  C   UNL     1       1.727   8.654  19.018  0.00  0.00    +0.000 A 
ATOM     13  C   UNL     1       1.522   8.567  20.391  0.00  0.00    +0.000 A 
ATOM     14  C   UNL     1       0.616   9.419  21.030  0.00  0.00    +0.000 A 
ATOM     15  C   UNL     1      -0.085  10.412  20.329  0.00  0.00    +0.000 A 
ATOM     16  C   UNL     1       0.174  10.520  18.951  0.00  0.00    +0.000 A 
ATOM     17  C   UNL     1       1.062   9.653  18.304  0.00  0.00    +0.000 A 
BRANCH  15  18
ATOM     18  C   UNL     1      -1.051  11.302  21.012  0.00  0.00    +0.000 A 
ATOM     19  C   UNL     1      -1.893  12.164  20.285  0.00  0.00    +0.000 A 
ATOM     20  C   UNL     1      -2.801  13.011  20.927  0.00  0.00    +0.000 A 
ATOM     21  C   UNL     1      -2.898  13.008  22.313  0.00  0.00    +0.000 A 
ATOM     22  C   UNL     1      -2.080  12.165  23.058  0.00  0.00    +0.000 A 
ATOM     23  C   UNL     1      -1.161  11.330  22.414  0.00  0.00    +0.000 A 
ENDBRANCH  15  18
ENDBRANCH   3  12
BRANCH   9  24
ATOM     24  C   UNL     1       4.319   3.539  17.328  0.00  0.00    +0.000 C 
BRANCH  24  25
ATOM     25  O   UNL     1       3.933   2.354  18.032  0.00  0.00    +0.000 OA
BRANCH  25  26
ATOM     26  C   UNL     1       3.082   2.532  19.084  0.00  0.00    +0.000 A 
ATOM     27  C   UNL     1       3.435   2.570  20.429  0.00  0.00    +0.000 A 
ATOM     28  C   UNL     1       2.449   2.764  21.394  0.00  0.00    +0.000 A 
ATOM     29  C   UNL     1       1.137   2.912  20.978  0.00  0.00    +0.000 A 
ATOM     30  N   UNL     1       0.752   2.875  19.686  0.00  0.00    +0.000 NA
ATOM     31  C   UNL     1       1.735   2.686  18.772  0.00  0.00    +0.000 A 
ENDBRANCH  25  26
ENDBRANCH  24  25
ENDBRANCH   9  24
TORSDOF 5
ENDMDL
MODEL 6
REMARK VINA RESULT:      -8.7      1.923      2.943
REMARK  Name = 
REMARK  5 active torsions:
REMARK  status: ('A' for Active; 'I' for Inactive)
REMARK    1  A    between atoms: N_3  and  C_4
REMARK    2  A    between atoms: C_7  and  C_8
REMARK    3  A    between atoms: C_21  and  C_22
REMARK    4  A    between atoms: C_22  and  O_23
REMARK    5  A    between atoms: O_23  and  C_24
REMARK                            x       y       z     vdW  Elec       q    Type
REMARK                         _______ _______ _______ _____ _____    ______ ____
ROOT
ATOM      1  O   UNL     1       1.849   5.705  18.115  0.00  0.00    +0.000 OA
ATOM      2  C   UNL     1       2.902   6.334  18.034  0.00  0.00    +0.000 C 
ATOM      3  N   UNL     1       3.017   7.675  18.314  0.00  0.00    +0.000 N 
ATOM      4  N   UNL     1       4.076   5.701  17.653  0.00  0.00    +0.000 N 
ATOM      5  C   UNL     1       5.433   6.275  17.636  0.00  0.00    +0.000 C 
ATOM      6  C   UNL     1       6.344   5.584  18.667  0.00  0.00    +0.000 C 
ATOM      7  N   UNL     1       6.360   4.120  18.522  0.00  0.00    +0.000 NA
ATOM      8  C   UNL     1       4.981   3.595  18.589  0.00  0.00    +0.000 C 
ATOM      9  C   UNL     1       4.044   4.221  17.527  0.00  0.00    +0.000 C 
ATOM     10  H   UNL     1       3.802   8.158  17.916  0.00  0.00    +0.000 HD
ATOM     11  H   UNL     1       6.904   3.712  19.284  0.00  0.00    +0.000 HD
ENDROOT
BRANCH   3  12
ATOM     12  C   UNL     1       2.024   8.510  18.864  0.00  0.00    +0.000 A 
ATOM     13  C   UNL     1       1.354   9.494  18.145  0.00  0.00    +0.000 A 
ATOM     14  C   UNL     1       0.424  10.326  18.776  0.00  0.00    +0.000 A 
ATOM     15  C   UNL     1       0.103  10.179  20.134  0.00  0.00    +0.000 A 
ATOM     16  C   UNL     1       0.751   9.145  20.832  0.00  0.00    +0.000 A 
ATOM     17  C   UNL     1       1.701   8.326  20.209  0.00  0.00    +0.000 A 
BRANCH  15  18
ATOM     18  C   UNL     1      -0.875  11.072  20.796  0.00  0.00    +0.000 A 
ATOM     19  C   UNL     1      -0.946  11.169  22.198  0.00  0.00    +0.000 A 
ATOM     20  C   UNL     1      -1.873  12.005  22.828  0.00  0.00    +0.000 A 
ATOM     21  C   UNL     1      -2.743  12.776  22.068  0.00  0.00    +0.000 A 
ATOM     22  C   UNL     1      -2.696  12.703  20.680  0.00  0.00    +0.000 A 
ATOM     23  C   UNL     1      -1.779  11.854  20.054  0.00  0.00    +0.000 A 
ENDBRANCH  15  18
ENDBRANCH   3  12
BRANCH   9  24
ATOM     24  C   UNL     1       4.387   3.765  16.101  0.00  0.00    +0.000 C 
BRANCH  24  25
ATOM     25  O   UNL     1       5.806   3.651  15.959  0.00  0.00    +0.000 OA
BRANCH  25  26
ATOM     26  C   UNL     1       6.319   4.020  14.749  0.00  0.00    +0.000 A 
ATOM     27  C   UNL     1       5.958   3.502  13.510  0.00  0.00    +0.000 A 
ATOM     28  C   UNL     1       6.572   3.984  12.356  0.00  0.00    +0.000 A 
ATOM     29  C   UNL     1       7.531   4.973  12.482  0.00  0.00    +0.000 A 
ATOM     30  N   UNL     1       7.916   5.498  13.664  0.00  0.00    +0.000 NA
ATOM     31  C   UNL     1       7.299   5.008  14.768  0.00  0.00    +0.000 A 
ENDBRANCH  25  26
ENDBRANCH  24  25
ENDBRANCH   9  24
TORSDOF 5
ENDMDL
MODEL 7
REMARK VINA RESULT:      -8.6      1.143      1.337
REMARK  Name = 
REMARK  5 active torsions:
REMARK  status: ('A' for Active; 'I' for Inactive)
REMARK    1  A    between atoms: N_3  and  C_4
REMARK    2  A    between atoms: C_7  and  C_8
REMARK    3  A    between atoms: C_21  and  C_22
REMARK    4  A    between atoms: C_22  and  O_23
REMARK    5  A    between atoms: O_23  and  C_24
REMARK                            x       y       z     vdW  Elec       q    Type
REMARK                         _______ _______ _______ _____ _____    ______ ____
ROOT
ATOM      1  O   UNL     1       2.240   7.228  18.829  0.00  0.00    +0.000 OA
ATOM      2  C   UNL     1       2.080   6.617  19.883  0.00  0.00    +0.000 C 
ATOM      3  N   UNL     1       1.525   7.169  21.013  0.00  0.00    +0.000 N 
ATOM      4  N   UNL     1       2.453   5.285  19.992  0.00  0.00    +0.000 N 
ATOM      5  C   UNL     1       2.210   4.381  21.128  0.00  0.00    +0.000 C 
ATOM      6  C   UNL     1       1.249   3.242  20.741  0.00  0.00    +0.000 C 
ATOM      7  N   UNL     1       1.683   2.515  19.538  0.00  0.00    +0.000 NA
ATOM      8  C   UNL     1       1.871   3.463  18.420  0.00  0.00    +0.000 C 
ATOM      9  C   UNL     1       2.878   4.593  18.748  0.00  0.00    +0.000 C 
ATOM     10  H   UNL     1       1.730   6.721  21.888  0.00  0.00    +0.000 HD
ATOM     11  H   UNL     1       0.967   1.837  19.277  0.00  0.00    +0.000 HD
ENDROOT
BRANCH   3  12
ATOM     12  C   UNL     1       0.926   8.440  21.124  0.00  0.00    +0.000 A 
ATOM     13  C   UNL     1       1.029   9.432  20.155  0.00  0.00    +0.000 A 
ATOM     14  C   UNL     1       0.459  10.692  20.364  0.00  0.00    +0.000 A 
ATOM     15  C   UNL     1      -0.267  10.990  21.528  0.00  0.00    +0.000 A 
ATOM     16  C   UNL     1      -0.405   9.958  22.472  0.00  0.00    +0.000 A 
ATOM     17  C   UNL     1       0.185   8.704  22.278  0.00  0.00    +0.000 A 
BRANCH  15  18
ATOM     18  C   UNL     1      -0.858  12.330  21.746  0.00  0.00    +0.000 A 
ATOM     19  C   UNL     1      -1.121  13.199  20.671  0.00  0.00    +0.000 A 
ATOM     20  C   UNL     1      -1.672  14.467  20.873  0.00  0.00    +0.000 A 
ATOM     21  C   UNL     1      -1.986  14.893  22.158  0.00  0.00    +0.000 A 
ATOM     22  C   UNL     1      -1.738  14.056  23.241  0.00  0.00    +0.000 A 
ATOM     23  C   UNL     1      -1.172  12.794  23.036  0.00  0.00    +0.000 A 
ENDBRANCH  15  18
ENDBRANCH   3  12
BRANCH   9  24
ATOM     24  C   UNL     1       4.323   4.079  18.849  0.00  0.00    +0.000 C 
BRANCH  24  25
ATOM     25  O   UNL     1       5.228   5.089  18.393  0.00  0.00    +0.000 OA
BRANCH  25  26
ATOM     26  C   UNL     1       5.741   4.913  17.141  0.00  0.00    +0.000 A 
ATOM     27  C   UNL     1       5.309   3.987  16.198  0.00  0.00    +0.000 A 
ATOM     28  C   UNL     1       5.934   3.929  14.954  0.00  0.00    +0.000 A 
ATOM     29  C   UNL     1       6.975   4.803  14.696  0.00  0.00    +0.000 A 
ATOM     30  N   UNL     1       7.430   5.710  15.584  0.00  0.00    +0.000 NA
ATOM     31  C   UNL     1       6.800   5.742  16.785  0.00  0.00    +0.000 A 
ENDBRANCH  25  26
ENDBRANCH  24  25
ENDBRANCH   9  24
TORSDOF 5
ENDMDL
MODEL 8
REMARK VINA RESULT:      -8.6      1.640      2.466
REMARK  Name = 
REMARK  5 active torsions:
REMARK  status: ('A' for Active; 'I' for Inactive)
REMARK    1  A    between atoms: N_3  and  C_4
REMARK    2  A    between atoms: C_7  and  C_8
REMARK    3  A    between atoms: C_21  and  C_22
REMARK    4  A    between atoms: C_22  and  O_23
REMARK    5  A    between atoms: O_23  and  C_24
REMARK                            x       y       z     vdW  Elec       q    Type
REMARK                         _______ _______ _______ _____ _____    ______ ____
ROOT
ATOM      1  O   UNL     1       2.274   6.285  17.474  0.00  0.00    +0.000 OA
ATOM      2  C   UNL     1       2.948   6.019  18.467  0.00  0.00    +0.000 C 
ATOM      3  N   UNL     1       2.886   6.720  19.647  0.00  0.00    +0.000 N 
ATOM      4  N   UNL     1       3.831   4.949  18.455  0.00  0.00    +0.000 N 
ATOM      5  C   UNL     1       4.605   4.418  19.590  0.00  0.00    +0.000 C 
ATOM      6  C   UNL     1       4.150   2.995  19.961  0.00  0.00    +0.000 C 
ATOM      7  N   UNL     1       4.155   2.078  18.811  0.00  0.00    +0.000 NA
ATOM      8  C   UNL     1       3.332   2.638  17.720  0.00  0.00    +0.000 C 
ATOM      9  C   UNL     1       3.795   4.047  17.274  0.00  0.00    +0.000 C 
ATOM     10  H   UNL     1       3.675   6.646  20.263  0.00  0.00    +0.000 HD
ATOM     11  H   UNL     1       3.760   1.181  19.093  0.00  0.00    +0.000 HD
ENDROOT
BRANCH   3  12
ATOM     12  C   UNL     1       1.972   7.740  19.975  0.00  0.00    +0.000 A 
ATOM     13  C   UNL     1       1.763   8.873  19.195  0.00  0.00    +0.000 A 
ATOM     14  C   UNL     1       0.883   9.875  19.617  0.00  0.00    +0.000 A 
ATOM     15  C   UNL     1       0.152   9.761  20.809  0.00  0.00    +0.000 A 
ATOM     16  C   UNL     1       0.335   8.585  21.558  0.00  0.00    +0.000 A 
ATOM     17  C   UNL     1       1.234   7.592  21.151  0.00  0.00    +0.000 A 
BRANCH  15  18
ATOM     18  C   UNL     1      -0.770  10.831  21.254  0.00  0.00    +0.000 A 
ATOM     19  C   UNL     1      -1.439  11.653  20.329  0.00  0.00    +0.000 A 
ATOM     20  C   UNL     1      -2.304  12.669  20.745  0.00  0.00    +0.000 A 
ATOM     21  C   UNL     1      -2.531  12.879  22.100  0.00  0.00    +0.000 A 
ATOM     22  C   UNL     1      -1.886  12.081  23.038  0.00  0.00    +0.000 A 
ATOM     23  C   UNL     1      -1.009  11.076  22.619  0.00  0.00    +0.000 A 
ENDBRANCH  15  18
ENDBRANCH   3  12
BRANCH   9  24
ATOM     24  C   UNL     1       5.144   4.016  16.541  0.00  0.00    +0.000 C 
BRANCH  24  25
ATOM     25  O   UNL     1       4.940   3.660  15.170  0.00  0.00    +0.000 OA
BRANCH  25  26
ATOM     26  C   UNL     1       5.897   4.082  14.293  0.00  0.00    +0.000 A 
ATOM     27  C   UNL     1       6.022   3.694  12.963  0.00  0.00    +0.000 A 
ATOM     28  C   UNL     1       7.055   4.217  12.187  0.00  0.00    +0.000 A 
ATOM     29  C   UNL     1       7.933   5.112  12.772  0.00  0.00    +0.000 A 
ATOM     30  N   UNL     1       7.852   5.509  14.059  0.00  0.00    +0.000 NA
ATOM     31  C   UNL     1       6.835   4.983  14.786  0.00  0.00    +0.000 A 
ENDBRANCH  25  26
ENDBRANCH  24  25
ENDBRANCH   9  24
TORSDOF 5
ENDMDL
MODEL 9
REMARK VINA RESULT:      -8.4      1.939      2.630
REMARK  Name = 
REMARK  5 active torsions:
REMARK  status: ('A' for Active; 'I' for Inactive)
REMARK    1  A    between atoms: N_3  and  C_4
REMARK    2  A    between atoms: C_7  and  C_8
REMARK    3  A    between atoms: C_21  and  C_22
REMARK    4  A    between atoms: C_22  and  O_23
REMARK    5  A    between atoms: O_23  and  C_24
REMARK                            x       y       z     vdW  Elec       q    Type
REMARK                         _______ _______ _______ _____ _____    ______ ____
ROOT
ATOM      1  O   UNL     1       2.914   6.661  18.376  0.00  0.00    +0.000 OA
ATOM      2  C   UNL     1       2.574   6.280  19.494  0.00  0.00    +0.000 C 
ATOM      3  N   UNL     1       1.965   7.086  20.426  0.00  0.00    +0.000 N 
ATOM      4  N   UNL     1       2.781   4.966  19.886  0.00  0.00    +0.000 N 
ATOM      5  C   UNL     1       2.316   4.322  21.126  0.00  0.00    +0.000 C 
ATOM      6  C   UNL     1       1.281   3.221  20.831  0.00  0.00    +0.000 C 
ATOM      7  N   UNL     1       1.759   2.241  19.843  0.00  0.00    +0.000 NA
ATOM      8  C   UNL     1       2.172   2.936  18.607  0.00  0.00    +0.000 C 
ATOM      9  C   UNL     1       3.258   4.012  18.852  0.00  0.00    +0.000 C 
ATOM     10  H   UNL     1       2.023   6.797  21.386  0.00  0.00    +0.000 HD
ATOM     11  H   UNL     1       1.003   1.593  19.619  0.00  0.00    +0.000 HD
ENDROOT
BRANCH   3  12
ATOM     12  C   UNL     1       1.504   8.403  20.230  0.00  0.00    +0.000 A 
ATOM     13  C   UNL     1       1.491   9.043  18.996  0.00  0.00    +0.000 A 
ATOM     14  C   UNL     1       1.076  10.375  18.890  0.00  0.00    +0.000 A 
ATOM     15  C   UNL     1       0.623  11.098  20.004  0.00  0.00    +0.000 A 
ATOM     16  C   UNL     1       0.594  10.418  21.234  0.00  0.00    +0.000 A 
ATOM     17  C   UNL     1       1.031   9.093  21.348  0.00  0.00    +0.000 A 
BRANCH  15  18
ATOM     18  C   UNL     1       0.197  12.511  19.885  0.00  0.00    +0.000 A 
ATOM     19  C   UNL     1      -0.847  13.030  20.673  0.00  0.00    +0.000 A 
ATOM     20  C   UNL     1      -1.257  14.361  20.559  0.00  0.00    +0.000 A 
ATOM     21  C   UNL     1      -0.623  15.211  19.660  0.00  0.00    +0.000 A 
ATOM     22  C   UNL     1       0.413  14.727  18.869  0.00  0.00    +0.000 A 
ATOM     23  C   UNL     1       0.810  13.391  18.974  0.00  0.00    +0.000 A 
ENDBRANCH  15  18
ENDBRANCH   3  12
BRANCH   9  24
ATOM     24  C   UNL     1       4.616   3.399  19.227  0.00  0.00    +0.000 C 
BRANCH  24  25
ATOM     25  O   UNL     1       5.661   4.338  18.953  0.00  0.00    +0.000 OA
BRANCH  25  26
ATOM     26  C   UNL     1       6.001   4.490  17.640  0.00  0.00    +0.000 A 
ATOM     27  C   UNL     1       5.500   3.756  16.570  0.00  0.00    +0.000 A 
ATOM     28  C   UNL     1       5.943   4.031  15.278  0.00  0.00    +0.000 A 
ATOM     29  C   UNL     1       6.878   5.036  15.100  0.00  0.00    +0.000 A 
ATOM     30  N   UNL     1       7.394   5.767  16.110  0.00  0.00    +0.000 NA
ATOM     31  C   UNL     1       6.942   5.475  17.354  0.00  0.00    +0.000 A 
ENDBRANCH  25  26
ENDBRANCH  24  25
ENDBRANCH   9  24
TORSDOF 5
ENDMDL
