MODEL 1
REMARK VINA RESULT:      -7.3      0.000      0.000
REMARK  Name = 
REMARK  5 active torsions:
REMARK  status: ('A' for Active; 'I' for Inactive)
REMARK    1  A    between atoms: C_1  and  N_2
REMARK    2  A    between atoms: N_2  and  C_3
REMARK    3  A    between atoms: C_4  and  O_6
REMARK    4  A    between atoms: O_6  and  C_7
REMARK    5  A    between atoms: C_8  and  C_9
REMARK                            x       y       z     vdW  Elec       q    Type
REMARK                         _______ _______ _______ _____ _____    ______ ____
ROOT
ATOM      1  C   UNL     1      -3.390  12.458  19.757  0.00  0.00    +0.000 C 
ATOM      2  C   UNL     1      -2.493  11.876  18.940  0.00  0.00    +0.000 C 
ATOM      3  S   UNL     1      -0.774  11.922  19.193  0.00  0.00    +0.000 S 
ATOM      4  C   UNL     1      -0.778  11.085  20.769  0.00  0.00    +0.000 A 
ATOM      5  C   UNL     1      -0.057   9.885  20.852  0.00  0.00    +0.000 A 
ATOM      6  C   UNL     1       0.093   9.229  22.073  0.00  0.00    +0.000 A 
ATOM      7  C   UNL     1      -0.456   9.778  23.227  0.00  0.00    +0.000 A 
ATOM      8  C   UNL     1      -1.177  10.973  23.158  0.00  0.00    +0.000 A 
ATOM      9  C   UNL     1      -1.368  11.619  21.924  0.00  0.00    +0.000 A 
ATOM     10  N   UNL     1      -2.142  12.818  21.881  0.00  0.00    +0.000 N 
ATOM     11  C   UNL     1      -2.141  13.769  22.890  0.00  0.00    +0.000 A 
ATOM     12  C   UNL     1      -2.946  14.823  22.529  0.00  0.00    +0.000 A 
ATOM     13  C   UNL     1      -3.504  14.502  21.278  0.00  0.00    +0.000 A 
ATOM     14  C   UNL     1      -3.018  13.264  20.885  0.00  0.00    +0.000 A 
ENDROOT
BRANCH   2  15
ATOM     15  C   UNL     1      -2.861  11.149  17.712  0.00  0.00    +0.000 A 
ATOM     16  C   UNL     1      -3.810  11.684  16.831  0.00  0.00    +0.000 A 
ATOM     17  C   UNL     1      -4.095  11.041  15.625  0.00  0.00    +0.000 A 
ATOM     18  C   UNL     1      -3.433   9.861  15.289  0.00  0.00    +0.000 A 
ATOM     19  C   UNL     1      -2.485   9.322  16.159  0.00  0.00    +0.000 A 
ATOM     20  C   UNL     1      -2.201   9.962  17.369  0.00  0.00    +0.000 A 
ENDBRANCH   2  15
BRANCH   1  21
ATOM     21  O   UNL     1      -4.773  12.462  19.434  0.00  0.00    +0.000 OA
BRANCH  21  25
ATOM     22  C   UNL     1      -7.677  10.606  20.621  0.00  0.00    +0.000 C 
ATOM     23  N   UNL     1      -6.735  11.291  19.756  0.00  0.00    +0.000 N 
ATOM     24  C   UNL     1      -6.755  10.997  18.335  0.00  0.00    +0.000 C 
ATOM     25  C   UNL     1      -5.643  11.924  20.354  0.00  0.00    +0.000 C 
ATOM     26  O   UNL     1      -5.498  11.972  21.573  0.00  0.00    +0.000 OA
ENDBRANCH  21  25
ENDBRANCH   1  21
TORSDOF 3
ENDMDL
MODEL 2
REMARK VINA RESULT:      -6.9      1.217      1.378
REMARK  Name = 
REMARK  5 active torsions:
REMARK  status: ('A' for Active; 'I' for Inactive)
REMARK    1  A    between atoms: C_1  and  N_2
REMARK    2  A    between atoms: N_2  and  C_3
REMARK    3  A    between atoms: C_4  and  O_6
REMARK    4  A    between atoms: O_6  and  C_7
REMARK    5  A    between atoms: C_8  and  C_9
REMARK                            x       y       z     vdW  Elec       q    Type
REMARK                         _______ _______ _______ _____ _____    ______ ____
ROOT
ATOM      1  C   UNL     1      -2.956  12.623  20.020  0.00  0.00    +0.000 C 
ATOM      2  C   UNL     1      -2.219  11.933  19.130  0.00  0.00    +0.000 C 
ATOM      3  S   UNL     1      -0.503  11.687  19.270  0.00  0.00    +0.000 S 
ATOM      4  C   UNL     1      -0.550  10.806  20.821  0.00  0.00    +0.000 A 
ATOM      5  C   UNL     1      -0.033   9.503  20.826  0.00  0.00    +0.000 A 
ATOM      6  C   UNL     1       0.080   8.786  22.016  0.00  0.00    +0.000 A 
ATOM      7  C   UNL     1      -0.299   9.376  23.218  0.00  0.00    +0.000 A 
ATOM      8  C   UNL     1      -0.815  10.674  23.228  0.00  0.00    +0.000 A 
ATOM      9  C   UNL     1      -0.971  11.387  22.026  0.00  0.00    +0.000 A 
ATOM     10  N   UNL     1      -1.538  12.697  22.065  0.00  0.00    +0.000 N 
ATOM     11  C   UNL     1      -1.318  13.598  23.097  0.00  0.00    +0.000 A 
ATOM     12  C   UNL     1      -1.959  14.781  22.817  0.00  0.00    +0.000 A 
ATOM     13  C   UNL     1      -2.637  14.601  21.597  0.00  0.00    +0.000 A 
ATOM     14  C   UNL     1      -2.387  13.316  21.141  0.00  0.00    +0.000 A 
ENDROOT
BRANCH   2  15
ATOM     15  C   UNL     1      -2.776  11.321  17.912  0.00  0.00    +0.000 A 
ATOM     16  C   UNL     1      -4.021  11.734  17.418  0.00  0.00    +0.000 A 
ATOM     17  C   UNL     1      -4.510  11.219  16.216  0.00  0.00    +0.000 A 
ATOM     18  C   UNL     1      -3.759  10.290  15.497  0.00  0.00    +0.000 A 
ATOM     19  C   UNL     1      -2.518   9.874  15.979  0.00  0.00    +0.000 A 
ATOM     20  C   UNL     1      -2.028  10.385  17.184  0.00  0.00    +0.000 A 
ENDBRANCH   2  15
BRANCH   1  21
ATOM     21  O   UNL     1      -4.336  12.865  19.790  0.00  0.00    +0.000 OA
BRANCH  21  25
ATOM     22  C   UNL     1      -7.011  14.062  21.956  0.00  0.00    +0.000 C 
ATOM     23  N   UNL     1      -6.021  13.985  20.899  0.00  0.00    +0.000 N 
ATOM     24  C   UNL     1      -6.180  14.834  19.734  0.00  0.00    +0.000 C 
ATOM     25  C   UNL     1      -5.171  12.876  20.883  0.00  0.00    +0.000 C 
ATOM     26  O   UNL     1      -5.196  12.016  21.760  0.00  0.00    +0.000 OA
ENDBRANCH  21  25
ENDBRANCH   1  21
TORSDOF 3
ENDMDL
MODEL 3
REMARK VINA RESULT:      -6.8      1.003      1.358
REMARK  Name = 
REMARK  5 active torsions:
REMARK  status: ('A' for Active; 'I' for Inactive)
REMARK    1  A    between atoms: C_1  and  N_2
REMARK    2  A    between atoms: N_2  and  C_3
REMARK    3  A    between atoms: C_4  and  O_6
REMARK    4  A    between atoms: O_6  and  C_7
REMARK    5  A    between atoms: C_8  and  C_9
REMARK                            x       y       z     vdW  Elec       q    Type
REMARK                         _______ _______ _______ _____ _____    ______ ____
ROOT
ATOM      1  C   UNL     1      -2.862  12.728  20.043  0.00  0.00    +0.000 C 
ATOM      2  C   UNL     1      -2.139  12.036  19.143  0.00  0.00    +0.000 C 
ATOM      3  S   UNL     1      -0.430  11.747  19.284  0.00  0.00    +0.000 S 
ATOM      4  C   UNL     1      -0.504  10.839  20.818  0.00  0.00    +0.000 A 
ATOM      5  C   UNL     1      -0.019   9.523  20.801  0.00  0.00    +0.000 A 
ATOM      6  C   UNL     1       0.072   8.783  21.978  0.00  0.00    +0.000 A 
ATOM      7  C   UNL     1      -0.297   9.359  23.189  0.00  0.00    +0.000 A 
ATOM      8  C   UNL     1      -0.782  10.669  23.221  0.00  0.00    +0.000 A 
ATOM      9  C   UNL     1      -0.916  11.407  22.033  0.00  0.00    +0.000 A 
ATOM     10  N   UNL     1      -1.450  12.730  22.094  0.00  0.00    +0.000 N 
ATOM     11  C   UNL     1      -1.213  13.606  23.142  0.00  0.00    +0.000 A 
ATOM     12  C   UNL     1      -1.823  14.810  22.883  0.00  0.00    +0.000 A 
ATOM     13  C   UNL     1      -2.501  14.669  21.657  0.00  0.00    +0.000 A 
ATOM     14  C   UNL     1      -2.281  13.386  21.179  0.00  0.00    +0.000 A 
ENDROOT
BRANCH   2  15
ATOM     15  C   UNL     1      -2.706  11.461  17.911  0.00  0.00    +0.000 A 
ATOM     16  C   UNL     1      -1.991  10.497  17.186  0.00  0.00    +0.000 A 
ATOM     17  C   UNL     1      -2.563   9.887  16.069  0.00  0.00    +0.000 A 
ATOM     18  C   UNL     1      -3.854  10.232  15.669  0.00  0.00    +0.000 A 
ATOM     19  C   UNL     1      -4.574  11.188  16.384  0.00  0.00    +0.000 A 
ATOM     20  C   UNL     1      -4.002  11.804  17.501  0.00  0.00    +0.000 A 
ENDBRANCH   2  15
BRANCH   1  21
ATOM     21  O   UNL     1      -4.235  13.007  19.812  0.00  0.00    +0.000 OA
BRANCH  21  25
ATOM     22  C   UNL     1      -7.489  12.636  21.412  0.00  0.00    +0.000 C 
ATOM     23  N   UNL     1      -6.441  13.029  20.489  0.00  0.00    +0.000 N 
ATOM     24  C   UNL     1      -6.814  13.451  19.152  0.00  0.00    +0.000 C 
ATOM     25  C   UNL     1      -5.130  12.660  20.798  0.00  0.00    +0.000 C 
ATOM     26  O   UNL     1      -4.838  12.082  21.843  0.00  0.00    +0.000 OA
ENDBRANCH  21  25
ENDBRANCH   1  21
TORSDOF 3
ENDMDL
MODEL 4
REMARK VINA RESULT:      -6.8      4.371      7.093
REMARK  Name = 
REMARK  5 active torsions:
REMARK  status: ('A' for Active; 'I' for Inactive)
REMARK    1  A    between atoms: C_1  and  N_2
REMARK    2  A    between atoms: N_2  and  C_3
REMARK    3  A    between atoms: C_4  and  O_6
REMARK    4  A    between atoms: O_6  and  C_7
REMARK    5  A    between atoms: C_8  and  C_9
REMARK                            x       y       z     vdW  Elec       q    Type
REMARK                         _______ _______ _______ _____ _____    ______ ____
ROOT
ATOM      1  C   UNL     1       1.233  13.048  19.191  0.00  0.00    +0.000 C 
ATOM      2  C   UNL     1       0.072  13.680  19.443  0.00  0.00    +0.000 C 
ATOM      3  S   UNL     1      -1.464  12.876  19.577  0.00  0.00    +0.000 S 
ATOM      4  C   UNL     1      -1.031  11.842  20.966  0.00  0.00    +0.000 A 
ATOM      5  C   UNL     1      -1.795  11.994  22.132  0.00  0.00    +0.000 A 
ATOM      6  C   UNL     1      -1.605  11.146  23.222  0.00  0.00    +0.000 A 
ATOM      7  C   UNL     1      -0.667  10.121  23.148  0.00  0.00    +0.000 A 
ATOM      8  C   UNL     1       0.100   9.958  21.991  0.00  0.00    +0.000 A 
ATOM      9  C   UNL     1      -0.056  10.836  20.904  0.00  0.00    +0.000 A 
ATOM     10  N   UNL     1       0.770  10.666  19.751  0.00  0.00    +0.000 N 
ATOM     11  C   UNL     1       1.180   9.430  19.276  0.00  0.00    +0.000 A 
ATOM     12  C   UNL     1       1.920   9.601  18.131  0.00  0.00    +0.000 A 
ATOM     13  C   UNL     1       2.015  10.987  17.908  0.00  0.00    +0.000 A 
ATOM     14  C   UNL     1       1.317  11.642  18.912  0.00  0.00    +0.000 A 
ENDROOT
BRANCH   2  15
ATOM     15  C   UNL     1      -0.041  15.139  19.611  0.00  0.00    +0.000 A 
ATOM     16  C   UNL     1      -0.258  15.964  18.499  0.00  0.00    +0.000 A 
ATOM     17  C   UNL     1      -0.454  17.336  18.665  0.00  0.00    +0.000 A 
ATOM     18  C   UNL     1      -0.437  17.894  19.943  0.00  0.00    +0.000 A 
ATOM     19  C   UNL     1      -0.223  17.081  21.056  0.00  0.00    +0.000 A 
ATOM     20  C   UNL     1      -0.023  15.707  20.892  0.00  0.00    +0.000 A 
ENDBRANCH   2  15
BRANCH   1  21
ATOM     21  O   UNL     1       2.434  13.781  18.999  0.00  0.00    +0.000 OA
BRANCH  21  25
ATOM     22  C   UNL     1       5.239  15.118  20.903  0.00  0.00    +0.000 C 
ATOM     23  N   UNL     1       4.357  14.767  19.806  0.00  0.00    +0.000 N 
ATOM     24  C   UNL     1       4.452  15.520  18.569  0.00  0.00    +0.000 C 
ATOM     25  C   UNL     1       3.243  13.976  20.094  0.00  0.00    +0.000 C 
ATOM     26  O   UNL     1       3.031  13.522  21.216  0.00  0.00    +0.000 OA
ENDBRANCH  21  25
ENDBRANCH   1  21
TORSDOF 3
ENDMDL
MODEL 5
REMARK VINA RESULT:      -6.8      4.378      7.084
REMARK  Name = 
REMARK  5 active torsions:
REMARK  status: ('A' for Active; 'I' for Inactive)
REMARK    1  A    between atoms: C_1  and  N_2
REMARK    2  A    between atoms: N_2  and  C_3
REMARK    3  A    between atoms: C_4  and  O_6
REMARK    4  A    between atoms: O_6  and  C_7
REMARK    5  A    between atoms: C_8  and  C_9
REMARK                            x       y       z     vdW  Elec       q    Type
REMARK                         _______ _______ _______ _____ _____    ______ ____
ROOT
ATOM      1  C   UNL     1       1.265  13.054  19.236  0.00  0.00    +0.000 C 
ATOM      2  C   UNL     1       0.109  13.699  19.484  0.00  0.00    +0.000 C 
ATOM      3  S   UNL     1      -1.437  12.913  19.601  0.00  0.00    +0.000 S 
ATOM      4  C   UNL     1      -1.028  11.864  20.985  0.00  0.00    +0.000 A 
ATOM      5  C   UNL     1      -1.798  12.017  22.146  0.00  0.00    +0.000 A 
ATOM      6  C   UNL     1      -1.627  11.159  23.232  0.00  0.00    +0.000 A 
ATOM      7  C   UNL     1      -0.701  10.123  23.157  0.00  0.00    +0.000 A 
ATOM      8  C   UNL     1       0.073   9.959  22.005  0.00  0.00    +0.000 A 
ATOM      9  C   UNL     1      -0.065  10.846  20.923  0.00  0.00    +0.000 A 
ATOM     10  N   UNL     1       0.768  10.674  19.775  0.00  0.00    +0.000 N 
ATOM     11  C   UNL     1       1.166   9.437  19.294  0.00  0.00    +0.000 A 
ATOM     12  C   UNL     1       1.917   9.607  18.156  0.00  0.00    +0.000 A 
ATOM     13  C   UNL     1       2.031  10.993  17.944  0.00  0.00    +0.000 A 
ATOM     14  C   UNL     1       1.334  11.650  18.947  0.00  0.00    +0.000 A 
ENDROOT
BRANCH   2  15
ATOM     15  C   UNL     1       0.012  15.158  19.661  0.00  0.00    +0.000 A 
ATOM     16  C   UNL     1       0.196  15.731  20.927  0.00  0.00    +0.000 A 
ATOM     17  C   UNL     1       0.192  17.118  21.081  0.00  0.00    +0.000 A 
ATOM     18  C   UNL     1       0.007  17.943  19.973  0.00  0.00    +0.000 A 
ATOM     19  C   UNL     1      -0.174  17.383  18.708  0.00  0.00    +0.000 A 
ATOM     20  C   UNL     1      -0.174  15.994  18.552  0.00  0.00    +0.000 A 
ENDBRANCH   2  15
BRANCH   1  21
ATOM     21  O   UNL     1       2.475  13.774  19.058  0.00  0.00    +0.000 OA
BRANCH  21  25
ATOM     22  C   UNL     1       4.539  15.881  21.200  0.00  0.00    +0.000 C 
ATOM     23  N   UNL     1       3.839  15.353  20.044  0.00  0.00    +0.000 N 
ATOM     24  C   UNL     1       3.554  16.245  18.936  0.00  0.00    +0.000 C 
ATOM     25  C   UNL     1       3.175  14.132  20.187  0.00  0.00    +0.000 C 
ATOM     26  O   UNL     1       3.223  13.475  21.224  0.00  0.00    +0.000 OA
ENDBRANCH  21  25
ENDBRANCH   1  21
TORSDOF 3
ENDMDL
MODEL 6
REMARK VINA RESULT:      -6.7      2.753      4.714
REMARK  Name = 
REMARK  5 active torsions:
REMARK  status: ('A' for Active; 'I' for Inactive)
REMARK    1  A    between atoms: C_1  and  N_2
REMARK    2  A    between atoms: N_2  and  C_3
REMARK    3  A    between atoms: C_4  and  O_6
REMARK    4  A    between atoms: O_6  and  C_7
REMARK    5  A    between atoms: C_8  and  C_9
REMARK                            x       y       z     vdW  Elec       q    Type
REMARK                         _______ _______ _______ _____ _____    ______ ____
ROOT
ATOM      1  C   UNL     1      -1.338  13.126  21.077  0.00  0.00    +0.000 C 
ATOM      2  C   UNL     1      -0.439  13.994  20.578  0.00  0.00    +0.000 C 
ATOM      3  S   UNL     1       1.283  13.759  20.647  0.00  0.00    +0.000 S 
ATOM      4  C   UNL     1       1.319  12.247  19.699  0.00  0.00    +0.000 A 
ATOM      5  C   UNL     1       2.069  12.259  18.515  0.00  0.00    +0.000 A 
ATOM      6  C   UNL     1       2.251  11.091  17.776  0.00  0.00    +0.000 A 
ATOM      7  C   UNL     1       1.705   9.894  18.227  0.00  0.00    +0.000 A 
ATOM      8  C   UNL     1       0.955   9.868  19.406  0.00  0.00    +0.000 A 
ATOM      9  C   UNL     1       0.733  11.049  20.134  0.00  0.00    +0.000 A 
ATOM     10  N   UNL     1      -0.069  10.997  21.315  0.00  0.00    +0.000 N 
ATOM     11  C   UNL     1      -0.077   9.921  22.190  0.00  0.00    +0.000 A 
ATOM     12  C   UNL     1      -0.912  10.196  23.247  0.00  0.00    +0.000 A 
ATOM     13  C   UNL     1      -1.478  11.460  23.003  0.00  0.00    +0.000 A 
ATOM     14  C   UNL     1      -0.969  11.947  21.809  0.00  0.00    +0.000 A 
ENDROOT
BRANCH   2  15
ATOM     15  C   UNL     1      -0.806  15.266  19.933  0.00  0.00    +0.000 A 
ATOM     16  C   UNL     1      -1.666  16.165  20.578  0.00  0.00    +0.000 A 
ATOM     17  C   UNL     1      -1.945  17.409  20.009  0.00  0.00    +0.000 A 
ATOM     18  C   UNL     1      -1.365  17.765  18.792  0.00  0.00    +0.000 A 
ATOM     19  C   UNL     1      -0.507  16.879  18.142  0.00  0.00    +0.000 A 
ATOM     20  C   UNL     1      -0.229  15.631  18.709  0.00  0.00    +0.000 A 
ENDBRANCH   2  15
BRANCH   1  21
ATOM     21  O   UNL     1      -2.724  13.431  21.071  0.00  0.00    +0.000 OA
BRANCH  21  25
ATOM     22  C   UNL     1      -5.814  11.915  19.870  0.00  0.00    +0.000 C 
ATOM     23  N   UNL     1      -4.843  12.590  20.711  0.00  0.00    +0.000 N 
ATOM     24  C   UNL     1      -5.322  13.416  21.803  0.00  0.00    +0.000 C 
ATOM     25  C   UNL     1      -3.534  12.698  20.234  0.00  0.00    +0.000 C 
ATOM     26  O   UNL     1      -3.176  12.190  19.174  0.00  0.00    +0.000 OA
ENDBRANCH  21  25
ENDBRANCH   1  21
TORSDOF 3
ENDMDL
MODEL 7
REMARK VINA RESULT:      -6.7      2.317      6.735
REMARK  Name = 
REMARK  5 active torsions:
REMARK  status: ('A' for Active; 'I' for Inactive)
REMARK    1  A    between atoms: C_1  and  N_2
REMARK    2  A    between atoms: N_2  and  C_3
REMARK    3  A    between atoms: C_4  and  O_6
REMARK    4  A    between atoms: O_6  and  C_7
REMARK    5  A    between atoms: C_8  and  C_9
REMARK                            x       y       z     vdW  Elec       q    Type
REMARK                         _______ _______ _______ _____ _____    ______ ____
ROOT
ATOM      1  C   UNL     1      -2.422  13.234  21.288  0.00  0.00    +0.000 C 
ATOM      2  C   UNL     1      -3.043  14.309  21.808  0.00  0.00    +0.000 C 
ATOM      3  S   UNL     1      -4.403  15.100  21.067  0.00  0.00    +0.000 S 
ATOM      4  C   UNL     1      -5.502  13.695  21.109  0.00  0.00    +0.000 A 
ATOM      5  C   UNL     1      -6.695  13.845  21.831  0.00  0.00    +0.000 A 
ATOM      6  C   UNL     1      -7.665  12.843  21.817  0.00  0.00    +0.000 A 
ATOM      7  C   UNL     1      -7.462  11.692  21.062  0.00  0.00    +0.000 A 
ATOM      8  C   UNL     1      -6.278  11.531  20.339  0.00  0.00    +0.000 A 
ATOM      9  C   UNL     1      -5.278  12.518  20.381  0.00  0.00    +0.000 A 
ATOM     10  N   UNL     1      -4.063  12.306  19.661  0.00  0.00    +0.000 N 
ATOM     11  C   UNL     1      -3.998  11.652  18.440  0.00  0.00    +0.000 A 
ATOM     12  C   UNL     1      -2.701  11.653  17.987  0.00  0.00    +0.000 A 
ATOM     13  C   UNL     1      -1.923  12.285  18.974  0.00  0.00    +0.000 A 
ATOM     14  C   UNL     1      -2.759  12.675  20.009  0.00  0.00    +0.000 A 
ENDROOT
BRANCH   2  15
ATOM     15  C   UNL     1      -2.626  14.964  23.060  0.00  0.00    +0.000 A 
ATOM     16  C   UNL     1      -3.161  14.549  24.287  0.00  0.00    +0.000 A 
ATOM     17  C   UNL     1      -2.703  15.108  25.482  0.00  0.00    +0.000 A 
ATOM     18  C   UNL     1      -1.706  16.083  25.460  0.00  0.00    +0.000 A 
ATOM     19  C   UNL     1      -1.166  16.501  24.244  0.00  0.00    +0.000 A 
ATOM     20  C   UNL     1      -1.626  15.946  23.046  0.00  0.00    +0.000 A 
ENDBRANCH   2  15
BRANCH   1  21
ATOM     21  O   UNL     1      -1.257  12.701  21.899  0.00  0.00    +0.000 OA
BRANCH  21  25
ATOM     22  C   UNL     1      -0.441   9.262  22.788  0.00  0.00    +0.000 C 
ATOM     23  N   UNL     1      -0.471  10.541  22.105  0.00  0.00    +0.000 N 
ATOM     24  C   UNL     1       0.644  10.899  21.249  0.00  0.00    +0.000 C 
ATOM     25  C   UNL     1      -1.378  11.501  22.561  0.00  0.00    +0.000 C 
ATOM     26  O   UNL     1      -2.180  11.271  23.463  0.00  0.00    +0.000 OA
ENDBRANCH  21  25
ENDBRANCH   1  21
TORSDOF 3
ENDMDL
MODEL 8
REMARK VINA RESULT:      -6.5      2.774      6.930
REMARK  Name = 
REMARK  5 active torsions:
REMARK  status: ('A' for Active; 'I' for Inactive)
REMARK    1  A    between atoms: C_1  and  N_2
REMARK    2  A    between atoms: N_2  and  C_3
REMARK    3  A    between atoms: C_4  and  O_6
REMARK    4  A    between atoms: O_6  and  C_7
REMARK    5  A    between atoms: C_8  and  C_9
REMARK                            x       y       z     vdW  Elec       q    Type
REMARK                         _______ _______ _______ _____ _____    ______ ____
ROOT
ATOM      1  C   UNL     1      -2.944  13.487  21.719  0.00  0.00    +0.000 C 
ATOM      2  C   UNL     1      -3.210  14.631  22.376  0.00  0.00    +0.000 C 
ATOM      3  S   UNL     1      -4.658  15.568  22.151  0.00  0.00    +0.000 S 
ATOM      4  C   UNL     1      -5.802  14.300  22.668  0.00  0.00    +0.000 A 
ATOM      5  C   UNL     1      -6.618  14.593  23.771  0.00  0.00    +0.000 A 
ATOM      6  C   UNL     1      -7.621  13.711  24.168  0.00  0.00    +0.000 A 
ATOM      7  C   UNL     1      -7.836  12.538  23.451  0.00  0.00    +0.000 A 
ATOM      8  C   UNL     1      -7.031  12.234  22.350  0.00  0.00    +0.000 A 
ATOM      9  C   UNL     1      -5.990  13.099  21.970  0.00  0.00    +0.000 A 
ATOM     10  N   UNL     1      -5.161  12.741  20.864  0.00  0.00    +0.000 N 
ATOM     11  C   UNL     1      -5.625  12.074  19.740  0.00  0.00    +0.000 A 
ATOM     12  C   UNL     1      -4.598  11.921  18.840  0.00  0.00    +0.000 A 
ATOM     13  C   UNL     1      -3.446  12.467  19.436  0.00  0.00    +0.000 A 
ATOM     14  C   UNL     1      -3.790  12.960  20.686  0.00  0.00    +0.000 A 
ENDROOT
BRANCH   2  15
ATOM     15  C   UNL     1      -2.291  15.243  23.351  0.00  0.00    +0.000 A 
ATOM     16  C   UNL     1      -1.377  16.224  22.942  0.00  0.00    +0.000 A 
ATOM     17  C   UNL     1      -0.566  16.868  23.878  0.00  0.00    +0.000 A 
ATOM     18  C   UNL     1      -0.664  16.540  25.230  0.00  0.00    +0.000 A 
ATOM     19  C   UNL     1      -1.572  15.567  25.647  0.00  0.00    +0.000 A 
ATOM     20  C   UNL     1      -2.382  14.918  24.711  0.00  0.00    +0.000 A 
ENDBRANCH   2  15
BRANCH   1  21
ATOM     21  O   UNL     1      -1.698  12.827  21.883  0.00  0.00    +0.000 OA
BRANCH  21  25
ATOM     22  C   UNL     1      -0.494   9.601  23.078  0.00  0.00    +0.000 C 
ATOM     23  N   UNL     1      -0.675  10.796  22.276  0.00  0.00    +0.000 N 
ATOM     24  C   UNL     1       0.381  11.188  21.361  0.00  0.00    +0.000 C 
ATOM     25  C   UNL     1      -1.676  11.692  22.660  0.00  0.00    +0.000 C 
ATOM     26  O   UNL     1      -2.434  11.467  23.600  0.00  0.00    +0.000 OA
ENDBRANCH  21  25
ENDBRANCH   1  21
TORSDOF 3
ENDMDL
MODEL 9
REMARK VINA RESULT:      -6.5      2.920      5.730
REMARK  Name = 
REMARK  5 active torsions:
REMARK  status: ('A' for Active; 'I' for Inactive)
REMARK    1  A    between atoms: C_1  and  N_2
REMARK    2  A    between atoms: N_2  and  C_3
REMARK    3  A    between atoms: C_4  and  O_6
REMARK    4  A    between atoms: O_6  and  C_7
REMARK    5  A    between atoms: C_8  and  C_9
REMARK                            x       y       z     vdW  Elec       q    Type
REMARK                         _______ _______ _______ _____ _____    ______ ____
ROOT
ATOM      1  C   UNL     1      -4.955  12.646  19.899  0.00  0.00    +0.000 C 
ATOM      2  C   UNL     1      -5.170  12.162  18.662  0.00  0.00    +0.000 C 
ATOM      3  S   UNL     1      -6.704  12.230  17.844  0.00  0.00    +0.000 S 
ATOM      4  C   UNL     1      -6.845  14.009  17.826  0.00  0.00    +0.000 A 
ATOM      5  C   UNL     1      -6.934  14.625  16.569  0.00  0.00    +0.000 A 
ATOM      6  C   UNL     1      -7.167  15.995  16.463  0.00  0.00    +0.000 A 
ATOM      7  C   UNL     1      -7.337  16.760  17.613  0.00  0.00    +0.000 A 
ATOM      8  C   UNL     1      -7.251  16.159  18.872  0.00  0.00    +0.000 A 
ATOM      9  C   UNL     1      -6.975  14.785  18.986  0.00  0.00    +0.000 A 
ATOM     10  N   UNL     1      -6.854  14.208  20.287  0.00  0.00    +0.000 N 
ATOM     11  C   UNL     1      -7.614  14.607  21.377  0.00  0.00    +0.000 A 
ATOM     12  C   UNL     1      -7.297  13.830  22.466  0.00  0.00    +0.000 A 
ATOM     13  C   UNL     1      -6.277  12.950  22.058  0.00  0.00    +0.000 A 
ATOM     14  C   UNL     1      -5.997  13.191  20.722  0.00  0.00    +0.000 A 
ENDROOT
BRANCH   2  15
ATOM     15  C   UNL     1      -4.135  11.491  17.858  0.00  0.00    +0.000 A 
ATOM     16  C   UNL     1      -3.080  10.813  18.485  0.00  0.00    +0.000 A 
ATOM     17  C   UNL     1      -2.148  10.103  17.727  0.00  0.00    +0.000 A 
ATOM     18  C   UNL     1      -2.263  10.061  16.338  0.00  0.00    +0.000 A 
ATOM     19  C   UNL     1      -3.310  10.731  15.704  0.00  0.00    +0.000 A 
ATOM     20  C   UNL     1      -4.243  11.446  16.461  0.00  0.00    +0.000 A 
ENDBRANCH   2  15
BRANCH   1  21
ATOM     21  O   UNL     1      -3.701  12.467  20.541  0.00  0.00    +0.000 OA
BRANCH  21  25
ATOM     22  C   UNL     1      -1.986  14.520  23.016  0.00  0.00    +0.000 C 
ATOM     23  N   UNL     1      -2.727  13.441  22.393  0.00  0.00    +0.000 N 
ATOM     24  C   UNL     1      -2.754  12.146  23.048  0.00  0.00    +0.000 C 
ATOM     25  C   UNL     1      -3.082  13.586  21.050  0.00  0.00    +0.000 C 
ATOM     26  O   UNL     1      -2.846  14.611  20.414  0.00  0.00    +0.000 OA
ENDBRANCH  21  25
ENDBRANCH   1  21
TORSDOF 3
ENDMDL
