MODEL 1
REMARK VINA RESULT:      -7.6      0.000      0.000
REMARK  Name = 
REMARK  8 active torsions:
REMARK  status: ('A' for Active; 'I' for Inactive)
REMARK    1  A    between atoms: C_1  and  O_2
REMARK    2  A    between atoms: O_2  and  C_3
REMARK    3  A    between atoms: C_3  and  C_4
REMARK    4  A    between atoms: C_10  and  C_12
REMARK    5  A    between atoms: C_16  and  O_17
REMARK    6  A    between atoms: O_17  and  C_18
REMARK    7  A    between atoms: N_21  and  S_22
REMARK    8  A    between atoms: S_22  and  C_23
REMARK                            x       y       z     vdW  Elec       q    Type
REMARK                         _______ _______ _______ _____ _____    ______ ____
ROOT
ATOM      1  C   UNL     1       1.455   8.934  19.202  0.00  0.00    +0.000 A 
ATOM      2  C   UNL     1       1.174   8.522  20.531  0.00  0.00    +0.000 A 
ATOM      3  C   UNL     1       1.549   7.265  21.021  0.00  0.00    +0.000 A 
ATOM      4  C   UNL     1       2.223   6.376  20.196  0.00  0.00    +0.000 A 
ATOM      5  C   UNL     1       2.525   6.743  18.883  0.00  0.00    +0.000 A 
ATOM      6  C   UNL     1       2.161   8.027  18.386  0.00  0.00    +0.000 A 
ENDROOT
BRANCH   1  13
ATOM      7  C   UNL     1      -0.788  12.189  18.971  0.00  0.00    +0.000 C 
ATOM      8  C   UNL     1      -0.486  13.494  18.207  0.00  0.00    +0.000 C 
ATOM      9  C   UNL     1       0.581  14.321  18.905  0.00  0.00    +0.000 C 
ATOM     10  C   UNL     1       1.814  13.468  19.187  0.00  0.00    +0.000 C 
ATOM     11  C   UNL     1       1.485  12.144  19.921  0.00  0.00    +0.000 C 
ATOM     12  N   UNL     1       0.467  11.382  19.188  0.00  0.00    +0.000 N 
ATOM     13  C   UNL     1       0.566  10.057  18.703  0.00  0.00    +0.000 C 
ATOM     14  O   UNL     1      -0.163   9.672  17.784  0.00  0.00    +0.000 OA
BRANCH   7  15
ATOM     15  C   UNL     1      -2.020  11.543  18.303  0.00  0.00    +0.000 C 
BRANCH  15  17
ATOM     16  C   UNL     1      -3.070  11.072  16.268  0.00  0.00    +0.000 C 
ATOM     17  O   UNL     1      -2.104  11.889  16.920  0.00  0.00    +0.000 OA
ENDBRANCH  15  17
ENDBRANCH   7  15
ENDBRANCH   1  13
BRANCH   5  18
ATOM     18  O   UNL     1       3.120   5.711  18.183  0.00  0.00    +0.000 OA
BRANCH  18  19
ATOM     19  C   UNL     1       3.948   4.783  18.880  0.00  0.00    +0.000 C 
ATOM     20  C   UNL     1       5.352   5.318  19.124  0.00  0.00    +0.000 C 
ATOM     21  C   UNL     1       6.102   5.640  17.843  0.00  0.00    +0.000 C 
ATOM     22  N   UNL     1       5.870   4.724  16.713  0.00  0.00    +0.000 NA
ATOM     23  C   UNL     1       4.865   3.647  16.761  0.00  0.00    +0.000 C 
ATOM     24  C   UNL     1       4.102   3.499  18.070  0.00  0.00    +0.000 C 
BRANCH  22  25
ATOM     25  S   UNL     1       6.290   5.296  15.165  0.00  0.00    +0.000 S 
ATOM     26  C   UNL     1       5.861   3.915  14.104  0.00  0.00    +0.000 C 
ATOM     27  O   UNL     1       5.431   6.410  14.835  0.00  0.00    +0.000 OA
ATOM     28  O   UNL     1       7.736   5.420  15.143  0.00  0.00    +0.000 OA
ENDBRANCH  22  25
ENDBRANCH  18  19
ENDBRANCH   5  18
TORSDOF 6
ENDMDL
MODEL 2
REMARK VINA RESULT:      -7.6      1.148      1.281
REMARK  Name = 
REMARK  8 active torsions:
REMARK  status: ('A' for Active; 'I' for Inactive)
REMARK    1  A    between atoms: C_1  and  O_2
REMARK    2  A    between atoms: O_2  and  C_3
REMARK    3  A    between atoms: C_3  and  C_4
REMARK    4  A    between atoms: C_10  and  C_12
REMARK    5  A    between atoms: C_16  and  O_17
REMARK    6  A    between atoms: O_17  and  C_18
REMARK    7  A    between atoms: N_21  and  S_22
REMARK    8  A    between atoms: S_22  and  C_23
REMARK                            x       y       z     vdW  Elec       q    Type
REMARK                         _______ _______ _______ _____ _____    ______ ____
ROOT
ATOM      1  C   UNL     1       1.314   9.281  19.399  0.00  0.00    +0.000 A 
ATOM      2  C   UNL     1       0.954   8.739  20.661  0.00  0.00    +0.000 A 
ATOM      3  C   UNL     1       1.308   7.440  21.047  0.00  0.00    +0.000 A 
ATOM      4  C   UNL     1       2.039   6.639  20.182  0.00  0.00    +0.000 A 
ATOM      5  C   UNL     1       2.419   7.135  18.934  0.00  0.00    +0.000 A 
ATOM      6  C   UNL     1       2.077   8.462  18.544  0.00  0.00    +0.000 A 
ENDROOT
BRANCH   1  13
ATOM      7  C   UNL     1      -0.695  12.691  19.280  0.00  0.00    +0.000 C 
ATOM      8  C   UNL     1      -0.408  13.929  18.405  0.00  0.00    +0.000 C 
ATOM      9  C   UNL     1       0.804  14.700  18.900  0.00  0.00    +0.000 C 
ATOM     10  C   UNL     1       1.998  13.765  19.062  0.00  0.00    +0.000 C 
ATOM     11  C   UNL     1       1.679  12.510  19.913  0.00  0.00    +0.000 C 
ATOM     12  N   UNL     1       0.516  11.797  19.373  0.00  0.00    +0.000 N 
ATOM     13  C   UNL     1       0.449  10.447  18.960  0.00  0.00    +0.000 C 
ATOM     14  O   UNL     1      -0.428  10.076  18.173  0.00  0.00    +0.000 OA
BRANCH   7  15
ATOM     15  C   UNL     1      -2.052  12.115  18.826  0.00  0.00    +0.000 C 
BRANCH  15  17
ATOM     16  C   UNL     1      -4.332  12.213  19.334  0.00  0.00    +0.000 C 
ATOM     17  O   UNL     1      -3.018  12.169  19.878  0.00  0.00    +0.000 OA
ENDBRANCH  15  17
ENDBRANCH   7  15
ENDBRANCH   1  13
BRANCH   5  18
ATOM     18  O   UNL     1       3.066   6.179  18.174  0.00  0.00    +0.000 OA
BRANCH  18  19
ATOM     19  C   UNL     1       3.028   4.815  18.589  0.00  0.00    +0.000 C 
ATOM     20  C   UNL     1       4.210   4.438  19.469  0.00  0.00    +0.000 C 
ATOM     21  C   UNL     1       5.552   4.608  18.777  0.00  0.00    +0.000 C 
ATOM     22  N   UNL     1       5.585   4.266  17.345  0.00  0.00    +0.000 NA
ATOM     23  C   UNL     1       4.371   3.921  16.585  0.00  0.00    +0.000 C 
ATOM     24  C   UNL     1       3.070   3.892  17.375  0.00  0.00    +0.000 C 
BRANCH  22  25
ATOM     25  S   UNL     1       6.892   4.879  16.441  0.00  0.00    +0.000 S 
ATOM     26  C   UNL     1       6.582   4.223  14.803  0.00  0.00    +0.000 C 
ATOM     27  O   UNL     1       6.781   6.319  16.387  0.00  0.00    +0.000 OA
ATOM     28  O   UNL     1       8.090   4.230  16.944  0.00  0.00    +0.000 OA
ENDBRANCH  22  25
ENDBRANCH  18  19
ENDBRANCH   5  18
TORSDOF 6
ENDMDL
MODEL 3
REMARK VINA RESULT:      -7.4      2.070      3.012
REMARK  Name = 
REMARK  8 active torsions:
REMARK  status: ('A' for Active; 'I' for Inactive)
REMARK    1  A    between atoms: C_1  and  O_2
REMARK    2  A    between atoms: O_2  and  C_3
REMARK    3  A    between atoms: C_3  and  C_4
REMARK    4  A    between atoms: C_10  and  C_12
REMARK    5  A    between atoms: C_16  and  O_17
REMARK    6  A    between atoms: O_17  and  C_18
REMARK    7  A    between atoms: N_21  and  S_22
REMARK    8  A    between atoms: S_22  and  C_23
REMARK                            x       y       z     vdW  Elec       q    Type
REMARK                         _______ _______ _______ _____ _____    ______ ____
ROOT
ATOM      1  C   UNL     1       1.395   9.239  19.168  0.00  0.00    +0.000 A 
ATOM      2  C   UNL     1       1.209   8.743  20.486  0.00  0.00    +0.000 A 
ATOM      3  C   UNL     1       1.574   7.442  20.855  0.00  0.00    +0.000 A 
ATOM      4  C   UNL     1       2.141   6.593  19.915  0.00  0.00    +0.000 A 
ATOM      5  C   UNL     1       2.347   7.042  18.610  0.00  0.00    +0.000 A 
ATOM      6  C   UNL     1       1.995   8.370  18.235  0.00  0.00    +0.000 A 
ENDROOT
BRANCH   1  13
ATOM      7  C   UNL     1      -0.579  12.669  19.292  0.00  0.00    +0.000 C 
ATOM      8  C   UNL     1      -0.343  13.929  18.435  0.00  0.00    +0.000 C 
ATOM      9  C   UNL     1       0.910  14.674  18.864  0.00  0.00    +0.000 C 
ATOM     10  C   UNL     1       2.103  13.725  18.912  0.00  0.00    +0.000 C 
ATOM     11  C   UNL     1       1.832  12.448  19.747  0.00  0.00    +0.000 C 
ATOM     12  N   UNL     1       0.625  11.762  19.272  0.00  0.00    +0.000 N 
ATOM     13  C   UNL     1       0.514  10.425  18.826  0.00  0.00    +0.000 C 
ATOM     14  O   UNL     1      -0.421  10.085  18.095  0.00  0.00    +0.000 OA
BRANCH   7  15
ATOM     15  C   UNL     1      -1.972  12.118  18.922  0.00  0.00    +0.000 C 
BRANCH  15  17
ATOM     16  C   UNL     1      -2.656  12.495  21.125  0.00  0.00    +0.000 C 
ATOM     17  O   UNL     1      -2.990  12.676  19.753  0.00  0.00    +0.000 OA
ENDBRANCH  15  17
ENDBRANCH   7  15
ENDBRANCH   1  13
BRANCH   5  18
ATOM     18  O   UNL     1       2.842   6.043  17.793  0.00  0.00    +0.000 OA
BRANCH  18  19
ATOM     19  C   UNL     1       4.208   6.088  17.387  0.00  0.00    +0.000 C 
ATOM     20  C   UNL     1       4.589   4.926  16.482  0.00  0.00    +0.000 C 
ATOM     21  C   UNL     1       4.411   3.568  17.141  0.00  0.00    +0.000 C 
ATOM     22  N   UNL     1       4.743   3.500  18.574  0.00  0.00    +0.000 NA
ATOM     23  C   UNL     1       5.086   4.696  19.365  0.00  0.00    +0.000 C 
ATOM     24  C   UNL     1       5.124   6.015  18.606  0.00  0.00    +0.000 C 
BRANCH  22  25
ATOM     25  S   UNL     1       4.120   2.174  19.443  0.00  0.00    +0.000 S 
ATOM     26  C   UNL     1       2.691   2.877  20.265  0.00  0.00    +0.000 C 
ATOM     27  O   UNL     1       3.664   1.178  18.501  0.00  0.00    +0.000 OA
ATOM     28  O   UNL     1       5.093   1.855  20.472  0.00  0.00    +0.000 OA
ENDBRANCH  22  25
ENDBRANCH  18  19
ENDBRANCH   5  18
TORSDOF 6
ENDMDL
MODEL 4
REMARK VINA RESULT:      -7.3      1.289      1.825
REMARK  Name = 
REMARK  8 active torsions:
REMARK  status: ('A' for Active; 'I' for Inactive)
REMARK    1  A    between atoms: C_1  and  O_2
REMARK    2  A    between atoms: O_2  and  C_3
REMARK    3  A    between atoms: C_3  and  C_4
REMARK    4  A    between atoms: C_10  and  C_12
REMARK    5  A    between atoms: C_16  and  O_17
REMARK    6  A    between atoms: O_17  and  C_18
REMARK    7  A    between atoms: N_21  and  S_22
REMARK    8  A    between atoms: S_22  and  C_23
REMARK                            x       y       z     vdW  Elec       q    Type
REMARK                         _______ _______ _______ _____ _____    ______ ____
ROOT
ATOM      1  C   UNL     1       1.249   9.461  19.518  0.00  0.00    +0.000 A 
ATOM      2  C   UNL     1       0.906   8.901  20.777  0.00  0.00    +0.000 A 
ATOM      3  C   UNL     1       1.235   7.585  21.126  0.00  0.00    +0.000 A 
ATOM      4  C   UNL     1       1.924   6.784  20.226  0.00  0.00    +0.000 A 
ATOM      5  C   UNL     1       2.285   7.296  18.979  0.00  0.00    +0.000 A 
ATOM      6  C   UNL     1       1.969   8.640  18.626  0.00  0.00    +0.000 A 
ENDROOT
BRANCH   1  13
ATOM      7  C   UNL     1      -0.574  12.975  19.469  0.00  0.00    +0.000 C 
ATOM      8  C   UNL     1      -0.320  14.160  18.516  0.00  0.00    +0.000 C 
ATOM      9  C   UNL     1       0.979  14.877  18.842  0.00  0.00    +0.000 C 
ATOM     10  C   UNL     1       2.132  13.881  18.913  0.00  0.00    +0.000 C 
ATOM     11  C   UNL     1       1.843  12.680  19.847  0.00  0.00    +0.000 C 
ATOM     12  N   UNL     1       0.590  12.016  19.469  0.00  0.00    +0.000 N 
ATOM     13  C   UNL     1       0.404  10.657  19.125  0.00  0.00    +0.000 C 
ATOM     14  O   UNL     1      -0.573  10.310  18.455  0.00  0.00    +0.000 OA
BRANCH   7  15
ATOM     15  C   UNL     1      -2.002  12.462  19.192  0.00  0.00    +0.000 C 
BRANCH  15  17
ATOM     16  C   UNL     1      -3.311  13.555  20.792  0.00  0.00    +0.000 C 
ATOM     17  O   UNL     1      -2.744  12.309  20.403  0.00  0.00    +0.000 OA
ENDBRANCH  15  17
ENDBRANCH   7  15
ENDBRANCH   1  13
BRANCH   5  18
ATOM     18  O   UNL     1       2.888   6.341  18.183  0.00  0.00    +0.000 OA
BRANCH  18  19
ATOM     19  C   UNL     1       3.016   5.007  18.672  0.00  0.00    +0.000 C 
ATOM     20  C   UNL     1       4.249   4.819  19.543  0.00  0.00    +0.000 C 
ATOM     21  C   UNL     1       5.550   5.105  18.811  0.00  0.00    +0.000 C 
ATOM     22  N   UNL     1       5.599   4.689  17.399  0.00  0.00    +0.000 NA
ATOM     23  C   UNL     1       4.420   4.164  16.688  0.00  0.00    +0.000 C 
ATOM     24  C   UNL     1       3.146   4.029  17.509  0.00  0.00    +0.000 C 
BRANCH  22  25
ATOM     25  S   UNL     1       6.809   5.399  16.433  0.00  0.00    +0.000 S 
ATOM     26  C   UNL     1       7.303   6.824  17.402  0.00  0.00    +0.000 C 
ATOM     27  O   UNL     1       7.929   4.489  16.353  0.00  0.00    +0.000 OA
ATOM     28  O   UNL     1       6.152   5.899  15.239  0.00  0.00    +0.000 OA
ENDBRANCH  22  25
ENDBRANCH  18  19
ENDBRANCH   5  18
TORSDOF 6
ENDMDL
MODEL 5
REMARK VINA RESULT:      -7.3      3.752      9.456
REMARK  Name = 
REMARK  8 active torsions:
REMARK  status: ('A' for Active; 'I' for Inactive)
REMARK    1  A    between atoms: C_1  and  O_2
REMARK    2  A    between atoms: O_2  and  C_3
REMARK    3  A    between atoms: C_3  and  C_4
REMARK    4  A    between atoms: C_10  and  C_12
REMARK    5  A    between atoms: C_16  and  O_17
REMARK    6  A    between atoms: O_17  and  C_18
REMARK    7  A    between atoms: N_21  and  S_22
REMARK    8  A    between atoms: S_22  and  C_23
REMARK                            x       y       z     vdW  Elec       q    Type
REMARK                         _______ _______ _______ _____ _____    ______ ____
ROOT
ATOM      1  C   UNL     1       2.139   8.037  19.044  0.00  0.00    +0.000 A 
ATOM      2  C   UNL     1       1.873   8.681  17.807  0.00  0.00    +0.000 A 
ATOM      3  C   UNL     1       0.917   9.697  17.680  0.00  0.00    +0.000 A 
ATOM      4  C   UNL     1       0.196  10.106  18.793  0.00  0.00    +0.000 A 
ATOM      5  C   UNL     1       0.430   9.505  20.030  0.00  0.00    +0.000 A 
ATOM      6  C   UNL     1       1.414   8.483  20.167  0.00  0.00    +0.000 A 
ENDROOT
BRANCH   1  13
ATOM      7  C   UNL     1       3.777   4.512  19.793  0.00  0.00    +0.000 C 
ATOM      8  C   UNL     1       3.213   3.116  19.461  0.00  0.00    +0.000 C 
ATOM      9  C   UNL     1       2.064   2.739  20.381  0.00  0.00    +0.000 C 
ATOM     10  C   UNL     1       1.013   3.844  20.399  0.00  0.00    +0.000 C 
ATOM     11  C   UNL     1       1.606   5.244  20.698  0.00  0.00    +0.000 C 
ATOM     12  N   UNL     1       2.693   5.559  19.764  0.00  0.00    +0.000 N 
ATOM     13  C   UNL     1       2.793   6.676  18.903  0.00  0.00    +0.000 C 
ATOM     14  O   UNL     1       3.521   6.635  17.907  0.00  0.00    +0.000 OA
BRANCH   7  15
ATOM     15  C   UNL     1       5.060   4.699  18.956  0.00  0.00    +0.000 C 
BRANCH  15  17
ATOM     16  C   UNL     1       7.190   5.661  18.967  0.00  0.00    +0.000 C 
ATOM     17  O   UNL     1       6.161   5.098  19.773  0.00  0.00    +0.000 OA
ENDBRANCH  15  17
ENDBRANCH   7  15
ENDBRANCH   1  13
BRANCH   5  18
ATOM     18  O   UNL     1      -0.431   9.975  21.004  0.00  0.00    +0.000 OA
BRANCH  18  19
ATOM     19  C   UNL     1       0.077  10.819  22.035  0.00  0.00    +0.000 C 
ATOM     20  C   UNL     1      -0.879  10.948  23.211  0.00  0.00    +0.000 C 
ATOM     21  C   UNL     1      -2.223  11.547  22.829  0.00  0.00    +0.000 C 
ATOM     22  N   UNL     1      -2.187  12.612  21.813  0.00  0.00    +0.000 NA
ATOM     23  C   UNL     1      -0.953  12.982  21.097  0.00  0.00    +0.000 C 
ATOM     24  C   UNL     1       0.307  12.228  21.498  0.00  0.00    +0.000 C 
BRANCH  22  25
ATOM     25  S   UNL     1      -3.653  12.966  21.022  0.00  0.00    +0.000 S 
ATOM     26  C   UNL     1      -3.445  12.170  19.430  0.00  0.00    +0.000 C 
ATOM     27  O   UNL     1      -4.729  12.307  21.726  0.00  0.00    +0.000 OA
ATOM     28  O   UNL     1      -3.666  14.399  20.787  0.00  0.00    +0.000 OA
ENDBRANCH  22  25
ENDBRANCH  18  19
ENDBRANCH   5  18
TORSDOF 6
ENDMDL
MODEL 6
REMARK VINA RESULT:      -7.2      1.404      1.607
REMARK  Name = 
REMARK  8 active torsions:
REMARK  status: ('A' for Active; 'I' for Inactive)
REMARK    1  A    between atoms: C_1  and  O_2
REMARK    2  A    between atoms: O_2  and  C_3
REMARK    3  A    between atoms: C_3  and  C_4
REMARK    4  A    between atoms: C_10  and  C_12
REMARK    5  A    between atoms: C_16  and  O_17
REMARK    6  A    between atoms: O_17  and  C_18
REMARK    7  A    between atoms: N_21  and  S_22
REMARK    8  A    between atoms: S_22  and  C_23
REMARK                            x       y       z     vdW  Elec       q    Type
REMARK                         _______ _______ _______ _____ _____    ______ ____
ROOT
ATOM      1  C   UNL     1       1.283   9.073  19.799  0.00  0.00    +0.000 A 
ATOM      2  C   UNL     1       0.851   8.411  20.978  0.00  0.00    +0.000 A 
ATOM      3  C   UNL     1       1.186   7.079  21.255  0.00  0.00    +0.000 A 
ATOM      4  C   UNL     1       1.970   6.366  20.360  0.00  0.00    +0.000 A 
ATOM      5  C   UNL     1       2.421   6.980  19.190  0.00  0.00    +0.000 A 
ATOM      6  C   UNL     1       2.098   8.340  18.913  0.00  0.00    +0.000 A 
ENDROOT
BRANCH   1  13
ATOM      7  C   UNL     1      -1.651  11.716  19.502  0.00  0.00    +0.000 C 
ATOM      8  C   UNL     1      -1.670  13.171  20.012  0.00  0.00    +0.000 C 
ATOM      9  C   UNL     1      -1.811  13.235  21.524  0.00  0.00    +0.000 C 
ATOM     10  C   UNL     1      -0.759  12.357  22.194  0.00  0.00    +0.000 C 
ATOM     11  C   UNL     1      -0.731  10.910  21.641  0.00  0.00    +0.000 C 
ATOM     12  N   UNL     1      -0.571  10.913  20.182  0.00  0.00    +0.000 N 
ATOM     13  C   UNL     1       0.441  10.278  19.425  0.00  0.00    +0.000 C 
ATOM     14  O   UNL     1       0.705  10.667  18.284  0.00  0.00    +0.000 OA
BRANCH   7  15
ATOM     15  C   UNL     1      -1.724  11.770  17.961  0.00  0.00    +0.000 C 
BRANCH  15  17
ATOM     16  C   UNL     1      -2.734  10.893  16.044  0.00  0.00    +0.000 C 
ATOM     17  O   UNL     1      -2.533  10.714  17.442  0.00  0.00    +0.000 OA
ENDBRANCH  15  17
ENDBRANCH   7  15
ENDBRANCH   1  13
BRANCH   5  18
ATOM     18  O   UNL     1       3.115   6.102  18.380  0.00  0.00    +0.000 OA
BRANCH  18  19
ATOM     19  C   UNL     1       3.096   4.709  18.685  0.00  0.00    +0.000 C 
ATOM     20  C   UNL     1       4.336   4.257  19.440  0.00  0.00    +0.000 C 
ATOM     21  C   UNL     1       5.625   4.480  18.665  0.00  0.00    +0.000 C 
ATOM     22  N   UNL     1       5.548   4.256  17.212  0.00  0.00    +0.000 NA
ATOM     23  C   UNL     1       4.278   3.978  16.520  0.00  0.00    +0.000 C 
ATOM     24  C   UNL     1       3.039   3.888  17.400  0.00  0.00    +0.000 C 
BRANCH  22  25
ATOM     25  S   UNL     1       6.790   4.938  16.266  0.00  0.00    +0.000 S 
ATOM     26  C   UNL     1       6.497   4.217  14.651  0.00  0.00    +0.000 C 
ATOM     27  O   UNL     1       6.572   6.364  16.176  0.00  0.00    +0.000 OA
ATOM     28  O   UNL     1       8.041   4.391  16.759  0.00  0.00    +0.000 OA
ENDBRANCH  22  25
ENDBRANCH  18  19
ENDBRANCH   5  18
TORSDOF 6
ENDMDL
MODEL 7
REMARK VINA RESULT:      -7.1      1.191      1.641
REMARK  Name = 
REMARK  8 active torsions:
REMARK  status: ('A' for Active; 'I' for Inactive)
REMARK    1  A    between atoms: C_1  and  O_2
REMARK    2  A    between atoms: O_2  and  C_3
REMARK    3  A    between atoms: C_3  and  C_4
REMARK    4  A    between atoms: C_10  and  C_12
REMARK    5  A    between atoms: C_16  and  O_17
REMARK    6  A    between atoms: O_17  and  C_18
REMARK    7  A    between atoms: N_21  and  S_22
REMARK    8  A    between atoms: S_22  and  C_23
REMARK                            x       y       z     vdW  Elec       q    Type
REMARK                         _______ _______ _______ _____ _____    ______ ____
ROOT
ATOM      1  C   UNL     1       1.342   9.018  19.316  0.00  0.00    +0.000 A 
ATOM      2  C   UNL     1       1.077   8.462  20.596  0.00  0.00    +0.000 A 
ATOM      3  C   UNL     1       1.542   7.195  20.973  0.00  0.00    +0.000 A 
ATOM      4  C   UNL     1       2.293   6.443  20.080  0.00  0.00    +0.000 A 
ATOM      5  C   UNL     1       2.581   6.954  18.814  0.00  0.00    +0.000 A 
ATOM      6  C   UNL     1       2.126   8.249  18.433  0.00  0.00    +0.000 A 
ENDROOT
BRANCH   1  13
ATOM      7  C   UNL     1      -1.169  12.080  19.354  0.00  0.00    +0.000 C 
ATOM      8  C   UNL     1      -0.957  13.485  18.754  0.00  0.00    +0.000 C 
ATOM      9  C   UNL     1       0.010  14.312  19.585  0.00  0.00    +0.000 C 
ATOM     10  C   UNL     1       1.303  13.538  19.822  0.00  0.00    +0.000 C 
ATOM     11  C   UNL     1       1.067  12.116  20.389  0.00  0.00    +0.000 C 
ATOM     12  N   UNL     1       0.145  11.361  19.534  0.00  0.00    +0.000 N 
ATOM     13  C   UNL     1       0.375  10.113  18.909  0.00  0.00    +0.000 C 
ATOM     14  O   UNL     1      -0.287   9.776  17.922  0.00  0.00    +0.000 OA
BRANCH   7  15
ATOM     15  C   UNL     1      -2.317  11.414  18.567  0.00  0.00    +0.000 C 
BRANCH  15  17
ATOM     16  C   UNL     1      -4.637  11.693  18.637  0.00  0.00    +0.000 C 
ATOM     17  O   UNL     1      -3.395  12.326  18.349  0.00  0.00    +0.000 OA
ENDBRANCH  15  17
ENDBRANCH   7  15
ENDBRANCH   1  13
BRANCH   5  18
ATOM     18  O   UNL     1       3.263   6.042  18.032  0.00  0.00    +0.000 OA
BRANCH  18  19
ATOM     19  C   UNL     1       3.112   4.649  18.294  0.00  0.00    +0.000 C 
ATOM     20  C   UNL     1       4.067   4.147  19.366  0.00  0.00    +0.000 C 
ATOM     21  C   UNL     1       5.530   4.328  18.999  0.00  0.00    +0.000 C 
ATOM     22  N   UNL     1       5.868   4.118  17.581  0.00  0.00    +0.000 NA
ATOM     23  C   UNL     1       4.843   3.892  16.548  0.00  0.00    +0.000 C 
ATOM     24  C   UNL     1       3.401   3.840  17.033  0.00  0.00    +0.000 C 
BRANCH  22  25
ATOM     25  S   UNL     1       7.351   4.762  17.044  0.00  0.00    +0.000 S 
ATOM     26  C   UNL     1       7.251   6.474  17.565  0.00  0.00    +0.000 C 
ATOM     27  O   UNL     1       8.423   4.123  17.772  0.00  0.00    +0.000 OA
ATOM     28  O   UNL     1       7.310   4.752  15.592  0.00  0.00    +0.000 OA
ENDBRANCH  22  25
ENDBRANCH  18  19
ENDBRANCH   5  18
TORSDOF 6
ENDMDL
MODEL 8
REMARK VINA RESULT:      -7.1      1.646      2.864
REMARK  Name = 
REMARK  8 active torsions:
REMARK  status: ('A' for Active; 'I' for Inactive)
REMARK    1  A    between atoms: C_1  and  O_2
REMARK    2  A    between atoms: O_2  and  C_3
REMARK    3  A    between atoms: C_3  and  C_4
REMARK    4  A    between atoms: C_10  and  C_12
REMARK    5  A    between atoms: C_16  and  O_17
REMARK    6  A    between atoms: O_17  and  C_18
REMARK    7  A    between atoms: N_21  and  S_22
REMARK    8  A    between atoms: S_22  and  C_23
REMARK                            x       y       z     vdW  Elec       q    Type
REMARK                         _______ _______ _______ _____ _____    ______ ____
ROOT
ATOM      1  C   UNL     1       0.963   9.307  19.980  0.00  0.00    +0.000 A 
ATOM      2  C   UNL     1       0.726   8.612  21.195  0.00  0.00    +0.000 A 
ATOM      3  C   UNL     1       1.216   7.320  21.428  0.00  0.00    +0.000 A 
ATOM      4  C   UNL     1       1.964   6.681  20.450  0.00  0.00    +0.000 A 
ATOM      5  C   UNL     1       2.226   7.330  19.242  0.00  0.00    +0.000 A 
ATOM      6  C   UNL     1       1.745   8.651  19.008  0.00  0.00    +0.000 A 
ENDROOT
BRANCH   1  13
ATOM      7  C   UNL     1      -1.292  12.038  18.208  0.00  0.00    +0.000 C 
ATOM      8  C   UNL     1      -2.828  12.058  18.079  0.00  0.00    +0.000 C 
ATOM      9  C   UNL     1      -3.321  11.042  17.064  0.00  0.00    +0.000 C 
ATOM     10  C   UNL     1      -2.743   9.663  17.367  0.00  0.00    +0.000 C 
ATOM     11  C   UNL     1      -1.203   9.671  17.530  0.00  0.00    +0.000 C 
ATOM     12  N   UNL     1      -0.790  10.654  18.538  0.00  0.00    +0.000 N 
ATOM     13  C   UNL     1      -0.027  10.423  19.705  0.00  0.00    +0.000 C 
ATOM     14  O   UNL     1      -0.082  11.210  20.655  0.00  0.00    +0.000 OA
BRANCH   7  15
ATOM     15  C   UNL     1      -0.890  13.239  19.089  0.00  0.00    +0.000 C 
BRANCH  15  17
ATOM     16  C   UNL     1       0.031  15.368  18.803  0.00  0.00    +0.000 C 
ATOM     17  O   UNL     1       0.174  13.986  18.497  0.00  0.00    +0.000 OA
ENDBRANCH  15  17
ENDBRANCH   7  15
ENDBRANCH   1  13
BRANCH   5  18
ATOM     18  O   UNL     1       2.910   6.519  18.357  0.00  0.00    +0.000 OA
BRANCH  18  19
ATOM     19  C   UNL     1       2.852   5.104  18.521  0.00  0.00    +0.000 C 
ATOM     20  C   UNL     1       3.864   4.589  19.533  0.00  0.00    +0.000 C 
ATOM     21  C   UNL     1       5.304   4.887  19.147  0.00  0.00    +0.000 C 
ATOM     22  N   UNL     1       5.616   4.800  17.710  0.00  0.00    +0.000 NA
ATOM     23  C   UNL     1       4.578   4.583  16.687  0.00  0.00    +0.000 C 
ATOM     24  C   UNL     1       3.156   4.406  17.199  0.00  0.00    +0.000 C 
BRANCH  22  25
ATOM     25  S   UNL     1       7.041   5.572  17.188  0.00  0.00    +0.000 S 
ATOM     26  C   UNL     1       7.757   6.161  18.722  0.00  0.00    +0.000 C 
ATOM     27  O   UNL     1       7.924   4.578  16.622  0.00  0.00    +0.000 OA
ATOM     28  O   UNL     1       6.630   6.741  16.430  0.00  0.00    +0.000 OA
ENDBRANCH  22  25
ENDBRANCH  18  19
ENDBRANCH   5  18
TORSDOF 6
ENDMDL
MODEL 9
REMARK VINA RESULT:      -7.1      1.508      2.518
REMARK  Name = 
REMARK  8 active torsions:
REMARK  status: ('A' for Active; 'I' for Inactive)
REMARK    1  A    between atoms: C_1  and  O_2
REMARK    2  A    between atoms: O_2  and  C_3
REMARK    3  A    between atoms: C_3  and  C_4
REMARK    4  A    between atoms: C_10  and  C_12
REMARK    5  A    between atoms: C_16  and  O_17
REMARK    6  A    between atoms: O_17  and  C_18
REMARK    7  A    between atoms: N_21  and  S_22
REMARK    8  A    between atoms: S_22  and  C_23
REMARK                            x       y       z     vdW  Elec       q    Type
REMARK                         _______ _______ _______ _____ _____    ______ ____
ROOT
ATOM      1  C   UNL     1       1.510   8.747  20.087  0.00  0.00    +0.000 A 
ATOM      2  C   UNL     1       1.018   7.985  21.179  0.00  0.00    +0.000 A 
ATOM      3  C   UNL     1       1.203   6.600  21.271  0.00  0.00    +0.000 A 
ATOM      4  C   UNL     1       1.892   5.929  20.271  0.00  0.00    +0.000 A 
ATOM      5  C   UNL     1       2.399   6.640  19.182  0.00  0.00    +0.000 A 
ATOM      6  C   UNL     1       2.229   8.052  19.093  0.00  0.00    +0.000 A 
ENDROOT
BRANCH   1  13
ATOM      7  C   UNL     1      -0.109  11.999  18.512  0.00  0.00    +0.000 C 
ATOM      8  C   UNL     1      -1.600  12.392  18.476  0.00  0.00    +0.000 C 
ATOM      9  C   UNL     1      -2.377  11.559  17.470  0.00  0.00    +0.000 C 
ATOM     10  C   UNL     1      -2.134  10.073  17.709  0.00  0.00    +0.000 C 
ATOM     11  C   UNL     1      -0.630   9.705  17.780  0.00  0.00    +0.000 C 
ATOM     12  N   UNL     1       0.060  10.524  18.782  0.00  0.00    +0.000 N 
ATOM     13  C   UNL     1       0.807  10.077  19.896  0.00  0.00    +0.000 C 
ATOM     14  O   UNL     1       0.994  10.821  20.864  0.00  0.00    +0.000 OA
BRANCH   7  15
ATOM     15  C   UNL     1       0.617  13.037  19.392  0.00  0.00    +0.000 C 
BRANCH  15  17
ATOM     16  C   UNL     1       0.379  14.797  20.913  0.00  0.00    +0.000 C 
ATOM     17  O   UNL     1      -0.308  13.789  20.180  0.00  0.00    +0.000 OA
ENDBRANCH  15  17
ENDBRANCH   7  15
ENDBRANCH   1  13
BRANCH   5  18
ATOM     18  O   UNL     1       2.981   5.806  18.246  0.00  0.00    +0.000 OA
BRANCH  18  19
ATOM     19  C   UNL     1       3.058   4.408  18.511  0.00  0.00    +0.000 C 
ATOM     20  C   UNL     1       4.296   4.029  19.310  0.00  0.00    +0.000 C 
ATOM     21  C   UNL     1       5.595   4.374  18.602  0.00  0.00    +0.000 C 
ATOM     22  N   UNL     1       5.600   4.190  17.141  0.00  0.00    +0.000 NA
ATOM     23  C   UNL     1       4.387   3.837  16.384  0.00  0.00    +0.000 C 
ATOM     24  C   UNL     1       3.122   3.625  17.203  0.00  0.00    +0.000 C 
BRANCH  22  25
ATOM     25  S   UNL     1       6.825   4.995  16.272  0.00  0.00    +0.000 S 
ATOM     26  C   UNL     1       6.570   4.410  14.597  0.00  0.00    +0.000 C 
ATOM     27  O   UNL     1       6.560   6.415  16.307  0.00  0.00    +0.000 OA
ATOM     28  O   UNL     1       8.090   4.449  16.729  0.00  0.00    +0.000 OA
ENDBRANCH  22  25
ENDBRANCH  18  19
ENDBRANCH   5  18
TORSDOF 6
ENDMDL
