MODEL 1
REMARK VINA RESULT:      -6.9      0.000      0.000
REMARK  Name = 
REMARK  5 active torsions:
REMARK  status: ('A' for Active; 'I' for Inactive)
REMARK    1  A    between atoms: C_2  and  C_3
REMARK    2  A    between atoms: C_6  and  N_7
REMARK    3  A    between atoms: N_7  and  C_8
REMARK    4  A    between atoms: C_13  and  C_14
REMARK    5  A    between atoms: C_14  and  O_15
REMARK                            x       y       z     vdW  Elec       q    Type
REMARK                         _______ _______ _______ _____ _____    ______ ____
ROOT
ATOM      1  N   UNL     1       4.083   4.770  19.769  0.00  0.00    +0.000 N 
ATOM      2  H   UNL     1       4.578   5.144  20.577  0.00  0.00    +0.000 HD
ENDROOT
BRANCH   1   6
ATOM      3  C   UNL     1       6.329   5.328  16.269  0.00  0.00    +0.000 A 
ATOM      4  C   UNL     1       6.769   4.557  17.333  0.00  0.00    +0.000 A 
ATOM      5  N   UNL     1       6.078   4.387  18.492  0.00  0.00    +0.000 NA
ATOM      6  C   UNL     1       4.880   5.012  18.628  0.00  0.00    +0.000 A 
ATOM      7  C   UNL     1       4.398   5.854  17.609  0.00  0.00    +0.000 A 
ATOM      8 CL   UNL     1       2.911   6.721  17.774  0.00  0.00    +0.000 Cl
ATOM      9  C   UNL     1       5.115   5.987  16.414  0.00  0.00    +0.000 A 
BRANCH   3  11
ATOM     10  N   UNL     1       7.715   5.492  14.094  0.00  0.00    +0.000 NA
ATOM     11  C   UNL     1       7.093   5.418  15.070  0.00  0.00    +0.000 C 
ENDBRANCH   3  11
ENDBRANCH   1   6
BRANCH   1  12
ATOM     12  C   UNL     1       3.595   3.396  19.986  0.00  0.00    +0.000 C 
ATOM     13  C   UNL     1       2.505   3.394  21.083  0.00  0.00    +0.000 C 
ATOM     14  C   UNL     1       1.111   3.840  20.636  0.00  0.00    +0.000 C 
ATOM     15  C   UNL     1       0.653   3.178  19.344  0.00  0.00    +0.000 C 
ATOM     16  C   UNL     1       1.698   3.327  18.250  0.00  0.00    +0.000 C 
ATOM     17  C   UNL     1       3.072   2.778  18.661  0.00  0.00    +0.000 C 
BRANCH  17  18
ATOM     18  C   UNL     1       3.069   1.246  18.728  0.00  0.00    +0.000 C 
BRANCH  18  19
ATOM     19  O   UNL     1       4.369   0.714  18.495  0.00  0.00    +0.000 OA
ATOM     20  H   UNL     1       4.731   0.429  19.354  0.00  0.00    +0.000 HD
ENDBRANCH  18  19
ENDBRANCH  17  18
ENDBRANCH   1  12
TORSDOF 5
ENDMDL
MODEL 2
REMARK VINA RESULT:      -6.7      1.505      1.596
REMARK  Name = 
REMARK  5 active torsions:
REMARK  status: ('A' for Active; 'I' for Inactive)
REMARK    1  A    between atoms: C_2  and  C_3
REMARK    2  A    between atoms: C_6  and  N_7
REMARK    3  A    between atoms: N_7  and  C_8
REMARK    4  A    between atoms: C_13  and  C_14
REMARK    5  A    between atoms: C_14  and  O_15
REMARK                            x       y       z     vdW  Elec       q    Type
REMARK                         _______ _______ _______ _____ _____    ______ ____
ROOT
ATOM      1  N   UNL     1       3.229   4.408  17.912  0.00  0.00    +0.000 N 
ATOM      2  H   UNL     1       2.596   5.203  17.837  0.00  0.00    +0.000 HD
ENDROOT
BRANCH   1   6
ATOM      3  C   UNL     1       6.292   5.123  15.134  0.00  0.00    +0.000 A 
ATOM      4  C   UNL     1       5.932   3.851  15.551  0.00  0.00    +0.000 A 
ATOM      5  N   UNL     1       4.968   3.593  16.474  0.00  0.00    +0.000 NA
ATOM      6  C   UNL     1       4.312   4.640  17.034  0.00  0.00    +0.000 A 
ATOM      7  C   UNL     1       4.663   5.961  16.697  0.00  0.00    +0.000 A 
ATOM      8 CL   UNL     1       3.898   7.323  17.440  0.00  0.00    +0.000 Cl
ATOM      9  C   UNL     1       5.638   6.198  15.721  0.00  0.00    +0.000 A 
BRANCH   3  11
ATOM     10  N   UNL     1       8.088   5.458  13.306  0.00  0.00    +0.000 NA
ATOM     11  C   UNL     1       7.281   5.307  14.127  0.00  0.00    +0.000 C 
ENDBRANCH   3  11
ENDBRANCH   1   6
BRANCH   1  12
ATOM     12  C   UNL     1       3.542   4.057  19.309  0.00  0.00    +0.000 C 
ATOM     13  C   UNL     1       2.704   4.934  20.270  0.00  0.00    +0.000 C 
ATOM     14  C   UNL     1       1.249   4.502  20.465  0.00  0.00    +0.000 C 
ATOM     15  C   UNL     1       1.094   3.012  20.735  0.00  0.00    +0.000 C 
ATOM     16  C   UNL     1       1.818   2.185  19.685  0.00  0.00    +0.000 C 
ATOM     17  C   UNL     1       3.306   2.544  19.565  0.00  0.00    +0.000 C 
BRANCH  17  18
ATOM     18  C   UNL     1       4.101   2.059  20.784  0.00  0.00    +0.000 C 
BRANCH  18  19
ATOM     19  O   UNL     1       5.342   1.480  20.396  0.00  0.00    +0.000 OA
ATOM     20  H   UNL     1       5.505   1.724  19.466  0.00  0.00    +0.000 HD
ENDBRANCH  18  19
ENDBRANCH  17  18
ENDBRANCH   1  12
TORSDOF 5
ENDMDL
MODEL 3
REMARK VINA RESULT:      -6.7      2.366      2.949
REMARK  Name = 
REMARK  5 active torsions:
REMARK  status: ('A' for Active; 'I' for Inactive)
REMARK    1  A    between atoms: C_2  and  C_3
REMARK    2  A    between atoms: C_6  and  N_7
REMARK    3  A    between atoms: N_7  and  C_8
REMARK    4  A    between atoms: C_13  and  C_14
REMARK    5  A    between atoms: C_14  and  O_15
REMARK                            x       y       z     vdW  Elec       q    Type
REMARK                         _______ _______ _______ _____ _____    ______ ____
ROOT
ATOM      1  N   UNL     1       4.221   3.842  18.864  0.00  0.00    +0.000 N 
ATOM      2  H   UNL     1       4.049   2.838  18.888  0.00  0.00    +0.000 HD
ENDROOT
BRANCH   1   6
ATOM      3  C   UNL     1       6.631   4.823  15.573  0.00  0.00    +0.000 A 
ATOM      4  C   UNL     1       5.524   3.995  15.477  0.00  0.00    +0.000 A 
ATOM      5  N   UNL     1       4.746   3.634  16.532  0.00  0.00    +0.000 NA
ATOM      6  C   UNL     1       5.068   4.104  17.764  0.00  0.00    +0.000 A 
ATOM      7  C   UNL     1       6.212   4.905  17.942  0.00  0.00    +0.000 A 
ATOM      8 CL   UNL     1       6.694   5.466  19.506  0.00  0.00    +0.000 Cl
ATOM      9  C   UNL     1       6.977   5.288  16.834  0.00  0.00    +0.000 A 
BRANCH   3  11
ATOM     10  N   UNL     1       7.966   5.493  13.463  0.00  0.00    +0.000 NA
ATOM     11  C   UNL     1       7.367   5.192  14.410  0.00  0.00    +0.000 C 
ENDBRANCH   3  11
ENDBRANCH   1   6
BRANCH   1  12
ATOM     12  C   UNL     1       2.985   4.637  18.983  0.00  0.00    +0.000 C 
ATOM     13  C   UNL     1       1.843   3.950  18.199  0.00  0.00    +0.000 C 
ATOM     14  C   UNL     1       1.174   2.766  18.900  0.00  0.00    +0.000 C 
ATOM     15  C   UNL     1       0.808   3.052  20.350  0.00  0.00    +0.000 C 
ATOM     16  C   UNL     1       2.001   3.595  21.120  0.00  0.00    +0.000 C 
ATOM     17  C   UNL     1       2.607   4.850  20.474  0.00  0.00    +0.000 C 
BRANCH  17  18
ATOM     18  C   UNL     1       1.689   6.068  20.642  0.00  0.00    +0.000 C 
BRANCH  18  19
ATOM     19  O   UNL     1       2.365   7.276  20.310  0.00  0.00    +0.000 OA
ATOM     20  H   UNL     1       2.824   7.134  19.461  0.00  0.00    +0.000 HD
ENDBRANCH  18  19
ENDBRANCH  17  18
ENDBRANCH   1  12
TORSDOF 5
ENDMDL
MODEL 4
REMARK VINA RESULT:      -6.3      1.197      1.377
REMARK  Name = 
REMARK  5 active torsions:
REMARK  status: ('A' for Active; 'I' for Inactive)
REMARK    1  A    between atoms: C_2  and  C_3
REMARK    2  A    between atoms: C_6  and  N_7
REMARK    3  A    between atoms: N_7  and  C_8
REMARK    4  A    between atoms: C_13  and  C_14
REMARK    5  A    between atoms: C_14  and  O_15
REMARK                            x       y       z     vdW  Elec       q    Type
REMARK                         _______ _______ _______ _____ _____    ______ ____
ROOT
ATOM      1  N   UNL     1       4.333   4.451  19.472  0.00  0.00    +0.000 N 
ATOM      2  H   UNL     1       4.919   4.593  20.293  0.00  0.00    +0.000 HD
ENDROOT
BRANCH   1   6
ATOM      3  C   UNL     1       6.510   5.228  15.971  0.00  0.00    +0.000 A 
ATOM      4  C   UNL     1       6.964   4.382  16.969  0.00  0.00    +0.000 A 
ATOM      5  N   UNL     1       6.296   4.139  18.128  0.00  0.00    +0.000 NA
ATOM      6  C   UNL     1       5.108   4.763  18.334  0.00  0.00    +0.000 A 
ATOM      7  C   UNL     1       4.613   5.678  17.385  0.00  0.00    +0.000 A 
ATOM      8 CL   UNL     1       3.139   6.545  17.642  0.00  0.00    +0.000 Cl
ATOM      9  C   UNL     1       5.306   5.886  16.186  0.00  0.00    +0.000 A 
BRANCH   3  11
ATOM     10  N   UNL     1       7.851   5.528  13.781  0.00  0.00    +0.000 NA
ATOM     11  C   UNL     1       7.248   5.394  14.764  0.00  0.00    +0.000 C 
ENDBRANCH   3  11
ENDBRANCH   1   6
BRANCH   1  12
ATOM     12  C   UNL     1       3.632   3.154  19.490  0.00  0.00    +0.000 C 
ATOM     13  C   UNL     1       3.524   2.636  20.944  0.00  0.00    +0.000 C 
ATOM     14  C   UNL     1       2.420   3.269  21.794  0.00  0.00    +0.000 C 
ATOM     15  C   UNL     1       1.074   3.330  21.085  0.00  0.00    +0.000 C 
ATOM     16  C   UNL     1       1.204   3.974  19.715  0.00  0.00    +0.000 C 
ATOM     17  C   UNL     1       2.236   3.271  18.821  0.00  0.00    +0.000 C 
BRANCH  17  18
ATOM     18  C   UNL     1       1.731   1.901  18.350  0.00  0.00    +0.000 C 
BRANCH  18  19
ATOM     19  O   UNL     1       0.310   1.867  18.283  0.00  0.00    +0.000 OA
ATOM     20  H   UNL     1      -0.033   2.454  18.982  0.00  0.00    +0.000 HD
ENDBRANCH  18  19
ENDBRANCH  17  18
ENDBRANCH   1  12
TORSDOF 5
ENDMDL
MODEL 5
REMARK VINA RESULT:      -6.3      1.701      2.157
REMARK  Name = 
REMARK  5 active torsions:
REMARK  status: ('A' for Active; 'I' for Inactive)
REMARK    1  A    between atoms: C_2  and  C_3
REMARK    2  A    between atoms: C_6  and  N_7
REMARK    3  A    between atoms: N_7  and  C_8
REMARK    4  A    between atoms: C_13  and  C_14
REMARK    5  A    between atoms: C_14  and  O_15
REMARK                            x       y       z     vdW  Elec       q    Type
REMARK                         _______ _______ _______ _____ _____    ______ ____
ROOT
ATOM      1  N   UNL     1       4.123   4.333  18.979  0.00  0.00    +0.000 N 
ATOM      2  H   UNL     1       4.710   4.386  19.810  0.00  0.00    +0.000 HD
ENDROOT
BRANCH   1   6
ATOM      3  C   UNL     1       6.550   4.942  15.611  0.00  0.00    +0.000 A 
ATOM      4  C   UNL     1       5.315   4.316  15.548  0.00  0.00    +0.000 A 
ATOM      5  N   UNL     1       4.524   4.076  16.627  0.00  0.00    +0.000 NA
ATOM      6  C   UNL     1       4.964   4.465  17.851  0.00  0.00    +0.000 A 
ATOM      7  C   UNL     1       6.232   5.057  17.995  0.00  0.00    +0.000 A 
ATOM      8 CL   UNL     1       6.856   5.504  19.545  0.00  0.00    +0.000 Cl
ATOM      9  C   UNL     1       7.013   5.322  16.864  0.00  0.00    +0.000 A 
BRANCH   3  11
ATOM     10  N   UNL     1       7.908   5.409  13.462  0.00  0.00    +0.000 NA
ATOM     11  C   UNL     1       7.298   5.199  14.427  0.00  0.00    +0.000 C 
ENDBRANCH   3  11
ENDBRANCH   1   6
BRANCH   1  12
ATOM     12  C   UNL     1       3.191   3.191  19.010  0.00  0.00    +0.000 C 
ATOM     13  C   UNL     1       3.504   2.292  20.229  0.00  0.00    +0.000 C 
ATOM     14  C   UNL     1       2.974   2.789  21.575  0.00  0.00    +0.000 C 
ATOM     15  C   UNL     1       1.517   3.230  21.524  0.00  0.00    +0.000 C 
ATOM     16  C   UNL     1       1.284   4.223  20.396  0.00  0.00    +0.000 C 
ATOM     17  C   UNL     1       1.717   3.681  19.026  0.00  0.00    +0.000 C 
BRANCH  17  18
ATOM     18  C   UNL     1       0.765   2.585  18.528  0.00  0.00    +0.000 C 
BRANCH  18  19
ATOM     19  O   UNL     1       1.451   1.626  17.730  0.00  0.00    +0.000 OA
ATOM     20  H   UNL     1       1.175   1.759  16.804  0.00  0.00    +0.000 HD
ENDBRANCH  18  19
ENDBRANCH  17  18
ENDBRANCH   1  12
TORSDOF 5
ENDMDL
MODEL 6
REMARK VINA RESULT:      -6.2      2.551      2.979
REMARK  Name = 
REMARK  5 active torsions:
REMARK  status: ('A' for Active; 'I' for Inactive)
REMARK    1  A    between atoms: C_2  and  C_3
REMARK    2  A    between atoms: C_6  and  N_7
REMARK    3  A    between atoms: N_7  and  C_8
REMARK    4  A    between atoms: C_13  and  C_14
REMARK    5  A    between atoms: C_14  and  O_15
REMARK                            x       y       z     vdW  Elec       q    Type
REMARK                         _______ _______ _______ _____ _____    ______ ____
ROOT
ATOM      1  N   UNL     1       5.920   4.061  17.377  0.00  0.00    +0.000 N 
ATOM      2  H   UNL     1       5.528   4.153  16.442  0.00  0.00    +0.000 HD
ENDROOT
BRANCH   1   6
ATOM      3  C   UNL     1       7.869   7.684  18.205  0.00  0.00    +0.000 A 
ATOM      4  C   UNL     1       8.057   6.536  18.959  0.00  0.00    +0.000 A 
ATOM      5  N   UNL     1       7.414   5.360  18.734  0.00  0.00    +0.000 NA
ATOM      6  C   UNL     1       6.524   5.294  17.711  0.00  0.00    +0.000 A 
ATOM      7  C   UNL     1       6.244   6.437  16.939  0.00  0.00    +0.000 A 
ATOM      8 CL   UNL     1       5.067   6.411  15.672  0.00  0.00    +0.000 Cl
ATOM      9  C   UNL     1       6.943   7.627  17.171  0.00  0.00    +0.000 A 
BRANCH   3  11
ATOM     10  N   UNL     1       9.226   9.827  18.699  0.00  0.00    +0.000 NA
ATOM     11  C   UNL     1       8.617   8.865  18.477  0.00  0.00    +0.000 C 
ENDBRANCH   3  11
ENDBRANCH   1   6
BRANCH   1  12
ATOM     12  C   UNL     1       4.968   3.479  18.341  0.00  0.00    +0.000 C 
ATOM     13  C   UNL     1       4.386   4.594  19.241  0.00  0.00    +0.000 C 
ATOM     14  C   UNL     1       3.272   5.437  18.617  0.00  0.00    +0.000 C 
ATOM     15  C   UNL     1       2.196   4.604  17.935  0.00  0.00    +0.000 C 
ATOM     16  C   UNL     1       2.806   3.616  16.954  0.00  0.00    +0.000 C 
ATOM     17  C   UNL     1       3.847   2.695  17.606  0.00  0.00    +0.000 C 
BRANCH  17  18
ATOM     18  C   UNL     1       3.188   1.670  18.538  0.00  0.00    +0.000 C 
BRANCH  18  19
ATOM     19  O   UNL     1       3.995   0.507  18.683  0.00  0.00    +0.000 OA
ATOM     20  H   UNL     1       3.813   0.129  19.563  0.00  0.00    +0.000 HD
ENDBRANCH  18  19
ENDBRANCH  17  18
ENDBRANCH   1  12
TORSDOF 5
ENDMDL
MODEL 7
REMARK VINA RESULT:      -6.2      1.539      1.721
REMARK  Name = 
REMARK  5 active torsions:
REMARK  status: ('A' for Active; 'I' for Inactive)
REMARK    1  A    between atoms: C_2  and  C_3
REMARK    2  A    between atoms: C_6  and  N_7
REMARK    3  A    between atoms: N_7  and  C_8
REMARK    4  A    between atoms: C_13  and  C_14
REMARK    5  A    between atoms: C_14  and  O_15
REMARK                            x       y       z     vdW  Elec       q    Type
REMARK                         _______ _______ _______ _____ _____    ______ ____
ROOT
ATOM      1  N   UNL     1       3.954   5.186  18.748  0.00  0.00    +0.000 N 
ATOM      2  H   UNL     1       4.207   5.995  19.314  0.00  0.00    +0.000 HD
ENDROOT
BRANCH   1   6
ATOM      3  C   UNL     1       6.595   5.262  15.488  0.00  0.00    +0.000 A 
ATOM      4  C   UNL     1       5.240   4.999  15.356  0.00  0.00    +0.000 A 
ATOM      5  N   UNL     1       4.369   4.935  16.398  0.00  0.00    +0.000 NA
ATOM      6  C   UNL     1       4.846   5.134  17.654  0.00  0.00    +0.000 A 
ATOM      7  C   UNL     1       6.220   5.352  17.865  0.00  0.00    +0.000 A 
ATOM      8 CL   UNL     1       6.876   5.542  19.454  0.00  0.00    +0.000 Cl
ATOM      9  C   UNL     1       7.090   5.444  16.772  0.00  0.00    +0.000 A 
BRANCH   3  11
ATOM     10  N   UNL     1       8.117   5.437  13.407  0.00  0.00    +0.000 NA
ATOM     11  C   UNL     1       7.433   5.358  14.341  0.00  0.00    +0.000 C 
ENDBRANCH   3  11
ENDBRANCH   1   6
BRANCH   1  12
ATOM     12  C   UNL     1       3.779   3.961  19.550  0.00  0.00    +0.000 C 
ATOM     13  C   UNL     1       2.653   4.171  20.589  0.00  0.00    +0.000 C 
ATOM     14  C   UNL     1       1.224   4.050  20.054  0.00  0.00    +0.000 C 
ATOM     15  C   UNL     1       1.008   2.818  19.187  0.00  0.00    +0.000 C 
ATOM     16  C   UNL     1       2.057   2.727  18.090  0.00  0.00    +0.000 C 
ATOM     17  C   UNL     1       3.492   2.738  18.636  0.00  0.00    +0.000 C 
BRANCH  17  18
ATOM     18  C   UNL     1       3.834   1.424  19.349  0.00  0.00    +0.000 C 
BRANCH  18  19
ATOM     19  O   UNL     1       5.093   1.504  20.007  0.00  0.00    +0.000 OA
ATOM     20  H   UNL     1       5.047   2.239  20.647  0.00  0.00    +0.000 HD
ENDBRANCH  18  19
ENDBRANCH  17  18
ENDBRANCH   1  12
TORSDOF 5
ENDMDL
MODEL 8
REMARK VINA RESULT:      -6.1      3.696      5.411
REMARK  Name = 
REMARK  5 active torsions:
REMARK  status: ('A' for Active; 'I' for Inactive)
REMARK    1  A    between atoms: C_2  and  C_3
REMARK    2  A    between atoms: C_6  and  N_7
REMARK    3  A    between atoms: N_7  and  C_8
REMARK    4  A    between atoms: C_13  and  C_14
REMARK    5  A    between atoms: C_14  and  O_15
REMARK                            x       y       z     vdW  Elec       q    Type
REMARK                         _______ _______ _______ _____ _____    ______ ____
ROOT
ATOM      1  N   UNL     1       3.338   6.181  19.782  0.00  0.00    +0.000 N 
ATOM      2  H   UNL     1       3.839   6.341  18.909  0.00  0.00    +0.000 HD
ENDROOT
BRANCH   1   6
ATOM      3  C   UNL     1       0.580   9.316  20.195  0.00  0.00    +0.000 A 
ATOM      4  C   UNL     1       0.790   8.361  21.178  0.00  0.00    +0.000 A 
ATOM      5  N   UNL     1       1.652   7.316  21.056  0.00  0.00    +0.000 NA
ATOM      6  C   UNL     1       2.354   7.186  19.902  0.00  0.00    +0.000 A 
ATOM      7  C   UNL     1       2.150   8.090  18.842  0.00  0.00    +0.000 A 
ATOM      8 CL   UNL     1       2.973   7.918  17.331  0.00  0.00    +0.000 Cl
ATOM      9  C   UNL     1       1.280   9.174  19.004  0.00  0.00    +0.000 A 
BRANCH   3  11
ATOM     10  N   UNL     1      -1.030  11.296  20.599  0.00  0.00    +0.000 NA
ATOM     11  C   UNL     1      -0.307  10.407  20.419  0.00  0.00    +0.000 C 
ENDBRANCH   3  11
ENDBRANCH   1   6
BRANCH   1  12
ATOM     12  C   UNL     1       2.912   4.779  19.946  0.00  0.00    +0.000 C 
ATOM     13  C   UNL     1       1.569   4.551  19.212  0.00  0.00    +0.000 C 
ATOM     14  C   UNL     1       1.664   4.366  17.696  0.00  0.00    +0.000 C 
ATOM     15  C   UNL     1       2.745   3.380  17.276  0.00  0.00    +0.000 C 
ATOM     16  C   UNL     1       4.082   3.726  17.912  0.00  0.00    +0.000 C 
ATOM     17  C   UNL     1       4.011   3.804  19.444  0.00  0.00    +0.000 C 
BRANCH  17  18
ATOM     18  C   UNL     1       3.845   2.414  20.071  0.00  0.00    +0.000 C 
BRANCH  18  19
ATOM     19  O   UNL     1       5.065   1.681  20.035  0.00  0.00    +0.000 OA
ATOM     20  H   UNL     1       4.877   0.778  20.352  0.00  0.00    +0.000 HD
ENDBRANCH  18  19
ENDBRANCH  17  18
ENDBRANCH   1  12
TORSDOF 5
ENDMDL
MODEL 9
REMARK VINA RESULT:      -6.1      3.392      4.787
REMARK  Name = 
REMARK  5 active torsions:
REMARK  status: ('A' for Active; 'I' for Inactive)
REMARK    1  A    between atoms: C_2  and  C_3
REMARK    2  A    between atoms: C_6  and  N_7
REMARK    3  A    between atoms: N_7  and  C_8
REMARK    4  A    between atoms: C_13  and  C_14
REMARK    5  A    between atoms: C_14  and  O_15
REMARK                            x       y       z     vdW  Elec       q    Type
REMARK                         _______ _______ _______ _____ _____    ______ ____
ROOT
ATOM      1  N   UNL     1       3.770   6.008  19.644  0.00  0.00    +0.000 N 
ATOM      2  H   UNL     1       4.493   6.044  18.926  0.00  0.00    +0.000 HD
ENDROOT
BRANCH   1   6
ATOM      3  C   UNL     1       1.199   9.238  18.895  0.00  0.00    +0.000 A 
ATOM      4  C   UNL     1       1.191   8.528  20.085  0.00  0.00    +0.000 A 
ATOM      5  N   UNL     1       1.989   7.457  20.341  0.00  0.00    +0.000 NA
ATOM      6  C   UNL     1       2.849   7.045  19.374  0.00  0.00    +0.000 A 
ATOM      7  C   UNL     1       2.870   7.687  18.122  0.00  0.00    +0.000 A 
ATOM      8 CL   UNL     1       3.902   7.149  16.843  0.00  0.00    +0.000 Cl
ATOM      9  C   UNL     1       2.061   8.806  17.896  0.00  0.00    +0.000 A 
BRANCH   3  11
ATOM     10  N   UNL     1      -0.316  11.309  18.583  0.00  0.00    +0.000 NA
ATOM     11  C   UNL     1       0.364  10.379  18.723  0.00  0.00    +0.000 C 
ENDBRANCH   3  11
ENDBRANCH   1   6
BRANCH   1  12
ATOM     12  C   UNL     1       3.235   4.650  19.847  0.00  0.00    +0.000 C 
ATOM     13  C   UNL     1       1.807   4.555  19.260  0.00  0.00    +0.000 C 
ATOM     14  C   UNL     1       1.723   4.383  17.742  0.00  0.00    +0.000 C 
ATOM     15  C   UNL     1       2.657   3.308  17.205  0.00  0.00    +0.000 C 
ATOM     16  C   UNL     1       4.080   3.521  17.695  0.00  0.00    +0.000 C 
ATOM     17  C   UNL     1       4.180   3.585  19.226  0.00  0.00    +0.000 C 
BRANCH  17  18
ATOM     18  C   UNL     1       3.953   2.207  19.863  0.00  0.00    +0.000 C 
BRANCH  18  19
ATOM     19  O   UNL     1       5.184   1.609  20.255  0.00  0.00    +0.000 OA
ATOM     20  H   UNL     1       5.856   1.853  19.591  0.00  0.00    +0.000 HD
ENDBRANCH  18  19
ENDBRANCH  17  18
ENDBRANCH   1  12
TORSDOF 5
ENDMDL
