MODEL 1
REMARK VINA RESULT:      -7.3      0.000      0.000
REMARK  Name = 
REMARK  6 active torsions:
REMARK  status: ('A' for Active; 'I' for Inactive)
REMARK    1  A    between atoms: C_1  and  C_2
REMARK    2  A    between atoms: C_2  and  N_3
REMARK    3  A    between atoms: C_7  and  C_8
REMARK    4  A    between atoms: C_12  and  O_13
REMARK    5  A    between atoms: O_13  and  C_14
REMARK    6  A    between atoms: C_14  and  C_15
REMARK                            x       y       z     vdW  Elec       q    Type
REMARK                         _______ _______ _______ _____ _____    ______ ____
ROOT
ATOM      1  C   UNL     1       2.000   6.219  20.058  0.00  0.00    +0.000 C 
ATOM      2  O   UNL     1       1.233   5.576  20.765  0.00  0.00    +0.000 OA
ATOM      3  N   UNL     1       2.132   7.596  20.105  0.00  0.00    +0.000 N 
ATOM      4  C   UNL     1       1.367   8.461  20.998  0.00  0.00    +0.000 C 
ATOM      5  C   UNL     1       1.010   9.336  19.789  0.00  0.00    +0.000 C 
ATOM      6  C   UNL     1       1.969   8.485  18.946  0.00  0.00    +0.000 C 
ENDROOT
BRANCH   1  11
ATOM      7  N   UNL     1       5.342   3.678  16.388  0.00  0.00    +0.000 N 
ATOM      8  C   UNL     1       4.535   4.261  17.356  0.00  0.00    +0.000 A 
ATOM      9  N   UNL     1       3.213   4.072  17.237  0.00  0.00    +0.000 NA
ATOM     10  C   UNL     1       2.411   4.725  18.110  0.00  0.00    +0.000 A 
ATOM     11  C   UNL     1       2.892   5.517  19.124  0.00  0.00    +0.000 A 
ATOM     12  C   UNL     1       4.261   5.562  19.228  0.00  0.00    +0.000 A 
ATOM     13  N   UNL     1       5.094   4.971  18.349  0.00  0.00    +0.000 NA
ATOM     14  H   UNL     1       5.344   2.682  16.584  0.00  0.00    +0.000 HD
BRANCH   7  16
ATOM     15  C   UNL     1       6.847   4.844  14.886  0.00  0.00    +0.000 C 
ATOM     16  C   UNL     1       6.665   4.268  16.280  0.00  0.00    +0.000 C 
ENDBRANCH   7  16
ENDBRANCH   1  11
BRANCH   5  17
ATOM     17  O   UNL     1      -0.371   9.335  19.356  0.00  0.00    +0.000 OA
BRANCH  17  18
ATOM     18  C   UNL     1      -0.989  10.621  19.268  0.00  0.00    +0.000 C 
BRANCH  18  19
ATOM     19  C   UNL     1      -1.961  10.673  18.126  0.00  0.00    +0.000 A 
ATOM     20  C   UNL     1      -1.817   9.877  16.980  0.00  0.00    +0.000 A 
ATOM     21  C   UNL     1      -2.775   9.919  15.965  0.00  0.00    +0.000 A 
ATOM     22  C   UNL     1      -3.892  10.742  16.088  0.00  0.00    +0.000 A 
ATOM     23  C   UNL     1      -4.054  11.526  17.228  0.00  0.00    +0.000 A 
ATOM     24  C   UNL     1      -3.095  11.481  18.234  0.00  0.00    +0.000 A 
ATOM     25  F   UNL     1      -3.277  12.224  19.336  0.00  0.00    +0.000 F 
ENDBRANCH  18  19
ENDBRANCH  17  18
ENDBRANCH   5  17
TORSDOF 5
ENDMDL
MODEL 2
REMARK VINA RESULT:      -6.8      3.154      7.993
REMARK  Name = 
REMARK  6 active torsions:
REMARK  status: ('A' for Active; 'I' for Inactive)
REMARK    1  A    between atoms: C_1  and  C_2
REMARK    2  A    between atoms: C_2  and  N_3
REMARK    3  A    between atoms: C_7  and  C_8
REMARK    4  A    between atoms: C_12  and  O_13
REMARK    5  A    between atoms: O_13  and  C_14
REMARK    6  A    between atoms: C_14  and  C_15
REMARK                            x       y       z     vdW  Elec       q    Type
REMARK                         _______ _______ _______ _____ _____    ______ ____
ROOT
ATOM      1  C   UNL     1       3.425   5.847  19.343  0.00  0.00    +0.000 C 
ATOM      2  O   UNL     1       4.434   5.878  20.038  0.00  0.00    +0.000 OA
ATOM      3  N   UNL     1       2.856   4.685  18.850  0.00  0.00    +0.000 N 
ATOM      4  C   UNL     1       3.390   3.348  19.087  0.00  0.00    +0.000 C 
ATOM      5  C   UNL     1       3.304   3.083  17.579  0.00  0.00    +0.000 C 
ATOM      6  C   UNL     1       2.589   4.432  17.428  0.00  0.00    +0.000 C 
ENDROOT
BRANCH   1  11
ATOM      7  N   UNL     1       0.618  10.491  18.063  0.00  0.00    +0.000 N 
ATOM      8  C   UNL     1       1.358   9.376  18.433  0.00  0.00    +0.000 A 
ATOM      9  N   UNL     1       2.219   8.893  17.526  0.00  0.00    +0.000 NA
ATOM     10  C   UNL     1       2.866   7.744  17.833  0.00  0.00    +0.000 A 
ATOM     11  C   UNL     1       2.714   7.095  19.034  0.00  0.00    +0.000 A 
ATOM     12  C   UNL     1       1.893   7.726  19.936  0.00  0.00    +0.000 A 
ATOM     13  N   UNL     1       1.190   8.839  19.652  0.00  0.00    +0.000 NA
ATOM     14  H   UNL     1       1.261  11.276  18.078  0.00  0.00    +0.000 HD
BRANCH   7  16
ATOM     15  C   UNL     1      -1.795  10.238  18.045  0.00  0.00    +0.000 C 
ATOM     16  C   UNL     1      -0.588  10.693  18.849  0.00  0.00    +0.000 C 
ENDBRANCH   7  16
ENDBRANCH   1  11
BRANCH   5  17
ATOM     17  O   UNL     1       4.552   2.953  16.857  0.00  0.00    +0.000 OA
BRANCH  17  18
ATOM     18  C   UNL     1       4.930   4.086  16.074  0.00  0.00    +0.000 C 
BRANCH  18  19
ATOM     19  C   UNL     1       5.860   4.981  16.838  0.00  0.00    +0.000 A 
ATOM     20  C   UNL     1       6.769   4.486  17.785  0.00  0.00    +0.000 A 
ATOM     21  C   UNL     1       7.654   5.350  18.435  0.00  0.00    +0.000 A 
ATOM     22  C   UNL     1       7.652   6.711  18.137  0.00  0.00    +0.000 A 
ATOM     23  C   UNL     1       6.764   7.212  17.188  0.00  0.00    +0.000 A 
ATOM     24  C   UNL     1       5.884   6.346  16.546  0.00  0.00    +0.000 A 
ATOM     25  F   UNL     1       5.051   6.841  15.618  0.00  0.00    +0.000 F 
ENDBRANCH  18  19
ENDBRANCH  17  18
ENDBRANCH   5  17
TORSDOF 5
ENDMDL
MODEL 3
REMARK VINA RESULT:      -6.7      4.018      7.914
REMARK  Name = 
REMARK  6 active torsions:
REMARK  status: ('A' for Active; 'I' for Inactive)
REMARK    1  A    between atoms: C_1  and  C_2
REMARK    2  A    between atoms: C_2  and  N_3
REMARK    3  A    between atoms: C_7  and  C_8
REMARK    4  A    between atoms: C_12  and  O_13
REMARK    5  A    between atoms: O_13  and  C_14
REMARK    6  A    between atoms: C_14  and  C_15
REMARK                            x       y       z     vdW  Elec       q    Type
REMARK                         _______ _______ _______ _____ _____    ______ ____
ROOT
ATOM      1  C   UNL     1       2.803   5.962  18.053  0.00  0.00    +0.000 C 
ATOM      2  O   UNL     1       2.019   5.146  17.583  0.00  0.00    +0.000 OA
ATOM      3  N   UNL     1       4.179   5.816  18.041  0.00  0.00    +0.000 N 
ATOM      4  C   UNL     1       4.875   4.666  17.471  0.00  0.00    +0.000 C 
ATOM      5  C   UNL     1       5.674   4.547  18.775  0.00  0.00    +0.000 C 
ATOM      6  C   UNL     1       5.029   5.860  19.238  0.00  0.00    +0.000 C 
ENDROOT
BRANCH   1  11
ATOM      7  N   UNL     1       0.711  10.681  20.162  0.00  0.00    +0.000 N 
ATOM      8  C   UNL     1       1.295   9.517  19.681  0.00  0.00    +0.000 A 
ATOM      9  N   UNL     1       1.696   9.525  18.402  0.00  0.00    +0.000 NA
ATOM     10  C   UNL     1       2.167   8.363  17.891  0.00  0.00    +0.000 A 
ATOM     11  C   UNL     1       2.292   7.213  18.631  0.00  0.00    +0.000 A 
ATOM     12  C   UNL     1       1.955   7.336  19.957  0.00  0.00    +0.000 A 
ATOM     13  N   UNL     1       1.434   8.457  20.492  0.00  0.00    +0.000 NA
ATOM     14  H   UNL     1       1.465  11.350  20.277  0.00  0.00    +0.000 HD
BRANCH   7  16
ATOM     15  C   UNL     1      -0.446  11.846  21.948  0.00  0.00    +0.000 C 
ATOM     16  C   UNL     1      -0.105  10.492  21.350  0.00  0.00    +0.000 C 
ENDBRANCH   7  16
ENDBRANCH   1  11
BRANCH   5  17
ATOM     17  O   UNL     1       5.411   3.393  19.610  0.00  0.00    +0.000 OA
BRANCH  17  18
ATOM     18  C   UNL     1       4.567   2.396  19.033  0.00  0.00    +0.000 C 
BRANCH  18  19
ATOM     19  C   UNL     1       3.145   2.573  19.476  0.00  0.00    +0.000 A 
ATOM     20  C   UNL     1       2.809   3.180  20.695  0.00  0.00    +0.000 A 
ATOM     21  C   UNL     1       1.470   3.372  21.043  0.00  0.00    +0.000 A 
ATOM     22  C   UNL     1       0.455   2.975  20.176  0.00  0.00    +0.000 A 
ATOM     23  C   UNL     1       0.776   2.384  18.956  0.00  0.00    +0.000 A 
ATOM     24  C   UNL     1       2.112   2.194  18.617  0.00  0.00    +0.000 A 
ATOM     25  F   UNL     1       2.405   1.644  17.428  0.00  0.00    +0.000 F 
ENDBRANCH  18  19
ENDBRANCH  17  18
ENDBRANCH   5  17
TORSDOF 5
ENDMDL
MODEL 4
REMARK VINA RESULT:      -6.7      5.157      6.909
REMARK  Name = 
REMARK  6 active torsions:
REMARK  status: ('A' for Active; 'I' for Inactive)
REMARK    1  A    between atoms: C_1  and  C_2
REMARK    2  A    between atoms: C_2  and  N_3
REMARK    3  A    between atoms: C_7  and  C_8
REMARK    4  A    between atoms: C_12  and  O_13
REMARK    5  A    between atoms: O_13  and  C_14
REMARK    6  A    between atoms: C_14  and  C_15
REMARK                            x       y       z     vdW  Elec       q    Type
REMARK                         _______ _______ _______ _____ _____    ______ ____
ROOT
ATOM      1  C   UNL     1       6.963   5.276  16.196  0.00  0.00    +0.000 C 
ATOM      2  O   UNL     1       7.856   4.834  16.908  0.00  0.00    +0.000 OA
ATOM      3  N   UNL     1       6.155   6.347  16.536  0.00  0.00    +0.000 N 
ATOM      4  C   UNL     1       6.257   7.083  17.791  0.00  0.00    +0.000 C 
ATOM      5  C   UNL     1       4.744   6.911  17.977  0.00  0.00    +0.000 C 
ATOM      6  C   UNL     1       4.687   6.300  16.570  0.00  0.00    +0.000 C 
ENDROOT
BRANCH   1  11
ATOM      7  N   UNL     1       6.243   2.956  11.176  0.00  0.00    +0.000 N 
ATOM      8  C   UNL     1       6.357   3.574  12.415  0.00  0.00    +0.000 A 
ATOM      9  N   UNL     1       7.349   4.465  12.558  0.00  0.00    +0.000 NA
ATOM     10  C   UNL     1       7.537   4.992  13.790  0.00  0.00    +0.000 A 
ATOM     11  C   UNL     1       6.737   4.693  14.865  0.00  0.00    +0.000 A 
ATOM     12  C   UNL     1       5.685   3.854  14.591  0.00  0.00    +0.000 A 
ATOM     13  N   UNL     1       5.493   3.267  13.394  0.00  0.00    +0.000 NA
ATOM     14  H   UNL     1       5.869   3.656  10.544  0.00  0.00    +0.000 HD
BRANCH   7  16
ATOM     15  C   UNL     1       6.465   0.541  11.171  0.00  0.00    +0.000 C 
ATOM     16  C   UNL     1       5.496   1.710  11.198  0.00  0.00    +0.000 C 
ENDBRANCH   7  16
ENDBRANCH   1  11
BRANCH   5  17
ATOM     17  O   UNL     1       4.303   6.047  19.052  0.00  0.00    +0.000 OA
BRANCH  17  18
ATOM     18  C   UNL     1       2.950   6.233  19.474  0.00  0.00    +0.000 C 
BRANCH  18  19
ATOM     19  C   UNL     1       2.280   4.915  19.726  0.00  0.00    +0.000 A 
ATOM     20  C   UNL     1       2.136   4.380  21.014  0.00  0.00    +0.000 A 
ATOM     21  C   UNL     1       1.458   3.174  21.208  0.00  0.00    +0.000 A 
ATOM     22  C   UNL     1       0.904   2.499  20.123  0.00  0.00    +0.000 A 
ATOM     23  C   UNL     1       1.028   3.027  18.840  0.00  0.00    +0.000 A 
ATOM     24  C   UNL     1       1.707   4.227  18.654  0.00  0.00    +0.000 A 
ATOM     25  F   UNL     1       1.797   4.734  17.416  0.00  0.00    +0.000 F 
ENDBRANCH  18  19
ENDBRANCH  17  18
ENDBRANCH   5  17
TORSDOF 5
ENDMDL
MODEL 5
REMARK VINA RESULT:      -6.7      1.025      1.469
REMARK  Name = 
REMARK  6 active torsions:
REMARK  status: ('A' for Active; 'I' for Inactive)
REMARK    1  A    between atoms: C_1  and  C_2
REMARK    2  A    between atoms: C_2  and  N_3
REMARK    3  A    between atoms: C_7  and  C_8
REMARK    4  A    between atoms: C_12  and  O_13
REMARK    5  A    between atoms: O_13  and  C_14
REMARK    6  A    between atoms: C_14  and  C_15
REMARK                            x       y       z     vdW  Elec       q    Type
REMARK                         _______ _______ _______ _____ _____    ______ ____
ROOT
ATOM      1  C   UNL     1       1.948   6.144  20.014  0.00  0.00    +0.000 C 
ATOM      2  O   UNL     1       1.103   5.507  20.632  0.00  0.00    +0.000 OA
ATOM      3  N   UNL     1       2.135   7.510  20.136  0.00  0.00    +0.000 N 
ATOM      4  C   UNL     1       1.344   8.370  21.009  0.00  0.00    +0.000 C 
ATOM      5  C   UNL     1       1.118   9.313  19.820  0.00  0.00    +0.000 C 
ATOM      6  C   UNL     1       2.099   8.455  19.011  0.00  0.00    +0.000 C 
ENDROOT
BRANCH   1  11
ATOM      7  N   UNL     1       5.426   3.598  16.476  0.00  0.00    +0.000 N 
ATOM      8  C   UNL     1       4.586   4.186  17.413  0.00  0.00    +0.000 A 
ATOM      9  N   UNL     1       3.273   3.948  17.283  0.00  0.00    +0.000 NA
ATOM     10  C   UNL     1       2.437   4.601  18.123  0.00  0.00    +0.000 A 
ATOM     11  C   UNL     1       2.876   5.442  19.116  0.00  0.00    +0.000 A 
ATOM     12  C   UNL     1       4.241   5.537  19.236  0.00  0.00    +0.000 A 
ATOM     13  N   UNL     1       5.106   4.947  18.389  0.00  0.00    +0.000 NA
ATOM     14  H   UNL     1       5.459   2.611  16.705  0.00  0.00    +0.000 HD
BRANCH   7  16
ATOM     15  C   UNL     1       6.857   4.889  15.003  0.00  0.00    +0.000 C 
ATOM     16  C   UNL     1       6.730   4.230  16.366  0.00  0.00    +0.000 C 
ENDBRANCH   7  16
ENDBRANCH   1  11
BRANCH   5  17
ATOM     17  O   UNL     1      -0.226   9.396  19.287  0.00  0.00    +0.000 OA
BRANCH  17  18
ATOM     18  C   UNL     1      -0.454  10.456  18.357  0.00  0.00    +0.000 C 
BRANCH  18  19
ATOM     19  C   UNL     1      -1.905  10.831  18.315  0.00  0.00    +0.000 A 
ATOM     20  C   UNL     1      -2.475  11.733  19.225  0.00  0.00    +0.000 A 
ATOM     21  C   UNL     1      -3.820  12.094  19.116  0.00  0.00    +0.000 A 
ATOM     22  C   UNL     1      -4.606  11.572  18.090  0.00  0.00    +0.000 A 
ATOM     23  C   UNL     1      -4.048  10.686  17.171  0.00  0.00    +0.000 A 
ATOM     24  C   UNL     1      -2.708  10.329  17.288  0.00  0.00    +0.000 A 
ATOM     25  F   UNL     1      -2.180   9.493  16.382  0.00  0.00    +0.000 F 
ENDBRANCH  18  19
ENDBRANCH  17  18
ENDBRANCH   5  17
TORSDOF 5
ENDMDL
MODEL 6
REMARK VINA RESULT:      -6.6      1.152      1.292
REMARK  Name = 
REMARK  6 active torsions:
REMARK  status: ('A' for Active; 'I' for Inactive)
REMARK    1  A    between atoms: C_1  and  C_2
REMARK    2  A    between atoms: C_2  and  N_3
REMARK    3  A    between atoms: C_7  and  C_8
REMARK    4  A    between atoms: C_12  and  O_13
REMARK    5  A    between atoms: O_13  and  C_14
REMARK    6  A    between atoms: C_14  and  C_15
REMARK                            x       y       z     vdW  Elec       q    Type
REMARK                         _______ _______ _______ _____ _____    ______ ____
ROOT
ATOM      1  C   UNL     1       2.424   5.856  18.910  0.00  0.00    +0.000 C 
ATOM      2  O   UNL     1       1.514   5.196  19.399  0.00  0.00    +0.000 OA
ATOM      3  N   UNL     1       2.642   7.197  19.177  0.00  0.00    +0.000 N 
ATOM      4  C   UNL     1       1.813   7.999  20.070  0.00  0.00    +0.000 C 
ATOM      5  C   UNL     1       1.707   9.058  18.964  0.00  0.00    +0.000 C 
ATOM      6  C   UNL     1       2.721   8.244  18.150  0.00  0.00    +0.000 C 
ENDROOT
BRANCH   1  11
ATOM      7  N   UNL     1       5.981   3.367  15.411  0.00  0.00    +0.000 N 
ATOM      8  C   UNL     1       5.156   4.006  16.327  0.00  0.00    +0.000 A 
ATOM      9  N   UNL     1       4.351   3.226  17.064  0.00  0.00    +0.000 NA
ATOM     10  C   UNL     1       3.466   3.844  17.882  0.00  0.00    +0.000 A 
ATOM     11  C   UNL     1       3.396   5.208  18.019  0.00  0.00    +0.000 A 
ATOM     12  C   UNL     1       4.332   5.913  17.303  0.00  0.00    +0.000 A 
ATOM     13  N   UNL     1       5.194   5.343  16.439  0.00  0.00    +0.000 NA
ATOM     14  H   UNL     1       6.712   2.918  15.953  0.00  0.00    +0.000 HD
BRANCH   7  16
ATOM     15  C   UNL     1       6.106   3.622  13.002  0.00  0.00    +0.000 C 
ATOM     16  C   UNL     1       6.470   4.228  14.347  0.00  0.00    +0.000 C 
ENDBRANCH   7  16
ENDBRANCH   1  11
BRANCH   5  17
ATOM     17  O   UNL     1       0.411   9.241  18.345  0.00  0.00    +0.000 OA
BRANCH  17  18
ATOM     18  C   UNL     1      -0.190  10.522  18.543  0.00  0.00    +0.000 C 
BRANCH  18  19
ATOM     19  C   UNL     1      -1.531  10.596  17.876  0.00  0.00    +0.000 A 
ATOM     20  C   UNL     1      -1.862   9.805  16.765  0.00  0.00    +0.000 A 
ATOM     21  C   UNL     1      -3.141   9.868  16.208  0.00  0.00    +0.000 A 
ATOM     22  C   UNL     1      -4.107  10.707  16.760  0.00  0.00    +0.000 A 
ATOM     23  C   UNL     1      -3.795  11.487  17.871  0.00  0.00    +0.000 A 
ATOM     24  C   UNL     1      -2.518  11.421  18.420  0.00  0.00    +0.000 A 
ATOM     25  F   UNL     1      -2.240  12.161  19.504  0.00  0.00    +0.000 F 
ENDBRANCH  18  19
ENDBRANCH  17  18
ENDBRANCH   5  17
TORSDOF 5
ENDMDL
MODEL 7
REMARK VINA RESULT:      -6.6      3.904      7.812
REMARK  Name = 
REMARK  6 active torsions:
REMARK  status: ('A' for Active; 'I' for Inactive)
REMARK    1  A    between atoms: C_1  and  C_2
REMARK    2  A    between atoms: C_2  and  N_3
REMARK    3  A    between atoms: C_7  and  C_8
REMARK    4  A    between atoms: C_12  and  O_13
REMARK    5  A    between atoms: O_13  and  C_14
REMARK    6  A    between atoms: C_14  and  C_15
REMARK                            x       y       z     vdW  Elec       q    Type
REMARK                         _______ _______ _______ _____ _____    ______ ____
ROOT
ATOM      1  C   UNL     1       2.753   6.013  18.010  0.00  0.00    +0.000 C 
ATOM      2  O   UNL     1       1.955   5.174  17.612  0.00  0.00    +0.000 OA
ATOM      3  N   UNL     1       4.128   5.857  17.974  0.00  0.00    +0.000 N 
ATOM      4  C   UNL     1       4.804   4.668  17.465  0.00  0.00    +0.000 C 
ATOM      5  C   UNL     1       5.634   4.628  18.755  0.00  0.00    +0.000 C 
ATOM      6  C   UNL     1       5.006   5.972  19.146  0.00  0.00    +0.000 C 
ENDROOT
BRANCH   1  11
ATOM      7  N   UNL     1       1.051  10.929  20.017  0.00  0.00    +0.000 N 
ATOM      8  C   UNL     1       1.409   9.701  19.477  0.00  0.00    +0.000 A 
ATOM      9  N   UNL     1       1.426   8.653  20.314  0.00  0.00    +0.000 NA
ATOM     10  C   UNL     1       1.877   7.474  19.824  0.00  0.00    +0.000 A 
ATOM     11  C   UNL     1       2.263   7.302  18.517  0.00  0.00    +0.000 A 
ATOM     12  C   UNL     1       2.108   8.406  17.715  0.00  0.00    +0.000 A 
ATOM     13  N   UNL     1       1.714   9.610  18.173  0.00  0.00    +0.000 NA
ATOM     14  H   UNL     1       0.051  10.887  20.178  0.00  0.00    +0.000 HD
BRANCH   7  16
ATOM     15  C   UNL     1       0.330  13.055  19.099  0.00  0.00    +0.000 C 
ATOM     16  C   UNL     1       1.482  12.074  19.233  0.00  0.00    +0.000 C 
ENDBRANCH   7  16
ENDBRANCH   1  11
BRANCH   5  17
ATOM     17  O   UNL     1       5.385   3.533  19.669  0.00  0.00    +0.000 OA
BRANCH  17  18
ATOM     18  C   UNL     1       4.596   2.463  19.146  0.00  0.00    +0.000 C 
BRANCH  18  19
ATOM     19  C   UNL     1       3.154   2.622  19.528  0.00  0.00    +0.000 A 
ATOM     20  C   UNL     1       2.757   3.260  20.712  0.00  0.00    +0.000 A 
ATOM     21  C   UNL     1       1.402   3.432  21.002  0.00  0.00    +0.000 A 
ATOM     22  C   UNL     1       0.430   2.985  20.109  0.00  0.00    +0.000 A 
ATOM     23  C   UNL     1       0.812   2.363  18.923  0.00  0.00    +0.000 A 
ATOM     24  C   UNL     1       2.164   2.192  18.642  0.00  0.00    +0.000 A 
ATOM     25  F   UNL     1       2.515   1.612  17.485  0.00  0.00    +0.000 F 
ENDBRANCH  18  19
ENDBRANCH  17  18
ENDBRANCH   5  17
TORSDOF 5
ENDMDL
MODEL 8
REMARK VINA RESULT:      -6.6      2.958      4.506
REMARK  Name = 
REMARK  6 active torsions:
REMARK  status: ('A' for Active; 'I' for Inactive)
REMARK    1  A    between atoms: C_1  and  C_2
REMARK    2  A    between atoms: C_2  and  N_3
REMARK    3  A    between atoms: C_7  and  C_8
REMARK    4  A    between atoms: C_12  and  O_13
REMARK    5  A    between atoms: O_13  and  C_14
REMARK    6  A    between atoms: C_14  and  C_15
REMARK                            x       y       z     vdW  Elec       q    Type
REMARK                         _______ _______ _______ _____ _____    ______ ____
ROOT
ATOM      1  C   UNL     1       4.164   3.677  17.498  0.00  0.00    +0.000 C 
ATOM      2  O   UNL     1       3.304   2.886  17.129  0.00  0.00    +0.000 OA
ATOM      3  N   UNL     1       4.293   4.136  18.798  0.00  0.00    +0.000 N 
ATOM      4  C   UNL     1       3.415   3.742  19.895  0.00  0.00    +0.000 C 
ATOM      5  C   UNL     1       3.232   5.227  20.236  0.00  0.00    +0.000 C 
ATOM      6  C   UNL     1       4.295   5.554  19.179  0.00  0.00    +0.000 C 
ENDROOT
BRANCH   1  11
ATOM      7  N   UNL     1       8.039   5.316  13.839  0.00  0.00    +0.000 N 
ATOM      8  C   UNL     1       7.052   4.981  14.756  0.00  0.00    +0.000 A 
ATOM      9  N   UNL     1       7.462   4.587  15.970  0.00  0.00    +0.000 NA
ATOM     10  C   UNL     1       6.515   4.155  16.836  0.00  0.00    +0.000 A 
ATOM     11  C   UNL     1       5.173   4.153  16.542  0.00  0.00    +0.000 A 
ATOM     12  C   UNL     1       4.846   4.676  15.315  0.00  0.00    +0.000 A 
ATOM     13  N   UNL     1       5.759   5.066  14.404  0.00  0.00    +0.000 NA
ATOM     14  H   UNL     1       8.412   6.210  14.137  0.00  0.00    +0.000 HD
BRANCH   7  16
ATOM     15  C   UNL     1       7.236   3.857  12.074  0.00  0.00    +0.000 C 
ATOM     16  C   UNL     1       7.601   5.283  12.453  0.00  0.00    +0.000 C 
ENDBRANCH   7  16
ENDBRANCH   1  11
BRANCH   5  17
ATOM     17  O   UNL     1       1.924   5.803  20.006  0.00  0.00    +0.000 OA
BRANCH  17  18
ATOM     18  C   UNL     1       1.591   6.921  20.831  0.00  0.00    +0.000 C 
BRANCH  18  19
ATOM     19  C   UNL     1       1.490   8.177  20.017  0.00  0.00    +0.000 A 
ATOM     20  C   UNL     1       2.015   8.276  18.720  0.00  0.00    +0.000 A 
ATOM     21  C   UNL     1       1.851   9.448  17.979  0.00  0.00    +0.000 A 
ATOM     22  C   UNL     1       1.151  10.527  18.515  0.00  0.00    +0.000 A 
ATOM     23  C   UNL     1       0.612  10.435  19.797  0.00  0.00    +0.000 A 
ATOM     24  C   UNL     1       0.781   9.265  20.531  0.00  0.00    +0.000 A 
ATOM     25  F   UNL     1       0.237   9.185  21.754  0.00  0.00    +0.000 F 
ENDBRANCH  18  19
ENDBRANCH  17  18
ENDBRANCH   5  17
TORSDOF 5
ENDMDL
MODEL 9
REMARK VINA RESULT:      -6.5      6.167      8.883
REMARK  Name = 
REMARK  6 active torsions:
REMARK  status: ('A' for Active; 'I' for Inactive)
REMARK    1  A    between atoms: C_1  and  C_2
REMARK    2  A    between atoms: C_2  and  N_3
REMARK    3  A    between atoms: C_7  and  C_8
REMARK    4  A    between atoms: C_12  and  O_13
REMARK    5  A    between atoms: O_13  and  C_14
REMARK    6  A    between atoms: C_14  and  C_15
REMARK                            x       y       z     vdW  Elec       q    Type
REMARK                         _______ _______ _______ _____ _____    ______ ____
ROOT
ATOM      1  C   UNL     1       6.590   5.151  18.092  0.00  0.00    +0.000 C 
ATOM      2  O   UNL     1       7.531   4.511  18.545  0.00  0.00    +0.000 OA
ATOM      3  N   UNL     1       6.724   6.230  17.235  0.00  0.00    +0.000 N 
ATOM      4  C   UNL     1       8.005   6.748  16.766  0.00  0.00    +0.000 C 
ATOM      5  C   UNL     1       7.549   8.154  17.179  0.00  0.00    +0.000 C 
ATOM      6  C   UNL     1       6.167   7.565  17.489  0.00  0.00    +0.000 C 
ENDROOT
BRANCH   1  11
ATOM      7  N   UNL     1       1.430   3.477  19.382  0.00  0.00    +0.000 N 
ATOM      8  C   UNL     1       2.685   3.962  19.038  0.00  0.00    +0.000 A 
ATOM      9  N   UNL     1       3.271   3.417  17.963  0.00  0.00    +0.000 NA
ATOM     10  C   UNL     1       4.538   3.803  17.683  0.00  0.00    +0.000 A 
ATOM     11  C   UNL     1       5.213   4.750  18.414  0.00  0.00    +0.000 A 
ATOM     12  C   UNL     1       4.490   5.325  19.429  0.00  0.00    +0.000 A 
ATOM     13  N   UNL     1       3.248   4.933  19.774  0.00  0.00    +0.000 NA
ATOM     14  H   UNL     1       0.785   3.847  18.692  0.00  0.00    +0.000 HD
BRANCH   7  16
ATOM     15  C   UNL     1       1.464   2.563  21.629  0.00  0.00    +0.000 C 
ATOM     16  C   UNL     1       1.046   3.737  20.759  0.00  0.00    +0.000 C 
ENDBRANCH   7  16
ENDBRANCH   1  11
BRANCH   5  17
ATOM     17  O   UNL     1       8.231   8.769  18.297  0.00  0.00    +0.000 OA
BRANCH  17  18
ATOM     18  C   UNL     1       8.153  10.195  18.356  0.00  0.00    +0.000 C 
BRANCH  18  19
ATOM     19  C   UNL     1       9.475  10.790  18.742  0.00  0.00    +0.000 A 
ATOM     20  C   UNL     1      10.469  11.088  17.799  0.00  0.00    +0.000 A 
ATOM     21  C   UNL     1      11.664  11.691  18.197  0.00  0.00    +0.000 A 
ATOM     22  C   UNL     1      11.874  12.016  19.536  0.00  0.00    +0.000 A 
ATOM     23  C   UNL     1      10.889  11.738  20.480  0.00  0.00    +0.000 A 
ATOM     24  C   UNL     1       9.702  11.136  20.076  0.00  0.00    +0.000 A 
ATOM     25  F   UNL     1       8.753  10.895  20.995  0.00  0.00    +0.000 F 
ENDBRANCH  18  19
ENDBRANCH  17  18
ENDBRANCH   5  17
TORSDOF 5
ENDMDL
