MODEL 1
REMARK VINA RESULT:      -7.5      0.000      0.000
REMARK  Name = 
REMARK  8 active torsions:
REMARK  status: ('A' for Active; 'I' for Inactive)
REMARK    1  A    between atoms: C_2  and  C_3
REMARK    2  A    between atoms: C_3  and  C_4
REMARK    3  A    between atoms: C_4  and  N_5
REMARK    4  A    between atoms: N_5  and  S_6
REMARK    5  A    between atoms: S_6  and  C_9
REMARK    6  A    between atoms: N_17  and  C_18
REMARK    7  A    between atoms: C_18  and  C_19
REMARK    8  A    between atoms: C_19  and  N_20
REMARK                            x       y       z     vdW  Elec       q    Type
REMARK                         _______ _______ _______ _____ _____    ______ ____
ROOT
ATOM      1  C   UNL     1       6.326   5.761  18.761  0.00  0.00    +0.000 C 
ENDROOT
BRANCH   1   2
ATOM      2  N   UNL     1       6.055   4.444  18.151  0.00  0.00    +0.000 NA
ATOM      3  H   UNL     1       5.899   3.666  18.793  0.00  0.00    +0.000 HD
BRANCH   2   4
ATOM      4  S   UNL     1       4.852   4.420  16.955  0.00  0.00    +0.000 S 
ATOM      5  O   UNL     1       4.666   5.786  16.529  0.00  0.00    +0.000 OA
ATOM      6  O   UNL     1       5.194   3.370  16.023  0.00  0.00    +0.000 OA
BRANCH   4   7
ATOM      7  C   UNL     1       3.411   3.936  17.867  0.00  0.00    +0.000 A 
ATOM      8  C   UNL     1       2.869   2.656  17.688  0.00  0.00    +0.000 A 
ATOM      9  C   UNL     1       1.759   2.269  18.440  0.00  0.00    +0.000 A 
ATOM     10  C   UNL     1       1.209   3.157  19.361  0.00  0.00    +0.000 A 
ATOM     11  F   UNL     1       0.152   2.776  20.091  0.00  0.00    +0.000 F 
ATOM     12  C   UNL     1       1.753   4.429  19.528  0.00  0.00    +0.000 A 
ATOM     13  F   UNL     1       1.222   5.275  20.422  0.00  0.00    +0.000 F 
ATOM     14  C   UNL     1       2.855   4.832  18.783  0.00  0.00    +0.000 A 
ENDBRANCH   4   7
ENDBRANCH   2   4
ENDBRANCH   1   2
BRANCH   1  15
ATOM     15  C   UNL     1       7.799   6.120  18.631  0.00  0.00    +0.000 C 
BRANCH  15  17
ATOM     16  O   UNL     1       7.435   7.799  16.934  0.00  0.00    +0.000 OA
ATOM     17  C   UNL     1       7.918   7.499  18.023  0.00  0.00    +0.000 C 
ATOM     18  N   UNL     1       8.603   8.394  18.807  0.00  0.00    +0.000 N 
ATOM     19  H   UNL     1       8.957   8.108  19.711  0.00  0.00    +0.000 HD
BRANCH  18  20
ATOM     20  C   UNL     1       8.748   9.774  18.378  0.00  0.00    +0.000 C 
BRANCH  20  21
ATOM     21  C   UNL     1       9.451  10.637  19.437  0.00  0.00    +0.000 C 
BRANCH  21  22
ATOM     22  N   UNL     1      10.763  11.166  19.028  0.00  0.00    +0.000 NA
ATOM     23  C   UNL     1      11.335  12.034  20.085  0.00  0.00    +0.000 C 
ATOM     24  C   UNL     1      10.617  13.390  20.226  0.00  0.00    +0.000 C 
ATOM     25  O   UNL     1      10.586  14.102  18.983  0.00  0.00    +0.000 OA
ATOM     26  C   UNL     1       9.990  13.313  17.945  0.00  0.00    +0.000 C 
ATOM     27  C   UNL     1      10.715  11.967  17.782  0.00  0.00    +0.000 C 
ENDBRANCH  21  22
ENDBRANCH  20  21
ENDBRANCH  18  20
ENDBRANCH  15  17
ENDBRANCH   1  15
TORSDOF 8
ENDMDL
MODEL 2
REMARK VINA RESULT:      -7.5      1.994      2.719
REMARK  Name = 
REMARK  8 active torsions:
REMARK  status: ('A' for Active; 'I' for Inactive)
REMARK    1  A    between atoms: C_2  and  C_3
REMARK    2  A    between atoms: C_3  and  C_4
REMARK    3  A    between atoms: C_4  and  N_5
REMARK    4  A    between atoms: N_5  and  S_6
REMARK    5  A    between atoms: S_6  and  C_9
REMARK    6  A    between atoms: N_17  and  C_18
REMARK    7  A    between atoms: C_18  and  C_19
REMARK    8  A    between atoms: C_19  and  N_20
REMARK                            x       y       z     vdW  Elec       q    Type
REMARK                         _______ _______ _______ _____ _____    ______ ____
ROOT
ATOM      1  C   UNL     1       6.263   5.348  19.036  0.00  0.00    +0.000 C 
ENDROOT
BRANCH   1   2
ATOM      2  N   UNL     1       5.868   3.930  18.928  0.00  0.00    +0.000 NA
ATOM      3  H   UNL     1       5.963   3.363  19.772  0.00  0.00    +0.000 HD
BRANCH   2   4
ATOM      4  S   UNL     1       4.347   3.638  18.237  0.00  0.00    +0.000 S 
ATOM      5  O   UNL     1       4.536   3.635  16.806  0.00  0.00    +0.000 OA
ATOM      6  O   UNL     1       3.768   2.511  18.932  0.00  0.00    +0.000 OA
BRANCH   4   7
ATOM      7  C   UNL     1       3.444   5.104  18.661  0.00  0.00    +0.000 A 
ATOM      8  C   UNL     1       2.803   5.194  19.904  0.00  0.00    +0.000 A 
ATOM      9  C   UNL     1       2.129   6.367  20.246  0.00  0.00    +0.000 A 
ATOM     10  C   UNL     1       2.106   7.432  19.350  0.00  0.00    +0.000 A 
ATOM     11  F   UNL     1       1.470   8.561  19.689  0.00  0.00    +0.000 F 
ATOM     12  C   UNL     1       2.742   7.331  18.115  0.00  0.00    +0.000 A 
ATOM     13  F   UNL     1       2.723   8.364  17.262  0.00  0.00    +0.000 F 
ATOM     14  C   UNL     1       3.414   6.168  17.757  0.00  0.00    +0.000 A 
ENDBRANCH   4   7
ENDBRANCH   2   4
ENDBRANCH   1   2
BRANCH   1  15
ATOM     15  C   UNL     1       7.577   5.597  18.310  0.00  0.00    +0.000 C 
BRANCH  15  17
ATOM     16  O   UNL     1       6.977   7.413  16.836  0.00  0.00    +0.000 OA
ATOM     17  C   UNL     1       7.604   7.026  17.818  0.00  0.00    +0.000 C 
ATOM     18  N   UNL     1       8.384   7.860  18.581  0.00  0.00    +0.000 N 
ATOM     19  H   UNL     1       8.858   7.501  19.400  0.00  0.00    +0.000 HD
BRANCH  18  20
ATOM     20  C   UNL     1       8.462   9.276  18.264  0.00  0.00    +0.000 C 
BRANCH  20  21
ATOM     21  C   UNL     1       9.258  10.061  19.316  0.00  0.00    +0.000 C 
BRANCH  21  22
ATOM     22  N   UNL     1       9.226  11.524  19.148  0.00  0.00    +0.000 NA
ATOM     23  C   UNL     1       9.834  11.920  17.856  0.00  0.00    +0.000 C 
ATOM     24  C   UNL     1      11.366  11.757  17.818  0.00  0.00    +0.000 C 
ATOM     25  O   UNL     1      11.999  12.470  18.888  0.00  0.00    +0.000 OA
ATOM     26  C   UNL     1      11.474  12.075  20.161  0.00  0.00    +0.000 C 
ATOM     27  C   UNL     1       9.947  12.257  20.216  0.00  0.00    +0.000 C 
ENDBRANCH  21  22
ENDBRANCH  20  21
ENDBRANCH  18  20
ENDBRANCH  15  17
ENDBRANCH   1  15
TORSDOF 8
ENDMDL
MODEL 3
REMARK VINA RESULT:      -7.4      1.330      1.863
REMARK  Name = 
REMARK  8 active torsions:
REMARK  status: ('A' for Active; 'I' for Inactive)
REMARK    1  A    between atoms: C_2  and  C_3
REMARK    2  A    between atoms: C_3  and  C_4
REMARK    3  A    between atoms: C_4  and  N_5
REMARK    4  A    between atoms: N_5  and  S_6
REMARK    5  A    between atoms: S_6  and  C_9
REMARK    6  A    between atoms: N_17  and  C_18
REMARK    7  A    between atoms: C_18  and  C_19
REMARK    8  A    between atoms: C_19  and  N_20
REMARK                            x       y       z     vdW  Elec       q    Type
REMARK                         _______ _______ _______ _____ _____    ______ ____
ROOT
ATOM      1  C   UNL     1       6.898   5.533  18.205  0.00  0.00    +0.000 C 
ENDROOT
BRANCH   1   2
ATOM      2  N   UNL     1       7.275   4.918  16.917  0.00  0.00    +0.000 NA
ATOM      3  H   UNL     1       7.767   4.025  16.962  0.00  0.00    +0.000 HD
BRANCH   2   4
ATOM      4  S   UNL     1       6.036   4.806  15.764  0.00  0.00    +0.000 S 
ATOM      5  O   UNL     1       6.014   6.065  15.056  0.00  0.00    +0.000 OA
ATOM      6  O   UNL     1       6.204   3.547  15.074  0.00  0.00    +0.000 OA
BRANCH   4   7
ATOM      7  C   UNL     1       4.579   4.725  16.769  0.00  0.00    +0.000 A 
ATOM      8  C   UNL     1       4.056   3.478  17.141  0.00  0.00    +0.000 A 
ATOM      9  C   UNL     1       2.932   3.423  17.967  0.00  0.00    +0.000 A 
ATOM     10  C   UNL     1       2.350   4.606  18.413  0.00  0.00    +0.000 A 
ATOM     11  F   UNL     1       1.280   4.548  19.218  0.00  0.00    +0.000 F 
ATOM     12  C   UNL     1       2.874   5.840  18.035  0.00  0.00    +0.000 A 
ATOM     13  F   UNL     1       2.312   6.973  18.476  0.00  0.00    +0.000 F 
ATOM     14  C   UNL     1       3.990   5.912  17.208  0.00  0.00    +0.000 A 
ENDBRANCH   4   7
ENDBRANCH   2   4
ENDBRANCH   1   2
BRANCH   1  15
ATOM     15  C   UNL     1       8.063   6.321  18.785  0.00  0.00    +0.000 C 
BRANCH  15  17
ATOM     16  O   UNL     1       7.456   8.003  17.162  0.00  0.00    +0.000 OA
ATOM     17  C   UNL     1       8.065   7.709  18.187  0.00  0.00    +0.000 C 
ATOM     18  N   UNL     1       8.800   8.621  18.905  0.00  0.00    +0.000 N 
ATOM     19  H   UNL     1       9.261   8.339  19.761  0.00  0.00    +0.000 HD
BRANCH  18  20
ATOM     20  C   UNL     1       8.848  10.011  18.483  0.00  0.00    +0.000 C 
BRANCH  20  21
ATOM     21  C   UNL     1       9.590  10.896  19.494  0.00  0.00    +0.000 C 
BRANCH  21  22
ATOM     22  N   UNL     1       9.511  12.341  19.222  0.00  0.00    +0.000 NA
ATOM     23  C   UNL     1       9.831  12.630  17.803  0.00  0.00    +0.000 C 
ATOM     24  C   UNL     1      11.321  12.451  17.457  0.00  0.00    +0.000 C 
ATOM     25  O   UNL     1      12.159  13.241  18.310  0.00  0.00    +0.000 OA
ATOM     26  C   UNL     1      11.917  12.952  19.692  0.00  0.00    +0.000 C 
ATOM     27  C   UNL     1      10.435  13.150  20.052  0.00  0.00    +0.000 C 
ENDBRANCH  21  22
ENDBRANCH  20  21
ENDBRANCH  18  20
ENDBRANCH  15  17
ENDBRANCH   1  15
TORSDOF 8
ENDMDL
MODEL 4
REMARK VINA RESULT:      -7.2      5.196      7.101
REMARK  Name = 
REMARK  8 active torsions:
REMARK  status: ('A' for Active; 'I' for Inactive)
REMARK    1  A    between atoms: C_2  and  C_3
REMARK    2  A    between atoms: C_3  and  C_4
REMARK    3  A    between atoms: C_4  and  N_5
REMARK    4  A    between atoms: N_5  and  S_6
REMARK    5  A    between atoms: S_6  and  C_9
REMARK    6  A    between atoms: N_17  and  C_18
REMARK    7  A    between atoms: C_18  and  C_19
REMARK    8  A    between atoms: C_19  and  N_20
REMARK                            x       y       z     vdW  Elec       q    Type
REMARK                         _______ _______ _______ _____ _____    ______ ____
ROOT
ATOM      1  C   UNL     1       1.437   3.703  20.500  0.00  0.00    +0.000 C 
ENDROOT
BRANCH   1   2
ATOM      2  N   UNL     1       1.708   5.138  20.717  0.00  0.00    +0.000 NA
ATOM      3  H   UNL     1       2.195   5.386  21.579  0.00  0.00    +0.000 HD
BRANCH   2   4
ATOM      4  S   UNL     1       2.433   5.956  19.420  0.00  0.00    +0.000 S 
ATOM      5  O   UNL     1       3.856   5.940  19.665  0.00  0.00    +0.000 OA
ATOM      6  O   UNL     1       1.863   5.423  18.203  0.00  0.00    +0.000 OA
BRANCH   4   7
ATOM      7  C   UNL     1       1.863   7.618  19.646  0.00  0.00    +0.000 A 
ATOM      8  C   UNL     1       1.851   8.506  18.560  0.00  0.00    +0.000 A 
ATOM      9  C   UNL     1       1.363   9.801  18.737  0.00  0.00    +0.000 A 
ATOM     10  C   UNL     1       0.891  10.192  19.987  0.00  0.00    +0.000 A 
ATOM     11  F   UNL     1       0.409  11.432  20.149  0.00  0.00    +0.000 F 
ATOM     12  C   UNL     1       0.911   9.305  21.061  0.00  0.00    +0.000 A 
ATOM     13  F   UNL     1       0.448   9.687  22.258  0.00  0.00    +0.000 F 
ATOM     14  C   UNL     1       1.400   8.013  20.903  0.00  0.00    +0.000 A 
ENDBRANCH   4   7
ENDBRANCH   2   4
ENDBRANCH   1   2
BRANCH   1  15
ATOM     15  C   UNL     1       2.499   2.847  21.173  0.00  0.00    +0.000 C 
BRANCH  15  17
ATOM     16  O   UNL     1       4.689   2.085  20.500  0.00  0.00    +0.000 OA
ATOM     17  C   UNL     1       3.602   2.559  20.181  0.00  0.00    +0.000 C 
ATOM     18  N   UNL     1       3.272   2.861  18.882  0.00  0.00    +0.000 N 
ATOM     19  H   UNL     1       2.352   3.222  18.664  0.00  0.00    +0.000 HD
BRANCH  18  20
ATOM     20  C   UNL     1       4.212   2.583  17.810  0.00  0.00    +0.000 C 
BRANCH  20  21
ATOM     21  C   UNL     1       4.292   3.736  16.799  0.00  0.00    +0.000 C 
BRANCH  21  22
ATOM     22  N   UNL     1       5.618   3.927  16.186  0.00  0.00    +0.000 NA
ATOM     23  C   UNL     1       6.587   4.455  17.175  0.00  0.00    +0.000 C 
ATOM     24  C   UNL     1       6.340   5.927  17.557  0.00  0.00    +0.000 C 
ATOM     25  O   UNL     1       6.320   6.775  16.403  0.00  0.00    +0.000 OA
ATOM     26  C   UNL     1       5.355   6.327  15.442  0.00  0.00    +0.000 C 
ATOM     27  C   UNL     1       5.608   4.864  15.038  0.00  0.00    +0.000 C 
ENDBRANCH  21  22
ENDBRANCH  20  21
ENDBRANCH  18  20
ENDBRANCH  15  17
ENDBRANCH   1  15
TORSDOF 8
ENDMDL
MODEL 5
REMARK VINA RESULT:      -7.2      1.406      1.952
REMARK  Name = 
REMARK  8 active torsions:
REMARK  status: ('A' for Active; 'I' for Inactive)
REMARK    1  A    between atoms: C_2  and  C_3
REMARK    2  A    between atoms: C_3  and  C_4
REMARK    3  A    between atoms: C_4  and  N_5
REMARK    4  A    between atoms: N_5  and  S_6
REMARK    5  A    between atoms: S_6  and  C_9
REMARK    6  A    between atoms: N_17  and  C_18
REMARK    7  A    between atoms: C_18  and  C_19
REMARK    8  A    between atoms: C_19  and  N_20
REMARK                            x       y       z     vdW  Elec       q    Type
REMARK                         _______ _______ _______ _____ _____    ______ ____
ROOT
ATOM      1  C   UNL     1       7.532   5.039  17.632  0.00  0.00    +0.000 C 
ENDROOT
BRANCH   1   2
ATOM      2  N   UNL     1       7.319   5.711  16.335  0.00  0.00    +0.000 NA
ATOM      3  H   UNL     1       8.131   5.787  15.721  0.00  0.00    +0.000 HD
BRANCH   2   4
ATOM      4  S   UNL     1       5.993   5.164  15.430  0.00  0.00    +0.000 S 
ATOM      5  O   UNL     1       5.539   6.287  14.644  0.00  0.00    +0.000 OA
ATOM      6  O   UNL     1       6.377   3.911  14.819  0.00  0.00    +0.000 OA
BRANCH   4   7
ATOM      7  C   UNL     1       4.777   4.850  16.680  0.00  0.00    +0.000 A 
ATOM      8  C   UNL     1       4.141   5.923  17.321  0.00  0.00    +0.000 A 
ATOM      9  C   UNL     1       3.155   5.666  18.275  0.00  0.00    +0.000 A 
ATOM     10  C   UNL     1       2.814   4.350  18.572  0.00  0.00    +0.000 A 
ATOM     11  F   UNL     1       1.856   4.109  19.478  0.00  0.00    +0.000 F 
ATOM     12  C   UNL     1       3.454   3.291  17.933  0.00  0.00    +0.000 A 
ATOM     13  F   UNL     1       3.114   2.027  18.220  0.00  0.00    +0.000 F 
ATOM     14  C   UNL     1       4.442   3.529  16.985  0.00  0.00    +0.000 A 
ENDBRANCH   4   7
ENDBRANCH   2   4
ENDBRANCH   1   2
BRANCH   1  15
ATOM     15  C   UNL     1       7.660   6.060  18.753  0.00  0.00    +0.000 C 
BRANCH  15  17
ATOM     16  O   UNL     1       7.070   7.804  17.191  0.00  0.00    +0.000 OA
ATOM     17  C   UNL     1       7.746   7.444  18.151  0.00  0.00    +0.000 C 
ATOM     18  N   UNL     1       8.639   8.271  18.787  0.00  0.00    +0.000 N 
ATOM     19  H   UNL     1       9.152   7.938  19.593  0.00  0.00    +0.000 HD
BRANCH  18  20
ATOM     20  C   UNL     1       8.787   9.650  18.356  0.00  0.00    +0.000 C 
BRANCH  20  21
ATOM     21  C   UNL     1       9.372  10.541  19.461  0.00  0.00    +0.000 C 
BRANCH  21  22
ATOM     22  N   UNL     1      10.691  11.120  19.153  0.00  0.00    +0.000 NA
ATOM     23  C   UNL     1      11.093  12.100  20.190  0.00  0.00    +0.000 C 
ATOM     24  C   UNL     1      10.291  13.414  20.142  0.00  0.00    +0.000 C 
ATOM     25  O   UNL     1      10.360  14.027  18.849  0.00  0.00    +0.000 OA
ATOM     26  C   UNL     1       9.928  13.126  17.821  0.00  0.00    +0.000 C 
ATOM     27  C   UNL     1      10.738  11.819  17.847  0.00  0.00    +0.000 C 
ENDBRANCH  21  22
ENDBRANCH  20  21
ENDBRANCH  18  20
ENDBRANCH  15  17
ENDBRANCH   1  15
TORSDOF 8
ENDMDL
MODEL 6
REMARK VINA RESULT:      -7.2      1.116      1.430
REMARK  Name = 
REMARK  8 active torsions:
REMARK  status: ('A' for Active; 'I' for Inactive)
REMARK    1  A    between atoms: C_2  and  C_3
REMARK    2  A    between atoms: C_3  and  C_4
REMARK    3  A    between atoms: C_4  and  N_5
REMARK    4  A    between atoms: N_5  and  S_6
REMARK    5  A    between atoms: S_6  and  C_9
REMARK    6  A    between atoms: N_17  and  C_18
REMARK    7  A    between atoms: C_18  and  C_19
REMARK    8  A    between atoms: C_19  and  N_20
REMARK                            x       y       z     vdW  Elec       q    Type
REMARK                         _______ _______ _______ _____ _____    ______ ____
ROOT
ATOM      1  C   UNL     1       6.587   5.628  19.117  0.00  0.00    +0.000 C 
ENDROOT
BRANCH   1   2
ATOM      2  N   UNL     1       6.050   4.903  17.948  0.00  0.00    +0.000 NA
ATOM      3  H   UNL     1       5.905   3.899  18.059  0.00  0.00    +0.000 HD
BRANCH   2   4
ATOM      4  S   UNL     1       4.673   5.583  17.229  0.00  0.00    +0.000 S 
ATOM      5  O   UNL     1       4.456   6.857  17.873  0.00  0.00    +0.000 OA
ATOM      6  O   UNL     1       4.836   5.471  15.797  0.00  0.00    +0.000 OA
BRANCH   4   7
ATOM      7  C   UNL     1       3.384   4.485  17.751  0.00  0.00    +0.000 A 
ATOM      8  C   UNL     1       3.292   3.201  17.196  0.00  0.00    +0.000 A 
ATOM      9  C   UNL     1       2.299   2.328  17.642  0.00  0.00    +0.000 A 
ATOM     10  C   UNL     1       1.416   2.744  18.636  0.00  0.00    +0.000 A 
ATOM     11  F   UNL     1       0.473   1.897  19.071  0.00  0.00    +0.000 F 
ATOM     12  C   UNL     1       1.512   4.023  19.178  0.00  0.00    +0.000 A 
ATOM     13  F   UNL     1       0.663   4.412  20.139  0.00  0.00    +0.000 F 
ATOM     14  C   UNL     1       2.492   4.906  18.740  0.00  0.00    +0.000 A 
ENDBRANCH   4   7
ENDBRANCH   2   4
ENDBRANCH   1   2
BRANCH   1  15
ATOM     15  C   UNL     1       8.011   6.093  18.855  0.00  0.00    +0.000 C 
BRANCH  15  17
ATOM     16  O   UNL     1       7.552   7.445  16.907  0.00  0.00    +0.000 OA
ATOM     17  C   UNL     1       7.971   7.378  18.060  0.00  0.00    +0.000 C 
ATOM     18  N   UNL     1       8.431   8.472  18.750  0.00  0.00    +0.000 N 
ATOM     19  H   UNL     1       8.738   8.373  19.710  0.00  0.00    +0.000 HD
BRANCH  18  20
ATOM     20  C   UNL     1       8.399   9.788  18.134  0.00  0.00    +0.000 C 
BRANCH  20  21
ATOM     21  C   UNL     1       9.800  10.406  18.020  0.00  0.00    +0.000 C 
BRANCH  21  22
ATOM     22  N   UNL     1       9.853  11.859  18.259  0.00  0.00    +0.000 NA
ATOM     23  C   UNL     1      11.252  12.349  18.220  0.00  0.00    +0.000 C 
ATOM     24  C   UNL     1      12.090  11.924  19.441  0.00  0.00    +0.000 C 
ATOM     25  O   UNL     1      11.472  12.326  20.670  0.00  0.00    +0.000 OA
ATOM     26  C   UNL     1      10.132  11.826  20.769  0.00  0.00    +0.000 C 
ATOM     27  C   UNL     1       9.282  12.264  19.565  0.00  0.00    +0.000 C 
ENDBRANCH  21  22
ENDBRANCH  20  21
ENDBRANCH  18  20
ENDBRANCH  15  17
ENDBRANCH   1  15
TORSDOF 8
ENDMDL
MODEL 7
REMARK VINA RESULT:      -7.1      2.535      3.210
REMARK  Name = 
REMARK  8 active torsions:
REMARK  status: ('A' for Active; 'I' for Inactive)
REMARK    1  A    between atoms: C_2  and  C_3
REMARK    2  A    between atoms: C_3  and  C_4
REMARK    3  A    between atoms: C_4  and  N_5
REMARK    4  A    between atoms: N_5  and  S_6
REMARK    5  A    between atoms: S_6  and  C_9
REMARK    6  A    between atoms: N_17  and  C_18
REMARK    7  A    between atoms: C_18  and  C_19
REMARK    8  A    between atoms: C_19  and  N_20
REMARK                            x       y       z     vdW  Elec       q    Type
REMARK                         _______ _______ _______ _____ _____    ______ ____
ROOT
ATOM      1  C   UNL     1       6.240   5.498  19.011  0.00  0.00    +0.000 C 
ENDROOT
BRANCH   1   2
ATOM      2  N   UNL     1       5.120   5.942  18.159  0.00  0.00    +0.000 NA
ATOM      3  H   UNL     1       5.220   5.792  17.155  0.00  0.00    +0.000 HD
BRANCH   2   4
ATOM      4  S   UNL     1       3.578   5.423  18.641  0.00  0.00    +0.000 S 
ATOM      5  O   UNL     1       2.986   4.771  17.497  0.00  0.00    +0.000 OA
ATOM      6  O   UNL     1       3.729   4.748  19.910  0.00  0.00    +0.000 OA
BRANCH   4   7
ATOM      7  C   UNL     1       2.719   6.952  18.898  0.00  0.00    +0.000 A 
ATOM      8  C   UNL     1       2.633   7.887  17.857  0.00  0.00    +0.000 A 
ATOM      9  C   UNL     1       1.920   9.071  18.054  0.00  0.00    +0.000 A 
ATOM     10  C   UNL     1       1.301   9.303  19.280  0.00  0.00    +0.000 A 
ATOM     11  F   UNL     1       0.606  10.434  19.460  0.00  0.00    +0.000 F 
ATOM     12  C   UNL     1       1.397   8.370  20.309  0.00  0.00    +0.000 A 
ATOM     13  F   UNL     1       0.792   8.599  21.483  0.00  0.00    +0.000 F 
ATOM     14  C   UNL     1       2.108   7.189  20.131  0.00  0.00    +0.000 A 
ENDBRANCH   4   7
ENDBRANCH   2   4
ENDBRANCH   1   2
BRANCH   1  15
ATOM     15  C   UNL     1       7.573   5.745  18.318  0.00  0.00    +0.000 C 
BRANCH  15  17
ATOM     16  O   UNL     1       6.979   7.592  16.880  0.00  0.00    +0.000 OA
ATOM     17  C   UNL     1       7.622   7.178  17.842  0.00  0.00    +0.000 C 
ATOM     18  N   UNL     1       8.442   7.985  18.593  0.00  0.00    +0.000 N 
ATOM     19  H   UNL     1       8.928   7.604  19.395  0.00  0.00    +0.000 HD
BRANCH  18  20
ATOM     20  C   UNL     1       8.546   9.401  18.289  0.00  0.00    +0.000 C 
BRANCH  20  21
ATOM     21  C   UNL     1       9.232  10.185  19.417  0.00  0.00    +0.000 C 
BRANCH  21  22
ATOM     22  N   UNL     1      10.305  11.091  18.974  0.00  0.00    +0.000 NA
ATOM     23  C   UNL     1      10.843  11.870  20.115  0.00  0.00    +0.000 C 
ATOM     24  C   UNL     1       9.879  12.954  20.632  0.00  0.00    +0.000 C 
ATOM     25  O   UNL     1       9.478  13.847  19.585  0.00  0.00    +0.000 OA
ATOM     26  C   UNL     1       8.903  13.134  18.483  0.00  0.00    +0.000 C 
ATOM     27  C   UNL     1       9.869  12.064  17.945  0.00  0.00    +0.000 C 
ENDBRANCH  21  22
ENDBRANCH  20  21
ENDBRANCH  18  20
ENDBRANCH  15  17
ENDBRANCH   1  15
TORSDOF 8
ENDMDL
MODEL 8
REMARK VINA RESULT:      -7.1      2.582      3.164
REMARK  Name = 
REMARK  8 active torsions:
REMARK  status: ('A' for Active; 'I' for Inactive)
REMARK    1  A    between atoms: C_2  and  C_3
REMARK    2  A    between atoms: C_3  and  C_4
REMARK    3  A    between atoms: C_4  and  N_5
REMARK    4  A    between atoms: N_5  and  S_6
REMARK    5  A    between atoms: S_6  and  C_9
REMARK    6  A    between atoms: N_17  and  C_18
REMARK    7  A    between atoms: C_18  and  C_19
REMARK    8  A    between atoms: C_19  and  N_20
REMARK                            x       y       z     vdW  Elec       q    Type
REMARK                         _______ _______ _______ _____ _____    ______ ____
ROOT
ATOM      1  C   UNL     1       6.514   4.894  18.276  0.00  0.00    +0.000 C 
ENDROOT
BRANCH   1   2
ATOM      2  N   UNL     1       5.212   5.320  18.825  0.00  0.00    +0.000 NA
ATOM      3  H   UNL     1       5.220   6.129  19.447  0.00  0.00    +0.000 HD
BRANCH   2   4
ATOM      4  S   UNL     1       3.961   5.507  17.694  0.00  0.00    +0.000 S 
ATOM      5  O   UNL     1       4.561   6.054  16.501  0.00  0.00    +0.000 OA
ATOM      6  O   UNL     1       3.212   4.270  17.673  0.00  0.00    +0.000 OA
BRANCH   4   7
ATOM      7  C   UNL     1       2.964   6.774  18.429  0.00  0.00    +0.000 A 
ATOM      8  C   UNL     1       2.513   6.631  19.749  0.00  0.00    +0.000 A 
ATOM      9  C   UNL     1       1.763   7.652  20.333  0.00  0.00    +0.000 A 
ATOM     10  C   UNL     1       1.476   8.800  19.599  0.00  0.00    +0.000 A 
ATOM     11  F   UNL     1       0.767   9.784  20.169  0.00  0.00    +0.000 F 
ATOM     12  C   UNL     1       1.924   8.931  18.286  0.00  0.00    +0.000 A 
ATOM     13  F   UNL     1       1.650  10.042  17.590  0.00  0.00    +0.000 F 
ATOM     14  C   UNL     1       2.668   7.921  17.688  0.00  0.00    +0.000 A 
ENDBRANCH   4   7
ENDBRANCH   2   4
ENDBRANCH   1   2
BRANCH   1  15
ATOM     15  C   UNL     1       7.646   5.713  18.879  0.00  0.00    +0.000 C 
BRANCH  15  17
ATOM     16  O   UNL     1       7.431   7.124  16.931  0.00  0.00    +0.000 OA
ATOM     17  C   UNL     1       7.794   6.998  18.098  0.00  0.00    +0.000 C 
ATOM     18  N   UNL     1       8.359   8.023  18.818  0.00  0.00    +0.000 N 
ATOM     19  H   UNL     1       8.614   7.880  19.787  0.00  0.00    +0.000 HD
BRANCH  18  20
ATOM     20  C   UNL     1       8.512   9.336  18.217  0.00  0.00    +0.000 C 
BRANCH  20  21
ATOM     21  C   UNL     1       9.338  10.283  19.100  0.00  0.00    +0.000 C 
BRANCH  21  22
ATOM     22  N   UNL     1       9.595  11.608  18.510  0.00  0.00    +0.000 NA
ATOM     23  C   UNL     1      10.977  11.690  17.978  0.00  0.00    +0.000 C 
ATOM     24  C   UNL     1      12.058  11.754  19.074  0.00  0.00    +0.000 C 
ATOM     25  O   UNL     1      11.825  12.839  19.981  0.00  0.00    +0.000 OA
ATOM     26  C   UNL     1      10.515  12.766  20.558  0.00  0.00    +0.000 C 
ATOM     27  C   UNL     1       9.428  12.724  19.471  0.00  0.00    +0.000 C 
ENDBRANCH  21  22
ENDBRANCH  20  21
ENDBRANCH  18  20
ENDBRANCH  15  17
ENDBRANCH   1  15
TORSDOF 8
ENDMDL
MODEL 9
REMARK VINA RESULT:      -7.1      2.382      3.296
REMARK  Name = 
REMARK  8 active torsions:
REMARK  status: ('A' for Active; 'I' for Inactive)
REMARK    1  A    between atoms: C_2  and  C_3
REMARK    2  A    between atoms: C_3  and  C_4
REMARK    3  A    between atoms: C_4  and  N_5
REMARK    4  A    between atoms: N_5  and  S_6
REMARK    5  A    between atoms: S_6  and  C_9
REMARK    6  A    between atoms: N_17  and  C_18
REMARK    7  A    between atoms: C_18  and  C_19
REMARK    8  A    between atoms: C_19  and  N_20
REMARK                            x       y       z     vdW  Elec       q    Type
REMARK                         _______ _______ _______ _____ _____    ______ ____
ROOT
ATOM      1  C   UNL     1       8.175   7.838  18.300  0.00  0.00    +0.000 C 
ENDROOT
BRANCH   1   2
ATOM      2  N   UNL     1       7.488   6.905  17.386  0.00  0.00    +0.000 NA
ATOM      3  H   UNL     1       7.839   6.858  16.429  0.00  0.00    +0.000 HD
BRANCH   2   4
ATOM      4  S   UNL     1       7.272   5.327  17.971  0.00  0.00    +0.000 S 
ATOM      5  O   UNL     1       7.916   4.445  17.027  0.00  0.00    +0.000 OA
ATOM      6  O   UNL     1       7.627   5.335  19.372  0.00  0.00    +0.000 OA
BRANCH   4   7
ATOM      7  C   UNL     1       5.521   5.096  17.819  0.00  0.00    +0.000 A 
ATOM      8  C   UNL     1       5.001   3.808  17.630  0.00  0.00    +0.000 A 
ATOM      9  C   UNL     1       3.619   3.630  17.553  0.00  0.00    +0.000 A 
ATOM     10  C   UNL     1       2.777   4.733  17.669  0.00  0.00    +0.000 A 
ATOM     11  F   UNL     1       1.450   4.555  17.609  0.00  0.00    +0.000 F 
ATOM     12  C   UNL     1       3.304   6.009  17.852  0.00  0.00    +0.000 A 
ATOM     13  F   UNL     1       2.486   7.064  17.971  0.00  0.00    +0.000 F 
ATOM     14  C   UNL     1       4.678   6.204  17.926  0.00  0.00    +0.000 A 
ENDBRANCH   4   7
ENDBRANCH   2   4
ENDBRANCH   1   2
BRANCH   1  15
ATOM     15  C   UNL     1       8.072   9.267  17.787  0.00  0.00    +0.000 C 
BRANCH  15  17
ATOM     16  O   UNL     1       9.263   9.985  19.761  0.00  0.00    +0.000 OA
ATOM     17  C   UNL     1       9.029  10.140  18.565  0.00  0.00    +0.000 C 
ATOM     18  N   UNL     1       9.628  11.118  17.809  0.00  0.00    +0.000 N 
ATOM     19  H   UNL     1       9.426  11.187  16.819  0.00  0.00    +0.000 HD
BRANCH  18  20
ATOM     20  C   UNL     1      10.616  11.998  18.408  0.00  0.00    +0.000 C 
BRANCH  20  21
ATOM     21  C   UNL     1      10.638  13.381  17.741  0.00  0.00    +0.000 C 
BRANCH  21  22
ATOM     22  N   UNL     1      10.214  14.491  18.610  0.00  0.00    +0.000 NA
ATOM     23  C   UNL     1       9.565  15.564  17.819  0.00  0.00    +0.000 C 
ATOM     24  C   UNL     1      10.547  16.368  16.946  0.00  0.00    +0.000 C 
ATOM     25  O   UNL     1      11.613  16.923  17.726  0.00  0.00    +0.000 OA
ATOM     26  C   UNL     1      12.301  15.908  18.468  0.00  0.00    +0.000 C 
ATOM     27  C   UNL     1      11.331  15.114  19.359  0.00  0.00    +0.000 C 
ENDBRANCH  21  22
ENDBRANCH  20  21
ENDBRANCH  18  20
ENDBRANCH  15  17
ENDBRANCH   1  15
TORSDOF 8
ENDMDL
