MODEL 1
REMARK VINA RESULT:      -9.1      0.000      0.000
REMARK  Name = 
REMARK  6 active torsions:
REMARK  status: ('A' for Active; 'I' for Inactive)
REMARK    1  A    between atoms: C_1  and  N_2
REMARK    2  A    between atoms: C_3  and  C_5
REMARK    3  A    between atoms: C_8  and  N_9
REMARK    4  A    between atoms: C_13  and  C_14
REMARK    5  A    between atoms: C_18  and  N_19
REMARK    6  A    between atoms: N_19  and  C_20
REMARK                            x       y       z     vdW  Elec       q    Type
REMARK                         _______ _______ _______ _____ _____    ______ ____
ROOT
ATOM      1  N   UNL     1       6.035   5.177  17.675  0.00  0.00    +0.000 N 
ATOM      2  C   UNL     1       4.898   4.767  18.360  0.00  0.00    +0.000 A 
ATOM      3  N   UNL     1       4.685   3.455  18.420  0.00  0.00    +0.000 NA
ATOM      4  C   UNL     1       3.669   3.055  19.194  0.00  0.00    +0.000 A 
ATOM      5  C   UNL     1       2.859   3.904  19.924  0.00  0.00    +0.000 A 
ATOM      6  C   UNL     1       3.127   5.248  19.797  0.00  0.00    +0.000 A 
ATOM      7  N   UNL     1       4.122   5.653  19.003  0.00  0.00    +0.000 NA
ATOM      8  H   UNL     1       6.574   4.347  17.463  0.00  0.00    +0.000 HD
ENDROOT
BRANCH   1  12
ATOM      9  C   UNL     1       8.297   8.675  18.345  0.00  0.00    +0.000 A 
ATOM     10  C   UNL     1       8.561   7.501  19.066  0.00  0.00    +0.000 A 
ATOM     11  C   UNL     1       7.813   6.345  18.816  0.00  0.00    +0.000 A 
ATOM     12  C   UNL     1       6.782   6.351  17.872  0.00  0.00    +0.000 A 
ATOM     13  C   UNL     1       6.560   7.521  17.143  0.00  0.00    +0.000 A 
ATOM     14  C   UNL     1       7.293   8.683  17.385  0.00  0.00    +0.000 A 
BRANCH   9  17
ATOM     15  C   UNL     1      10.036  11.367  20.335  0.00  0.00    +0.000 C 
ATOM     16  N   UNL     1       9.334  10.174  19.948  0.00  0.00    +0.000 N 
ATOM     17  C   UNL     1       9.125   9.881  18.616  0.00  0.00    +0.000 C 
ATOM     18  O   UNL     1       9.545  10.563  17.697  0.00  0.00    +0.000 OA
ATOM     19  H   UNL     1       8.898   9.626  20.673  0.00  0.00    +0.000 HD
ENDBRANCH   9  17
ENDBRANCH   1  12
BRANCH   5  20
ATOM     20  C   UNL     1       1.772   3.331  20.753  0.00  0.00    +0.000 C 
ATOM     21  F   UNL     1       1.993   3.474  22.092  0.00  0.00    +0.000 F 
ATOM     22  F   UNL     1       0.565   3.917  20.521  0.00  0.00    +0.000 F 
ATOM     23  F   UNL     1       1.589   1.998  20.558  0.00  0.00    +0.000 F 
ENDBRANCH   5  20
BRANCH   6  24
ATOM     24  N   UNL     1       2.366   6.242  20.435  0.00  0.00    +0.000 N 
ATOM     25  H   UNL     1       2.311   6.168  21.444  0.00  0.00    +0.000 HD
BRANCH  24  26
ATOM     26  C   UNL     1       1.982   7.508  19.932  0.00  0.00    +0.000 A 
ATOM     27  C   UNL     1       2.184   7.854  18.585  0.00  0.00    +0.000 A 
ATOM     28  C   UNL     1       1.608   9.006  18.042  0.00  0.00    +0.000 A 
ATOM     29  C   UNL     1       0.862   9.844  18.856  0.00  0.00    +0.000 A 
ATOM     30  F   UNL     1       0.234  10.900  18.322  0.00  0.00    +0.000 F 
ATOM     31  C   UNL     1       0.748   9.591  20.218  0.00  0.00    +0.000 A 
ATOM     32  C   UNL     1       1.325   8.435  20.758  0.00  0.00    +0.000 A 
ENDBRANCH  24  26
ENDBRANCH   6  24
TORSDOF 5
ENDMDL
MODEL 2
REMARK VINA RESULT:      -9.0      0.159      1.142
REMARK  Name = 
REMARK  6 active torsions:
REMARK  status: ('A' for Active; 'I' for Inactive)
REMARK    1  A    between atoms: C_1  and  N_2
REMARK    2  A    between atoms: C_3  and  C_5
REMARK    3  A    between atoms: C_8  and  N_9
REMARK    4  A    between atoms: C_13  and  C_14
REMARK    5  A    between atoms: C_18  and  N_19
REMARK    6  A    between atoms: N_19  and  C_20
REMARK                            x       y       z     vdW  Elec       q    Type
REMARK                         _______ _______ _______ _____ _____    ______ ____
ROOT
ATOM      1  N   UNL     1       6.038   5.012  17.790  0.00  0.00    +0.000 N 
ATOM      2  C   UNL     1       4.876   4.621  18.443  0.00  0.00    +0.000 A 
ATOM      3  N   UNL     1       4.634   3.313  18.488  0.00  0.00    +0.000 NA
ATOM      4  C   UNL     1       3.591   2.930  19.234  0.00  0.00    +0.000 A 
ATOM      5  C   UNL     1       2.779   3.791  19.948  0.00  0.00    +0.000 A 
ATOM      6  C   UNL     1       3.078   5.130  19.837  0.00  0.00    +0.000 A 
ATOM      7  N   UNL     1       4.102   5.519  19.071  0.00  0.00    +0.000 NA
ATOM      8  H   UNL     1       6.565   4.172  17.586  0.00  0.00    +0.000 HD
ENDROOT
BRANCH   1  12
ATOM      9  C   UNL     1       8.317   8.512  18.382  0.00  0.00    +0.000 A 
ATOM     10  C   UNL     1       7.290   8.479  17.427  0.00  0.00    +0.000 A 
ATOM     11  C   UNL     1       6.532   7.315  17.259  0.00  0.00    +0.000 A 
ATOM     12  C   UNL     1       6.804   6.169  18.013  0.00  0.00    +0.000 A 
ATOM     13  C   UNL     1       7.808   6.237  18.980  0.00  0.00    +0.000 A 
ATOM     14  C   UNL     1       8.577   7.388  19.156  0.00  0.00    +0.000 A 
BRANCH   9  17
ATOM     15  C   UNL     1      10.053  11.353  20.156  0.00  0.00    +0.000 C 
ATOM     16  N   UNL     1       9.394  10.112  19.857  0.00  0.00    +0.000 N 
ATOM     17  C   UNL     1       9.091   9.772  18.555  0.00  0.00    +0.000 C 
ATOM     18  O   UNL     1       9.391  10.451  17.588  0.00  0.00    +0.000 OA
ATOM     19  H   UNL     1       9.054   9.559  20.629  0.00  0.00    +0.000 HD
ENDBRANCH   9  17
ENDBRANCH   1  12
BRANCH   5  20
ATOM     20  C   UNL     1       1.661   3.236  20.746  0.00  0.00    +0.000 C 
ATOM     21  F   UNL     1       1.481   1.898  20.551  0.00  0.00    +0.000 F 
ATOM     22  F   UNL     1       1.841   3.387  22.087  0.00  0.00    +0.000 F 
ATOM     23  F   UNL     1       0.459   3.806  20.461  0.00  0.00    +0.000 F 
ENDBRANCH   5  20
BRANCH   6  24
ATOM     24  N   UNL     1       2.322   6.135  20.461  0.00  0.00    +0.000 N 
ATOM     25  H   UNL     1       2.230   6.050  21.467  0.00  0.00    +0.000 HD
BRANCH  24  26
ATOM     26  C   UNL     1       1.989   7.418  19.963  0.00  0.00    +0.000 A 
ATOM     27  C   UNL     1       2.226   7.767  18.624  0.00  0.00    +0.000 A 
ATOM     28  C   UNL     1       1.698   8.942  18.080  0.00  0.00    +0.000 A 
ATOM     29  C   UNL     1       0.967   9.799  18.889  0.00  0.00    +0.000 A 
ATOM     30  F   UNL     1       0.383  10.879  18.353  0.00  0.00    +0.000 F 
ATOM     31  C   UNL     1       0.820   9.538  20.246  0.00  0.00    +0.000 A 
ATOM     32  C   UNL     1       1.348   8.359  20.786  0.00  0.00    +0.000 A 
ENDBRANCH  24  26
ENDBRANCH   6  24
TORSDOF 5
ENDMDL
MODEL 3
REMARK VINA RESULT:      -8.9      0.231      1.459
REMARK  Name = 
REMARK  6 active torsions:
REMARK  status: ('A' for Active; 'I' for Inactive)
REMARK    1  A    between atoms: C_1  and  N_2
REMARK    2  A    between atoms: C_3  and  C_5
REMARK    3  A    between atoms: C_8  and  N_9
REMARK    4  A    between atoms: C_13  and  C_14
REMARK    5  A    between atoms: C_18  and  N_19
REMARK    6  A    between atoms: N_19  and  C_20
REMARK                            x       y       z     vdW  Elec       q    Type
REMARK                         _______ _______ _______ _____ _____    ______ ____
ROOT
ATOM      1  N   UNL     1       6.008   5.160  17.685  0.00  0.00    +0.000 N 
ATOM      2  C   UNL     1       4.867   4.742  18.360  0.00  0.00    +0.000 A 
ATOM      3  N   UNL     1       4.613   3.436  18.339  0.00  0.00    +0.000 NA
ATOM      4  C   UNL     1       3.595   3.019  19.101  0.00  0.00    +0.000 A 
ATOM      5  C   UNL     1       2.821   3.845  19.895  0.00  0.00    +0.000 A 
ATOM      6  C   UNL     1       3.130   5.185  19.849  0.00  0.00    +0.000 A 
ATOM      7  N   UNL     1       4.127   5.610  19.068  0.00  0.00    +0.000 NA
ATOM      8  H   UNL     1       6.518   4.329  17.414  0.00  0.00    +0.000 HD
ENDROOT
BRANCH   1  12
ATOM      9  C   UNL     1       8.348   8.599  18.388  0.00  0.00    +0.000 A 
ATOM     10  C   UNL     1       7.312   8.618  17.442  0.00  0.00    +0.000 A 
ATOM     11  C   UNL     1       6.534   7.474  17.238  0.00  0.00    +0.000 A 
ATOM     12  C   UNL     1       6.794   6.296  17.945  0.00  0.00    +0.000 A 
ATOM     13  C   UNL     1       7.808   6.311  18.904  0.00  0.00    +0.000 A 
ATOM     14  C   UNL     1       8.597   7.442  19.117  0.00  0.00    +0.000 A 
BRANCH   9  17
ATOM     15  C   UNL     1      10.073  11.390  20.252  0.00  0.00    +0.000 C 
ATOM     16  N   UNL     1       9.397  10.166  19.917  0.00  0.00    +0.000 N 
ATOM     17  C   UNL     1       9.144   9.839  18.601  0.00  0.00    +0.000 C 
ATOM     18  O   UNL     1       9.502  10.515  17.652  0.00  0.00    +0.000 OA
ATOM     19  H   UNL     1       9.011   9.619  20.671  0.00  0.00    +0.000 HD
ENDBRANCH   9  17
ENDBRANCH   1  12
BRANCH   5  20
ATOM     20  C   UNL     1       1.727   3.255  20.701  0.00  0.00    +0.000 C 
ATOM     21  F   UNL     1       0.523   3.860  20.489  0.00  0.00    +0.000 F 
ATOM     22  F   UNL     1       1.522   1.935  20.430  0.00  0.00    +0.000 F 
ATOM     23  F   UNL     1       1.940   3.335  22.042  0.00  0.00    +0.000 F 
ENDBRANCH   5  20
BRANCH   6  24
ATOM     24  N   UNL     1       2.408   6.160  20.559  0.00  0.00    +0.000 N 
ATOM     25  H   UNL     1       2.519   6.135  21.566  0.00  0.00    +0.000 HD
BRANCH  24  26
ATOM     26  C   UNL     1       1.860   7.370  20.072  0.00  0.00    +0.000 A 
ATOM     27  C   UNL     1       1.145   8.241  20.910  0.00  0.00    +0.000 A 
ATOM     28  C   UNL     1       0.801   9.528  20.489  0.00  0.00    +0.000 A 
ATOM     29  C   UNL     1       1.131   9.937  19.206  0.00  0.00    +0.000 A 
ATOM     30  F   UNL     1       0.884  11.198  18.827  0.00  0.00    +0.000 F 
ATOM     31  C   UNL     1       1.730   9.055  18.314  0.00  0.00    +0.000 A 
ATOM     32  C   UNL     1       2.075   7.767  18.741  0.00  0.00    +0.000 A 
ENDBRANCH  24  26
ENDBRANCH   6  24
TORSDOF 5
ENDMDL
MODEL 4
REMARK VINA RESULT:      -8.8      3.365      6.005
REMARK  Name = 
REMARK  6 active torsions:
REMARK  status: ('A' for Active; 'I' for Inactive)
REMARK    1  A    between atoms: C_1  and  N_2
REMARK    2  A    between atoms: C_3  and  C_5
REMARK    3  A    between atoms: C_8  and  N_9
REMARK    4  A    between atoms: C_13  and  C_14
REMARK    5  A    between atoms: C_18  and  N_19
REMARK    6  A    between atoms: N_19  and  C_20
REMARK                            x       y       z     vdW  Elec       q    Type
REMARK                         _______ _______ _______ _____ _____    ______ ____
ROOT
ATOM      1  N   UNL     1       1.297   7.221  20.935  0.00  0.00    +0.000 N 
ATOM      2  C   UNL     1       1.796   6.048  20.381  0.00  0.00    +0.000 A 
ATOM      3  N   UNL     1       1.239   4.913  20.798  0.00  0.00    +0.000 NA
ATOM      4  C   UNL     1       1.623   3.799  20.164  0.00  0.00    +0.000 A 
ATOM      5  C   UNL     1       2.532   3.762  19.124  0.00  0.00    +0.000 A 
ATOM      6  C   UNL     1       3.080   4.971  18.762  0.00  0.00    +0.000 A 
ATOM      7  N   UNL     1       2.721   6.083  19.410  0.00  0.00    +0.000 NA
ATOM      8  H   UNL     1       0.475   6.973  21.472  0.00  0.00    +0.000 HD
ENDROOT
BRANCH   1  12
ATOM      9  C   UNL     1       1.208  11.103  19.286  0.00  0.00    +0.000 A 
ATOM     10  C   UNL     1       0.911  10.892  20.641  0.00  0.00    +0.000 A 
ATOM     11  C   UNL     1       0.965   9.600  21.174  0.00  0.00    +0.000 A 
ATOM     12  C   UNL     1       1.286   8.505  20.365  0.00  0.00    +0.000 A 
ATOM     13  C   UNL     1       1.610   8.743  19.029  0.00  0.00    +0.000 A 
ATOM     14  C   UNL     1       1.555  10.025  18.480  0.00  0.00    +0.000 A 
BRANCH   9  17
ATOM     15  C   UNL     1       2.419  14.563  18.396  0.00  0.00    +0.000 C 
ATOM     16  N   UNL     1       2.358  13.183  18.794  0.00  0.00    +0.000 N 
ATOM     17  C   UNL     1       1.165  12.491  18.752  0.00  0.00    +0.000 C 
ATOM     18  O   UNL     1       0.119  12.965  18.344  0.00  0.00    +0.000 OA
ATOM     19  H   UNL     1       3.178  12.776  19.216  0.00  0.00    +0.000 HD
ENDBRANCH   9  17
ENDBRANCH   1  12
BRANCH   5  20
ATOM     20  C   UNL     1       2.864   2.460  18.499  0.00  0.00    +0.000 C 
ATOM     21  F   UNL     1       2.187   1.415  19.056  0.00  0.00    +0.000 F 
ATOM     22  F   UNL     1       2.565   2.419  17.171  0.00  0.00    +0.000 F 
ATOM     23  F   UNL     1       4.180   2.132  18.600  0.00  0.00    +0.000 F 
ENDBRANCH   5  20
BRANCH   6  24
ATOM     24  N   UNL     1       4.053   5.097  17.756  0.00  0.00    +0.000 N 
ATOM     25  H   UNL     1       3.706   5.042  16.805  0.00  0.00    +0.000 HD
BRANCH  24  26
ATOM     26  C   UNL     1       5.354   5.646  17.860  0.00  0.00    +0.000 A 
ATOM     27  C   UNL     1       5.748   6.749  17.085  0.00  0.00    +0.000 A 
ATOM     28  C   UNL     1       6.944   7.425  17.347  0.00  0.00    +0.000 A 
ATOM     29  C   UNL     1       7.775   6.971  18.359  0.00  0.00    +0.000 A 
ATOM     30  F   UNL     1       8.877   7.666  18.674  0.00  0.00    +0.000 F 
ATOM     31  C   UNL     1       7.470   5.811  19.061  0.00  0.00    +0.000 A 
ATOM     32  C   UNL     1       6.270   5.139  18.797  0.00  0.00    +0.000 A 
ENDBRANCH  24  26
ENDBRANCH   6  24
TORSDOF 5
ENDMDL
MODEL 5
REMARK VINA RESULT:      -8.7      0.797      1.058
REMARK  Name = 
REMARK  6 active torsions:
REMARK  status: ('A' for Active; 'I' for Inactive)
REMARK    1  A    between atoms: C_1  and  N_2
REMARK    2  A    between atoms: C_3  and  C_5
REMARK    3  A    between atoms: C_8  and  N_9
REMARK    4  A    between atoms: C_13  and  C_14
REMARK    5  A    between atoms: C_18  and  N_19
REMARK    6  A    between atoms: N_19  and  C_20
REMARK                            x       y       z     vdW  Elec       q    Type
REMARK                         _______ _______ _______ _____ _____    ______ ____
ROOT
ATOM      1  N   UNL     1       6.046   5.396  17.504  0.00  0.00    +0.000 N 
ATOM      2  C   UNL     1       4.901   4.955  18.157  0.00  0.00    +0.000 A 
ATOM      3  N   UNL     1       4.673   3.644  18.130  0.00  0.00    +0.000 NA
ATOM      4  C   UNL     1       3.649   3.206  18.872  0.00  0.00    +0.000 A 
ATOM      5  C   UNL     1       2.844   4.015  19.652  0.00  0.00    +0.000 A 
ATOM      6  C   UNL     1       3.127   5.362  19.613  0.00  0.00    +0.000 A 
ATOM      7  N   UNL     1       4.131   5.806  18.851  0.00  0.00    +0.000 NA
ATOM      8  H   UNL     1       6.577   4.575  17.242  0.00  0.00    +0.000 HD
ENDROOT
BRANCH   1  12
ATOM      9  C   UNL     1       8.344   8.816  18.409  0.00  0.00    +0.000 A 
ATOM     10  C   UNL     1       8.606   7.589  19.037  0.00  0.00    +0.000 A 
ATOM     11  C   UNL     1       7.847   6.461  18.709  0.00  0.00    +0.000 A 
ATOM     12  C   UNL     1       6.804   6.546  17.780  0.00  0.00    +0.000 A 
ATOM     13  C   UNL     1       6.584   7.769  17.144  0.00  0.00    +0.000 A 
ATOM     14  C   UNL     1       7.329   8.904  17.464  0.00  0.00    +0.000 A 
BRANCH   9  17
ATOM     15  C   UNL     1      10.519  11.857  17.902  0.00  0.00    +0.000 C 
ATOM     16  N   UNL     1       9.623  10.752  17.696  0.00  0.00    +0.000 N 
ATOM     17  C   UNL     1       9.184   9.993  18.761  0.00  0.00    +0.000 C 
ATOM     18  O   UNL     1       9.475  10.221  19.922  0.00  0.00    +0.000 OA
ATOM     19  H   UNL     1       9.423  10.477  16.746  0.00  0.00    +0.000 HD
ENDBRANCH   9  17
ENDBRANCH   1  12
BRANCH   5  20
ATOM     20  C   UNL     1       1.747   3.403  20.437  0.00  0.00    +0.000 C 
ATOM     21  F   UNL     1       0.533   3.975  20.192  0.00  0.00    +0.000 F 
ATOM     22  F   UNL     1       1.583   2.077  20.172  0.00  0.00    +0.000 F 
ATOM     23  F   UNL     1       1.926   3.498  21.782  0.00  0.00    +0.000 F 
ENDBRANCH   5  20
BRANCH   6  24
ATOM     24  N   UNL     1       2.374   6.321  20.310  0.00  0.00    +0.000 N 
ATOM     25  H   UNL     1       2.354   6.210  21.318  0.00  0.00    +0.000 HD
BRANCH  24  26
ATOM     26  C   UNL     1       1.956   7.598  19.866  0.00  0.00    +0.000 A 
ATOM     27  C   UNL     1       2.187   8.027  18.549  0.00  0.00    +0.000 A 
ATOM     28  C   UNL     1       1.583   9.185  18.051  0.00  0.00    +0.000 A 
ATOM     29  C   UNL     1       0.779   9.947  18.885  0.00  0.00    +0.000 A 
ATOM     30  F   UNL     1       0.126  11.007  18.389  0.00  0.00    +0.000 F 
ATOM     31  C   UNL     1       0.631   9.613  20.225  0.00  0.00    +0.000 A 
ATOM     32  C   UNL     1       1.236   8.451  20.720  0.00  0.00    +0.000 A 
ENDBRANCH  24  26
ENDBRANCH   6  24
TORSDOF 5
ENDMDL
MODEL 6
REMARK VINA RESULT:      -8.6      3.345      6.006
REMARK  Name = 
REMARK  6 active torsions:
REMARK  status: ('A' for Active; 'I' for Inactive)
REMARK    1  A    between atoms: C_1  and  N_2
REMARK    2  A    between atoms: C_3  and  C_5
REMARK    3  A    between atoms: C_8  and  N_9
REMARK    4  A    between atoms: C_13  and  C_14
REMARK    5  A    between atoms: C_18  and  N_19
REMARK    6  A    between atoms: N_19  and  C_20
REMARK                            x       y       z     vdW  Elec       q    Type
REMARK                         _______ _______ _______ _____ _____    ______ ____
ROOT
ATOM      1  N   UNL     1       1.275   7.191  21.011  0.00  0.00    +0.000 N 
ATOM      2  C   UNL     1       1.775   6.038  20.418  0.00  0.00    +0.000 A 
ATOM      3  N   UNL     1       1.226   4.889  20.802  0.00  0.00    +0.000 NA
ATOM      4  C   UNL     1       1.611   3.796  20.132  0.00  0.00    +0.000 A 
ATOM      5  C   UNL     1       2.513   3.795  19.085  0.00  0.00    +0.000 A 
ATOM      6  C   UNL     1       3.054   5.018  18.758  0.00  0.00    +0.000 A 
ATOM      7  N   UNL     1       2.694   6.107  19.442  0.00  0.00    +0.000 NA
ATOM      8  H   UNL     1       0.458   6.923  21.545  0.00  0.00    +0.000 HD
ENDROOT
BRANCH   1  12
ATOM      9  C   UNL     1       1.265  11.072  19.358  0.00  0.00    +0.000 A 
ATOM     10  C   UNL     1       1.563   9.955  18.563  0.00  0.00    +0.000 A 
ATOM     11  C   UNL     1       1.542   8.674  19.125  0.00  0.00    +0.000 A 
ATOM     12  C   UNL     1       1.254   8.492  20.481  0.00  0.00    +0.000 A 
ATOM     13  C   UNL     1       0.928   9.615  21.244  0.00  0.00    +0.000 A 
ATOM     14  C   UNL     1       0.950  10.900  20.700  0.00  0.00    +0.000 A 
BRANCH   9  17
ATOM     15  C   UNL     1       2.638  14.346  18.082  0.00  0.00    +0.000 C 
ATOM     16  N   UNL     1       2.512  13.006  18.588  0.00  0.00    +0.000 N 
ATOM     17  C   UNL     1       1.272  12.420  18.727  0.00  0.00    +0.000 C 
ATOM     18  O   UNL     1       0.227  12.955  18.399  0.00  0.00    +0.000 OA
ATOM     19  H   UNL     1       3.341  12.559  18.949  0.00  0.00    +0.000 HD
ENDBRANCH   9  17
ENDBRANCH   1  12
BRANCH   5  20
ATOM     20  C   UNL     1       2.847   2.515  18.418  0.00  0.00    +0.000 C 
ATOM     21  F   UNL     1       4.183   2.241  18.432  0.00  0.00    +0.000 F 
ATOM     22  F   UNL     1       2.251   1.441  19.007  0.00  0.00    +0.000 F 
ATOM     23  F   UNL     1       2.484   2.477  17.108  0.00  0.00    +0.000 F 
ENDBRANCH   5  20
BRANCH   6  24
ATOM     24  N   UNL     1       4.020   5.180  17.750  0.00  0.00    +0.000 N 
ATOM     25  H   UNL     1       3.663   5.184  16.802  0.00  0.00    +0.000 HD
BRANCH  24  26
ATOM     26  C   UNL     1       5.333   5.696  17.871  0.00  0.00    +0.000 A 
ATOM     27  C   UNL     1       5.774   6.769  17.080  0.00  0.00    +0.000 A 
ATOM     28  C   UNL     1       6.982   7.418  17.353  0.00  0.00    +0.000 A 
ATOM     29  C   UNL     1       7.778   6.967  18.394  0.00  0.00    +0.000 A 
ATOM     30  F   UNL     1       8.891   7.640  18.717  0.00  0.00    +0.000 F 
ATOM     31  C   UNL     1       7.425   5.833  19.116  0.00  0.00    +0.000 A 
ATOM     32  C   UNL     1       6.214   5.187  18.841  0.00  0.00    +0.000 A 
ENDBRANCH  24  26
ENDBRANCH   6  24
TORSDOF 5
ENDMDL
MODEL 7
REMARK VINA RESULT:      -8.6      3.195      6.200
REMARK  Name = 
REMARK  6 active torsions:
REMARK  status: ('A' for Active; 'I' for Inactive)
REMARK    1  A    between atoms: C_1  and  N_2
REMARK    2  A    between atoms: C_3  and  C_5
REMARK    3  A    between atoms: C_8  and  N_9
REMARK    4  A    between atoms: C_13  and  C_14
REMARK    5  A    between atoms: C_18  and  N_19
REMARK    6  A    between atoms: N_19  and  C_20
REMARK                            x       y       z     vdW  Elec       q    Type
REMARK                         _______ _______ _______ _____ _____    ______ ____
ROOT
ATOM      1  N   UNL     1       1.279   7.128  21.079  0.00  0.00    +0.000 N 
ATOM      2  C   UNL     1       1.789   6.009  20.433  0.00  0.00    +0.000 A 
ATOM      3  N   UNL     1       1.265   4.835  20.780  0.00  0.00    +0.000 NA
ATOM      4  C   UNL     1       1.658   3.776  20.063  0.00  0.00    +0.000 A 
ATOM      5  C   UNL     1       2.545   3.832  19.004  0.00  0.00    +0.000 A 
ATOM      6  C   UNL     1       3.060   5.076  18.717  0.00  0.00    +0.000 A 
ATOM      7  N   UNL     1       2.692   6.131  19.448  0.00  0.00    +0.000 NA
ATOM      8  H   UNL     1       0.474   6.825  21.613  0.00  0.00    +0.000 HD
ENDROOT
BRANCH   1  12
ATOM      9  C   UNL     1       1.173  11.069  19.575  0.00  0.00    +0.000 A 
ATOM     10  C   UNL     1       1.403   9.981  18.720  0.00  0.00    +0.000 A 
ATOM     11  C   UNL     1       1.415   8.680  19.234  0.00  0.00    +0.000 A 
ATOM     12  C   UNL     1       1.228   8.449  20.600  0.00  0.00    +0.000 A 
ATOM     13  C   UNL     1       0.968   9.544  21.426  0.00  0.00    +0.000 A 
ATOM     14  C   UNL     1       0.958  10.848  20.930  0.00  0.00    +0.000 A 
BRANCH   9  17
ATOM     15  C   UNL     1      -0.143  14.508  18.756  0.00  0.00    +0.000 C 
ATOM     16  N   UNL     1       0.045  13.204  19.330  0.00  0.00    +0.000 N 
ATOM     17  C   UNL     1       1.143  12.439  18.996  0.00  0.00    +0.000 C 
ATOM     18  O   UNL     1       2.032  12.816  18.252  0.00  0.00    +0.000 OA
ATOM     19  H   UNL     1      -0.705  12.819  19.885  0.00  0.00    +0.000 HD
ENDBRANCH   9  17
ENDBRANCH   1  12
BRANCH   5  20
ATOM     20  C   UNL     1       2.890   2.585  18.283  0.00  0.00    +0.000 C 
ATOM     21  F   UNL     1       2.302   1.479  18.822  0.00  0.00    +0.000 F 
ATOM     22  F   UNL     1       2.500   2.603  16.978  0.00  0.00    +0.000 F 
ATOM     23  F   UNL     1       4.223   2.317  18.274  0.00  0.00    +0.000 F 
ENDBRANCH   5  20
BRANCH   6  24
ATOM     24  N   UNL     1       4.008   5.293  17.703  0.00  0.00    +0.000 N 
ATOM     25  H   UNL     1       3.632   5.369  16.764  0.00  0.00    +0.000 HD
BRANCH  24  26
ATOM     26  C   UNL     1       5.330   5.782  17.831  0.00  0.00    +0.000 A 
ATOM     27  C   UNL     1       5.780   6.886  17.088  0.00  0.00    +0.000 A 
ATOM     28  C   UNL     1       7.001   7.501  17.376  0.00  0.00    +0.000 A 
ATOM     29  C   UNL     1       7.803   6.985  18.383  0.00  0.00    +0.000 A 
ATOM     30  F   UNL     1       8.931   7.623  18.724  0.00  0.00    +0.000 F 
ATOM     31  C   UNL     1       7.441   5.822  19.052  0.00  0.00    +0.000 A 
ATOM     32  C   UNL     1       6.215   5.210  18.761  0.00  0.00    +0.000 A 
ENDBRANCH  24  26
ENDBRANCH   6  24
TORSDOF 5
ENDMDL
MODEL 8
REMARK VINA RESULT:      -8.5      4.674      6.682
REMARK  Name = 
REMARK  6 active torsions:
REMARK  status: ('A' for Active; 'I' for Inactive)
REMARK    1  A    between atoms: C_1  and  N_2
REMARK    2  A    between atoms: C_3  and  C_5
REMARK    3  A    between atoms: C_8  and  N_9
REMARK    4  A    between atoms: C_13  and  C_14
REMARK    5  A    between atoms: C_18  and  N_19
REMARK    6  A    between atoms: N_19  and  C_20
REMARK                            x       y       z     vdW  Elec       q    Type
REMARK                         _______ _______ _______ _____ _____    ______ ____
ROOT
ATOM      1  N   UNL     1       1.699   7.283  20.859  0.00  0.00    +0.000 N 
ATOM      2  C   UNL     1       0.939   8.422  21.097  0.00  0.00    +0.000 A 
ATOM      3  N   UNL     1       0.749   8.751  22.372  0.00  0.00    +0.000 NA
ATOM      4  C   UNL     1       0.137   9.919  22.598  0.00  0.00    +0.000 A 
ATOM      5  C   UNL     1      -0.288  10.785  21.608  0.00  0.00    +0.000 A 
ATOM      6  C   UNL     1      -0.076  10.369  20.313  0.00  0.00    +0.000 A 
ATOM      7  N   UNL     1       0.510   9.190  20.083  0.00  0.00    +0.000 NA
ATOM      8  H   UNL     1       2.090   6.993  21.746  0.00  0.00    +0.000 HD
ENDROOT
BRANCH   1  12
ATOM      9  C   UNL     1       4.088   6.351  17.509  0.00  0.00    +0.000 A 
ATOM     10  C   UNL     1       4.025   5.483  18.609  0.00  0.00    +0.000 A 
ATOM     11  C   UNL     1       3.212   5.799  19.702  0.00  0.00    +0.000 A 
ATOM     12  C   UNL     1       2.478   6.990  19.727  0.00  0.00    +0.000 A 
ATOM     13  C   UNL     1       2.531   7.822  18.607  0.00  0.00    +0.000 A 
ATOM     14  C   UNL     1       3.342   7.523  17.512  0.00  0.00    +0.000 A 
BRANCH   9  17
ATOM     15  C   UNL     1       6.353   4.241  15.351  0.00  0.00    +0.000 C 
ATOM     16  N   UNL     1       5.437   4.689  16.366  0.00  0.00    +0.000 N 
ATOM     17  C   UNL     1       4.944   5.977  16.351  0.00  0.00    +0.000 C 
ATOM     18  O   UNL     1       5.200   6.792  15.481  0.00  0.00    +0.000 OA
ATOM     19  H   UNL     1       5.264   4.076  17.148  0.00  0.00    +0.000 HD
ENDBRANCH   9  17
ENDBRANCH   1  12
BRANCH   5  20
ATOM     20  C   UNL     1      -0.945  12.056  21.992  0.00  0.00    +0.000 C 
ATOM     21  F   UNL     1      -0.962  12.260  23.341  0.00  0.00    +0.000 F 
ATOM     22  F   UNL     1      -0.327  13.151  21.467  0.00  0.00    +0.000 F 
ATOM     23  F   UNL     1      -2.245  12.133  21.599  0.00  0.00    +0.000 F 
ENDBRANCH   5  20
BRANCH   6  24
ATOM     24  N   UNL     1      -0.491  11.111  19.195  0.00  0.00    +0.000 N 
ATOM     25  H   UNL     1       0.214  11.713  18.786  0.00  0.00    +0.000 HD
BRANCH  24  26
ATOM     26  C   UNL     1      -1.602  10.873  18.350  0.00  0.00    +0.000 A 
ATOM     27  C   UNL     1      -2.797  11.598  18.489  0.00  0.00    +0.000 A 
ATOM     28  C   UNL     1      -3.803  11.522  17.522  0.00  0.00    +0.000 A 
ATOM     29  C   UNL     1      -3.639  10.682  16.431  0.00  0.00    +0.000 A 
ATOM     30  F   UNL     1      -4.559  10.672  15.457  0.00  0.00    +0.000 F 
ATOM     31  C   UNL     1      -2.521   9.862  16.331  0.00  0.00    +0.000 A 
ATOM     32  C   UNL     1      -1.514   9.943  17.300  0.00  0.00    +0.000 A 
ENDBRANCH  24  26
ENDBRANCH   6  24
TORSDOF 5
ENDMDL
MODEL 9
REMARK VINA RESULT:      -8.5      0.850      1.678
REMARK  Name = 
REMARK  6 active torsions:
REMARK  status: ('A' for Active; 'I' for Inactive)
REMARK    1  A    between atoms: C_1  and  N_2
REMARK    2  A    between atoms: C_3  and  C_5
REMARK    3  A    between atoms: C_8  and  N_9
REMARK    4  A    between atoms: C_13  and  C_14
REMARK    5  A    between atoms: C_18  and  N_19
REMARK    6  A    between atoms: N_19  and  C_20
REMARK                            x       y       z     vdW  Elec       q    Type
REMARK                         _______ _______ _______ _____ _____    ______ ____
ROOT
ATOM      1  N   UNL     1       6.115   5.429  17.485  0.00  0.00    +0.000 N 
ATOM      2  C   UNL     1       4.968   4.958  18.113  0.00  0.00    +0.000 A 
ATOM      3  N   UNL     1       4.717   3.657  17.988  0.00  0.00    +0.000 NA
ATOM      4  C   UNL     1       3.692   3.181  18.704  0.00  0.00    +0.000 A 
ATOM      5  C   UNL     1       2.907   3.941  19.551  0.00  0.00    +0.000 A 
ATOM      6  C   UNL     1       3.213   5.281  19.613  0.00  0.00    +0.000 A 
ATOM      7  N   UNL     1       4.218   5.767  18.878  0.00  0.00    +0.000 NA
ATOM      8  H   UNL     1       6.629   4.622  17.155  0.00  0.00    +0.000 HD
ENDROOT
BRANCH   1  12
ATOM      9  C   UNL     1       8.441   8.805  18.476  0.00  0.00    +0.000 A 
ATOM     10  C   UNL     1       7.443   8.886  17.494  0.00  0.00    +0.000 A 
ATOM     11  C   UNL     1       6.668   7.761  17.193  0.00  0.00    +0.000 A 
ATOM     12  C   UNL     1       6.895   6.542  17.841  0.00  0.00    +0.000 A 
ATOM     13  C   UNL     1       7.871   6.495  18.837  0.00  0.00    +0.000 A 
ATOM     14  C   UNL     1       8.656   7.607  19.145  0.00  0.00    +0.000 A 
BRANCH   9  17
ATOM     15  C   UNL     1      10.445  11.946  17.876  0.00  0.00    +0.000 C 
ATOM     16  N   UNL     1       9.597  10.796  17.707  0.00  0.00    +0.000 N 
ATOM     17  C   UNL     1       9.234  10.025  18.791  0.00  0.00    +0.000 C 
ATOM     18  O   UNL     1       9.552  10.276  19.941  0.00  0.00    +0.000 OA
ATOM     19  H   UNL     1       9.380  10.504  16.767  0.00  0.00    +0.000 HD
ENDBRANCH   9  17
ENDBRANCH   1  12
BRANCH   5  20
ATOM     20  C   UNL     1       1.806   3.288  20.298  0.00  0.00    +0.000 C 
ATOM     21  F   UNL     1       1.654   1.971  19.977  0.00  0.00    +0.000 F 
ATOM     22  F   UNL     1       1.994   3.313  21.647  0.00  0.00    +0.000 F 
ATOM     23  F   UNL     1       0.591   3.857  20.076  0.00  0.00    +0.000 F 
ENDBRANCH   5  20
BRANCH   6  24
ATOM     24  N   UNL     1       2.482   6.197  20.388  0.00  0.00    +0.000 N 
ATOM     25  H   UNL     1       2.609   6.116  21.391  0.00  0.00    +0.000 HD
BRANCH  24  26
ATOM     26  C   UNL     1       1.900   7.421  19.981  0.00  0.00    +0.000 A 
ATOM     27  C   UNL     1       1.186   8.229  20.880  0.00  0.00    +0.000 A 
ATOM     28  C   UNL     1       0.809   9.530  20.538  0.00  0.00    +0.000 A 
ATOM     29  C   UNL     1       1.104  10.016  19.273  0.00  0.00    +0.000 A 
ATOM     30  F   UNL     1       0.825  11.291  18.971  0.00  0.00    +0.000 F 
ATOM     31  C   UNL     1       1.701   9.197  18.322  0.00  0.00    +0.000 A 
ATOM     32  C   UNL     1       2.080   7.895  18.670  0.00  0.00    +0.000 A 
ENDBRANCH  24  26
ENDBRANCH   6  24
TORSDOF 5
ENDMDL
