MODEL 1
REMARK VINA RESULT:      -6.7      0.000      0.000
REMARK  Name = 
REMARK  4 active torsions:
REMARK  status: ('A' for Active; 'I' for Inactive)
REMARK    1  A    between atoms: C_1  and  C_2
REMARK    2  A    between atoms: C_5  and  C_6
REMARK    3  A    between atoms: C_9  and  C_10
REMARK    4  A    between atoms: C_10  and  O_12
REMARK                            x       y       z     vdW  Elec       q    Type
REMARK                         _______ _______ _______ _____ _____    ______ ____
ROOT
ATOM      1  C   UNL     1       4.641   4.366  17.790  0.00  0.00    +0.000 A 
ATOM      2  C   UNL     1       4.170   4.094  16.495  0.00  0.00    +0.000 A 
ATOM      3  C   UNL     1       5.004   4.239  15.379  0.00  0.00    +0.000 A 
ATOM      4  C   UNL     1       6.332   4.659  15.531  0.00  0.00    +0.000 A 
ATOM      5  C   UNL     1       6.816   4.940  16.808  0.00  0.00    +0.000 A 
ATOM      6  C   UNL     1       5.979   4.784  17.914  0.00  0.00    +0.000 A 
ATOM      7  F   UNL     1       6.502   5.056  19.120  0.00  0.00    +0.000 F 
ENDROOT
BRANCH   1  12
ATOM      8  C   UNL     1       1.710   2.601  21.894  0.00  0.00    +0.000 C 
ATOM      9  C   UNL     1       2.408   3.459  20.895  0.00  0.00    +0.000 A 
ATOM     10  C   UNL     1       2.425   4.833  20.815  0.00  0.00    +0.000 A 
ATOM     11  C   UNL     1       3.202   5.296  19.716  0.00  0.00    +0.000 A 
ATOM     12  C   UNL     1       3.770   4.272  18.979  0.00  0.00    +0.000 A 
ATOM     13  S   UNL     1       3.338   2.747  19.650  0.00  0.00    +0.000 S 
ENDBRANCH   1  12
BRANCH   4  14
ATOM     14  C   UNL     1       7.153   4.854  14.309  0.00  0.00    +0.000 C 
ATOM     15  O   UNL     1       8.091   5.633  14.274  0.00  0.00    +0.000 OA
BRANCH  14  16
ATOM     16  O   UNL     1       6.762   4.122  13.247  0.00  0.00    +0.000 OA
ATOM     17  H   UNL     1       5.937   4.403  12.817  0.00  0.00    +0.000 HD
ENDBRANCH  14  16
ENDBRANCH   4  14
TORSDOF 3
ENDMDL
MODEL 2
REMARK VINA RESULT:      -6.6      1.280      1.317
REMARK  Name = 
REMARK  4 active torsions:
REMARK  status: ('A' for Active; 'I' for Inactive)
REMARK    1  A    between atoms: C_1  and  C_2
REMARK    2  A    between atoms: C_5  and  C_6
REMARK    3  A    between atoms: C_9  and  C_10
REMARK    4  A    between atoms: C_10  and  O_12
REMARK                            x       y       z     vdW  Elec       q    Type
REMARK                         _______ _______ _______ _____ _____    ______ ____
ROOT
ATOM      1  C   UNL     1       4.206   4.360  17.403  0.00  0.00    +0.000 A 
ATOM      2  C   UNL     1       4.778   3.269  16.729  0.00  0.00    +0.000 A 
ATOM      3  C   UNL     1       5.691   3.465  15.684  0.00  0.00    +0.000 A 
ATOM      4  C   UNL     1       6.054   4.758  15.289  0.00  0.00    +0.000 A 
ATOM      5  C   UNL     1       5.491   5.854  15.941  0.00  0.00    +0.000 A 
ATOM      6  C   UNL     1       4.589   5.647  16.987  0.00  0.00    +0.000 A 
ATOM      7  F   UNL     1       4.089   6.739  17.588  0.00  0.00    +0.000 F 
ENDROOT
BRANCH   1  12
ATOM      8  C   UNL     1       1.602   2.847  21.817  0.00  0.00    +0.000 C 
ATOM      9  C   UNL     1       1.985   3.489  20.528  0.00  0.00    +0.000 A 
ATOM     10  C   UNL     1       1.258   4.378  19.769  0.00  0.00    +0.000 A 
ATOM     11  C   UNL     1       1.955   4.771  18.591  0.00  0.00    +0.000 A 
ATOM     12  C   UNL     1       3.202   4.184  18.472  0.00  0.00    +0.000 A 
ATOM     13  S   UNL     1       3.502   3.150  19.815  0.00  0.00    +0.000 S 
ENDBRANCH   1  12
BRANCH   4  14
ATOM     14  C   UNL     1       6.978   4.910  14.136  0.00  0.00    +0.000 C 
ATOM     15  O   UNL     1       7.961   5.631  14.180  0.00  0.00    +0.000 OA
BRANCH  14  16
ATOM     16  O   UNL     1       6.628   4.208  13.040  0.00  0.00    +0.000 OA
ATOM     17  H   UNL     1       6.493   4.725  12.228  0.00  0.00    +0.000 HD
ENDBRANCH  14  16
ENDBRANCH   4  14
TORSDOF 3
ENDMDL
MODEL 3
REMARK VINA RESULT:      -6.5      1.261      1.734
REMARK  Name = 
REMARK  4 active torsions:
REMARK  status: ('A' for Active; 'I' for Inactive)
REMARK    1  A    between atoms: C_1  and  C_2
REMARK    2  A    between atoms: C_5  and  C_6
REMARK    3  A    between atoms: C_9  and  C_10
REMARK    4  A    between atoms: C_10  and  O_12
REMARK                            x       y       z     vdW  Elec       q    Type
REMARK                         _______ _______ _______ _____ _____    ______ ____
ROOT
ATOM      1  C   UNL     1       4.352   4.471  18.018  0.00  0.00    +0.000 A 
ATOM      2  C   UNL     1       5.614   5.083  18.089  0.00  0.00    +0.000 A 
ATOM      3  C   UNL     1       6.442   5.163  16.960  0.00  0.00    +0.000 A 
ATOM      4  C   UNL     1       6.025   4.633  15.733  0.00  0.00    +0.000 A 
ATOM      5  C   UNL     1       4.779   4.015  15.645  0.00  0.00    +0.000 A 
ATOM      6  C   UNL     1       3.959   3.948  16.773  0.00  0.00    +0.000 A 
ATOM      7  F   UNL     1       2.764   3.354  16.626  0.00  0.00    +0.000 F 
ENDROOT
BRANCH   1  12
ATOM      8  C   UNL     1       1.507   2.533  22.104  0.00  0.00    +0.000 C 
ATOM      9  C   UNL     1       2.160   3.431  21.110  0.00  0.00    +0.000 A 
ATOM     10  C   UNL     1       2.098   4.804  21.033  0.00  0.00    +0.000 A 
ATOM     11  C   UNL     1       2.853   5.313  19.939  0.00  0.00    +0.000 A 
ATOM     12  C   UNL     1       3.483   4.326  19.202  0.00  0.00    +0.000 A 
ATOM     13  S   UNL     1       3.135   2.776  19.869  0.00  0.00    +0.000 S 
ENDBRANCH   1  12
BRANCH   4  14
ATOM     14  C   UNL     1       6.966   4.690  14.585  0.00  0.00    +0.000 C 
ATOM     15  O   UNL     1       7.856   5.521  14.514  0.00  0.00    +0.000 OA
BRANCH  14  16
ATOM     16  O   UNL     1       6.738   3.770  13.627  0.00  0.00    +0.000 OA
ATOM     17  H   UNL     1       6.875   4.066  12.711  0.00  0.00    +0.000 HD
ENDBRANCH  14  16
ENDBRANCH   4  14
TORSDOF 3
ENDMDL
MODEL 4
REMARK VINA RESULT:      -6.4      2.118      2.610
REMARK  Name = 
REMARK  4 active torsions:
REMARK  status: ('A' for Active; 'I' for Inactive)
REMARK    1  A    between atoms: C_1  and  C_2
REMARK    2  A    between atoms: C_5  and  C_6
REMARK    3  A    between atoms: C_9  and  C_10
REMARK    4  A    between atoms: C_10  and  O_12
REMARK                            x       y       z     vdW  Elec       q    Type
REMARK                         _______ _______ _______ _____ _____    ______ ____
ROOT
ATOM      1  C   UNL     1       3.960   5.541  17.631  0.00  0.00    +0.000 A 
ATOM      2  C   UNL     1       4.668   6.538  16.939  0.00  0.00    +0.000 A 
ATOM      3  C   UNL     1       5.527   6.210  15.881  0.00  0.00    +0.000 A 
ATOM      4  C   UNL     1       5.698   4.876  15.489  0.00  0.00    +0.000 A 
ATOM      5  C   UNL     1       5.009   3.873  16.169  0.00  0.00    +0.000 A 
ATOM      6  C   UNL     1       4.149   4.211  17.215  0.00  0.00    +0.000 A 
ATOM      7  F   UNL     1       3.501   3.205  17.824  0.00  0.00    +0.000 F 
ENDROOT
BRANCH   1  12
ATOM      8  C   UNL     1       0.836   7.998  21.202  0.00  0.00    +0.000 C 
ATOM      9  C   UNL     1       1.630   6.988  20.446  0.00  0.00    +0.000 A 
ATOM     10  C   UNL     1       1.791   5.649  20.724  0.00  0.00    +0.000 A 
ATOM     11  C   UNL     1       2.630   5.003  19.772  0.00  0.00    +0.000 A 
ATOM     12  C   UNL     1       3.090   5.852  18.782  0.00  0.00    +0.000 A 
ATOM     13  S   UNL     1       2.482   7.443  19.036  0.00  0.00    +0.000 S 
ENDBRANCH   1  12
BRANCH   4  14
ATOM     14  C   UNL     1       6.666   4.579  14.403  0.00  0.00    +0.000 C 
ATOM     15  O   UNL     1       7.600   5.318  14.144  0.00  0.00    +0.000 OA
BRANCH  14  16
ATOM     16  O   UNL     1       6.411   3.446  13.719  0.00  0.00    +0.000 OA
ATOM     17  H   UNL     1       5.664   2.913  14.041  0.00  0.00    +0.000 HD
ENDBRANCH  14  16
ENDBRANCH   4  14
TORSDOF 3
ENDMDL
MODEL 5
REMARK VINA RESULT:      -6.3      1.523      1.789
REMARK  Name = 
REMARK  4 active torsions:
REMARK  status: ('A' for Active; 'I' for Inactive)
REMARK    1  A    between atoms: C_1  and  C_2
REMARK    2  A    between atoms: C_5  and  C_6
REMARK    3  A    between atoms: C_9  and  C_10
REMARK    4  A    between atoms: C_10  and  O_12
REMARK                            x       y       z     vdW  Elec       q    Type
REMARK                         _______ _______ _______ _____ _____    ______ ____
ROOT
ATOM      1  C   UNL     1       4.604   4.760  17.052  0.00  0.00    +0.000 A 
ATOM      2  C   UNL     1       5.247   3.611  16.561  0.00  0.00    +0.000 A 
ATOM      3  C   UNL     1       6.080   3.676  15.437  0.00  0.00    +0.000 A 
ATOM      4  C   UNL     1       6.291   4.892  14.775  0.00  0.00    +0.000 A 
ATOM      5  C   UNL     1       5.657   6.041  15.243  0.00  0.00    +0.000 A 
ATOM      6  C   UNL     1       4.836   5.968  16.370  0.00  0.00    +0.000 A 
ATOM      7  F   UNL     1       4.261   7.108  16.784  0.00  0.00    +0.000 F 
ENDROOT
BRANCH   1  12
ATOM      8  C   UNL     1       0.721   3.449  20.480  0.00  0.00    +0.000 C 
ATOM      9  C   UNL     1       1.878   4.104  19.806  0.00  0.00    +0.000 A 
ATOM     10  C   UNL     1       2.622   5.177  20.242  0.00  0.00    +0.000 A 
ATOM     11  C   UNL     1       3.650   5.525  19.321  0.00  0.00    +0.000 A 
ATOM     12  C   UNL     1       3.680   4.712  18.203  0.00  0.00    +0.000 A 
ATOM     13  S   UNL     1       2.437   3.525  18.299  0.00  0.00    +0.000 S 
ENDBRANCH   1  12
BRANCH   4  14
ATOM     14  C   UNL     1       7.134   4.892  13.553  0.00  0.00    +0.000 C 
ATOM     15  O   UNL     1       6.896   4.173  12.598  0.00  0.00    +0.000 OA
BRANCH  14  16
ATOM     16  O   UNL     1       8.189   5.730  13.599  0.00  0.00    +0.000 OA
ATOM     17  H   UNL     1       8.325   6.288  12.815  0.00  0.00    +0.000 HD
ENDBRANCH  14  16
ENDBRANCH   4  14
TORSDOF 3
ENDMDL
MODEL 6
REMARK VINA RESULT:      -6.3      1.316      1.663
REMARK  Name = 
REMARK  4 active torsions:
REMARK  status: ('A' for Active; 'I' for Inactive)
REMARK    1  A    between atoms: C_1  and  C_2
REMARK    2  A    between atoms: C_5  and  C_6
REMARK    3  A    between atoms: C_9  and  C_10
REMARK    4  A    between atoms: C_10  and  O_12
REMARK                            x       y       z     vdW  Elec       q    Type
REMARK                         _______ _______ _______ _____ _____    ______ ____
ROOT
ATOM      1  C   UNL     1       5.262   4.256  16.795  0.00  0.00    +0.000 A 
ATOM      2  C   UNL     1       4.739   4.210  15.492  0.00  0.00    +0.000 A 
ATOM      3  C   UNL     1       5.552   4.463  14.379  0.00  0.00    +0.000 A 
ATOM      4  C   UNL     1       6.909   4.768  14.542  0.00  0.00    +0.000 A 
ATOM      5  C   UNL     1       7.444   4.826  15.828  0.00  0.00    +0.000 A 
ATOM      6  C   UNL     1       6.628   4.563  16.930  0.00  0.00    +0.000 A 
ATOM      7  F   UNL     1       7.200   4.619  18.143  0.00  0.00    +0.000 F 
ENDROOT
BRANCH   1  12
ATOM      8  C   UNL     1       1.983   4.926  20.959  0.00  0.00    +0.000 C 
ATOM      9  C   UNL     1       2.887   4.348  19.925  0.00  0.00    +0.000 A 
ATOM     10  C   UNL     1       3.280   3.037  19.773  0.00  0.00    +0.000 A 
ATOM     11  C   UNL     1       4.158   2.867  18.665  0.00  0.00    +0.000 A 
ATOM     12  C   UNL     1       4.418   4.045  17.987  0.00  0.00    +0.000 A 
ATOM     13  S   UNL     1       3.574   5.352  18.725  0.00  0.00    +0.000 S 
ENDBRANCH   1  12
BRANCH   4  14
ATOM     14  C   UNL     1       7.710   5.088  13.334  0.00  0.00    +0.000 C 
ATOM     15  O   UNL     1       8.631   5.886  13.356  0.00  0.00    +0.000 OA
BRANCH  14  16
ATOM     16  O   UNL     1       7.319   4.445  12.215  0.00  0.00    +0.000 OA
ATOM     17  H   UNL     1       7.607   3.520  12.133  0.00  0.00    +0.000 HD
ENDBRANCH  14  16
ENDBRANCH   4  14
TORSDOF 3
ENDMDL
MODEL 7
REMARK VINA RESULT:      -6.2      1.573      1.931
REMARK  Name = 
REMARK  4 active torsions:
REMARK  status: ('A' for Active; 'I' for Inactive)
REMARK    1  A    between atoms: C_1  and  C_2
REMARK    2  A    between atoms: C_5  and  C_6
REMARK    3  A    between atoms: C_9  and  C_10
REMARK    4  A    between atoms: C_10  and  O_12
REMARK                            x       y       z     vdW  Elec       q    Type
REMARK                         _______ _______ _______ _____ _____    ______ ____
ROOT
ATOM      1  C   UNL     1       3.757   4.279  17.726  0.00  0.00    +0.000 A 
ATOM      2  C   UNL     1       4.170   5.579  17.393  0.00  0.00    +0.000 A 
ATOM      3  C   UNL     1       5.129   5.799  16.395  0.00  0.00    +0.000 A 
ATOM      4  C   UNL     1       5.699   4.721  15.706  0.00  0.00    +0.000 A 
ATOM      5  C   UNL     1       5.308   3.422  16.028  0.00  0.00    +0.000 A 
ATOM      6  C   UNL     1       4.344   3.215  17.017  0.00  0.00    +0.000 A 
ATOM      7  F   UNL     1       3.996   1.945  17.275  0.00  0.00    +0.000 F 
ENDROOT
BRANCH   1  12
ATOM      8  C   UNL     1       1.373   2.584  22.197  0.00  0.00    +0.000 C 
ATOM      9  C   UNL     1       1.672   3.235  20.890  0.00  0.00    +0.000 A 
ATOM     10  C   UNL     1       0.844   4.018  20.119  0.00  0.00    +0.000 A 
ATOM     11  C   UNL     1       1.483   4.461  18.927  0.00  0.00    +0.000 A 
ATOM     12  C   UNL     1       2.787   4.015  18.807  0.00  0.00    +0.000 A 
ATOM     13  S   UNL     1       3.212   3.053  20.171  0.00  0.00    +0.000 S 
ENDBRANCH   1  12
BRANCH   4  14
ATOM     14  C   UNL     1       6.756   5.006  14.702  0.00  0.00    +0.000 C 
ATOM     15  O   UNL     1       6.725   4.541  13.575  0.00  0.00    +0.000 OA
BRANCH  14  16
ATOM     16  O   UNL     1       7.754   5.796  15.147  0.00  0.00    +0.000 OA
ATOM     17  H   UNL     1       7.695   6.735  14.901  0.00  0.00    +0.000 HD
ENDBRANCH  14  16
ENDBRANCH   4  14
TORSDOF 3
ENDMDL
MODEL 8
REMARK VINA RESULT:      -6.2      4.255      5.458
REMARK  Name = 
REMARK  4 active torsions:
REMARK  status: ('A' for Active; 'I' for Inactive)
REMARK    1  A    between atoms: C_1  and  C_2
REMARK    2  A    between atoms: C_5  and  C_6
REMARK    3  A    between atoms: C_9  and  C_10
REMARK    4  A    between atoms: C_10  and  O_12
REMARK                            x       y       z     vdW  Elec       q    Type
REMARK                         _______ _______ _______ _____ _____    ______ ____
ROOT
ATOM      1  C   UNL     1       2.855   5.971  18.737  0.00  0.00    +0.000 A 
ATOM      2  C   UNL     1       4.012   5.631  19.458  0.00  0.00    +0.000 A 
ATOM      3  C   UNL     1       4.446   4.301  19.540  0.00  0.00    +0.000 A 
ATOM      4  C   UNL     1       3.732   3.278  18.902  0.00  0.00    +0.000 A 
ATOM      5  C   UNL     1       2.578   3.596  18.188  0.00  0.00    +0.000 A 
ATOM      6  C   UNL     1       2.160   4.925  18.105  0.00  0.00    +0.000 A 
ATOM      7  F   UNL     1       1.049   5.173  17.393  0.00  0.00    +0.000 F 
ENDROOT
BRANCH   1  12
ATOM      8  C   UNL     1       0.658  10.699  19.907  0.00  0.00    +0.000 C 
ATOM      9  C   UNL     1       1.329   9.562  19.216  0.00  0.00    +0.000 A 
ATOM     10  C   UNL     1       1.807   9.510  17.926  0.00  0.00    +0.000 A 
ATOM     11  C   UNL     1       2.385   8.246  17.619  0.00  0.00    +0.000 A 
ATOM     12  C   UNL     1       2.346   7.356  18.677  0.00  0.00    +0.000 A 
ATOM     13  S   UNL     1       1.595   8.089  20.042  0.00  0.00    +0.000 S 
ENDBRANCH   1  12
BRANCH   4  14
ATOM     14  C   UNL     1       4.201   1.880  19.072  0.00  0.00    +0.000 C 
ATOM     15  O   UNL     1       3.756   0.959  18.409  0.00  0.00    +0.000 OA
BRANCH  14  16
ATOM     16  O   UNL     1       5.135   1.714  20.030  0.00  0.00    +0.000 OA
ATOM     17  H   UNL     1       5.405   2.518  20.506  0.00  0.00    +0.000 HD
ENDBRANCH  14  16
ENDBRANCH   4  14
TORSDOF 3
ENDMDL
MODEL 9
REMARK VINA RESULT:      -6.1      4.284      5.591
REMARK  Name = 
REMARK  4 active torsions:
REMARK  status: ('A' for Active; 'I' for Inactive)
REMARK    1  A    between atoms: C_1  and  C_2
REMARK    2  A    between atoms: C_5  and  C_6
REMARK    3  A    between atoms: C_9  and  C_10
REMARK    4  A    between atoms: C_10  and  O_12
REMARK                            x       y       z     vdW  Elec       q    Type
REMARK                         _______ _______ _______ _____ _____    ______ ____
ROOT
ATOM      1  C   UNL     1       2.798   5.975  19.345  0.00  0.00    +0.000 A 
ATOM      2  C   UNL     1       4.051   5.619  18.820  0.00  0.00    +0.000 A 
ATOM      3  C   UNL     1       4.590   4.344  19.039  0.00  0.00    +0.000 A 
ATOM      4  C   UNL     1       3.888   3.393  19.790  0.00  0.00    +0.000 A 
ATOM      5  C   UNL     1       2.646   3.730  20.326  0.00  0.00    +0.000 A 
ATOM      6  C   UNL     1       2.114   4.999  20.093  0.00  0.00    +0.000 A 
ATOM      7  F   UNL     1       0.909   5.264  20.622  0.00  0.00    +0.000 F 
ENDROOT
BRANCH   1  12
ATOM      8  C   UNL     1       0.483  10.721  20.155  0.00  0.00    +0.000 C 
ATOM      9  C   UNL     1       1.157   9.541  19.545  0.00  0.00    +0.000 A 
ATOM     10  C   UNL     1       1.556   9.368  18.239  0.00  0.00    +0.000 A 
ATOM     11  C   UNL     1       2.166   8.099  18.029  0.00  0.00    +0.000 A 
ATOM     12  C   UNL     1       2.229   7.326  19.175  0.00  0.00    +0.000 A 
ATOM     13  S   UNL     1       1.533   8.175  20.501  0.00  0.00    +0.000 S 
ENDBRANCH   1  12
BRANCH   4  14
ATOM     14  C   UNL     1       4.533   2.080  20.043  0.00  0.00    +0.000 C 
ATOM     15  O   UNL     1       5.057   1.807  21.109  0.00  0.00    +0.000 OA
BRANCH  14  16
ATOM     16  O   UNL     1       4.510   1.233  18.995  0.00  0.00    +0.000 OA
ATOM     17  H   UNL     1       5.312   1.212  18.446  0.00  0.00    +0.000 HD
ENDBRANCH  14  16
ENDBRANCH   4  14
TORSDOF 3
ENDMDL
