MODEL 1
REMARK VINA RESULT:      -6.8      0.000      0.000
REMARK  Name = 
REMARK  3 active torsions:
REMARK  status: ('A' for Active; 'I' for Inactive)
REMARK    1  A    between atoms: C_1  and  C_2
REMARK    2  A    between atoms: C_7  and  S_8
REMARK    3  A    between atoms: S_8  and  N_11
REMARK                            x       y       z     vdW  Elec       q    Type
REMARK                         _______ _______ _______ _____ _____    ______ ____
ROOT
ATOM      1  S   UNL     1       2.177   3.461  17.678  0.00  0.00    +0.000 S 
ATOM      2  O   UNL     1       0.949   4.150  17.324  0.00  0.00    +0.000 OA
ATOM      3  O   UNL     1       2.475   2.142  17.147  0.00  0.00    +0.000 OA
ENDROOT
BRANCH   1  10
ATOM      4  C   UNL     1       2.588   6.547  18.626  0.00  0.00    +0.000 C 
ATOM      5  C   UNL     1       3.638   5.870  17.789  0.00  0.00    +0.000 A 
ATOM      6  C   UNL     1       4.725   6.658  17.360  0.00  0.00    +0.000 A 
ATOM      7  C   UNL     1       5.727   6.131  16.544  0.00  0.00    +0.000 A 
ATOM      8  C   UNL     1       5.665   4.803  16.142  0.00  0.00    +0.000 A 
ATOM      9  C   UNL     1       4.595   4.004  16.548  0.00  0.00    +0.000 A 
ATOM     10  C   UNL     1       3.577   4.527  17.366  0.00  0.00    +0.000 A 
ENDBRANCH   1  10
BRANCH   1  11
ATOM     11  N   UNL     1       2.122   3.255  19.368  0.00  0.00    +0.000 N 
ATOM     12  C   UNL     1       3.181   2.869  20.147  0.00  0.00    +0.000 A 
ATOM     13  C   UNL     1       2.721   2.765  21.444  0.00  0.00    +0.000 A 
ATOM     14  C   UNL     1       1.345   3.106  21.437  0.00  0.00    +0.000 A 
ATOM     15  C   UNL     1       0.995   3.402  20.134  0.00  0.00    +0.000 A 
ENDBRANCH   1  11
TORSDOF 2
ENDMDL
MODEL 2
REMARK VINA RESULT:      -6.6      3.080      4.861
REMARK  Name = 
REMARK  3 active torsions:
REMARK  status: ('A' for Active; 'I' for Inactive)
REMARK    1  A    between atoms: C_1  and  C_2
REMARK    2  A    between atoms: C_7  and  S_8
REMARK    3  A    between atoms: S_8  and  N_11
REMARK                            x       y       z     vdW  Elec       q    Type
REMARK                         _______ _______ _______ _____ _____    ______ ____
ROOT
ATOM      1  S   UNL     1       5.625   5.215  16.135  0.00  0.00    +0.000 S 
ATOM      2  O   UNL     1       6.247   3.998  15.646  0.00  0.00    +0.000 OA
ATOM      3  O   UNL     1       5.414   6.352  15.257  0.00  0.00    +0.000 OA
ENDROOT
BRANCH   1  10
ATOM      4  C   UNL     1       3.621   7.235  17.715  0.00  0.00    +0.000 C 
ATOM      5  C   UNL     1       3.300   5.768  17.631  0.00  0.00    +0.000 A 
ATOM      6  C   UNL     1       2.174   5.314  18.347  0.00  0.00    +0.000 A 
ATOM      7  C   UNL     1       1.820   3.964  18.365  0.00  0.00    +0.000 A 
ATOM      8  C   UNL     1       2.584   3.039  17.665  0.00  0.00    +0.000 A 
ATOM      9  C   UNL     1       3.708   3.463  16.954  0.00  0.00    +0.000 A 
ATOM     10  C   UNL     1       4.076   4.820  16.934  0.00  0.00    +0.000 A 
ENDBRANCH   1  10
BRANCH   1  11
ATOM     11  N   UNL     1       6.646   5.794  17.370  0.00  0.00    +0.000 N 
ATOM     12  C   UNL     1       7.316   6.987  17.340  0.00  0.00    +0.000 A 
ATOM     13  C   UNL     1       8.074   7.063  18.492  0.00  0.00    +0.000 A 
ATOM     14  C   UNL     1       7.840   5.878  19.234  0.00  0.00    +0.000 A 
ATOM     15  C   UNL     1       6.954   5.102  18.514  0.00  0.00    +0.000 A 
ENDBRANCH   1  11
TORSDOF 2
ENDMDL
MODEL 3
REMARK VINA RESULT:      -6.4      2.630      4.885
REMARK  Name = 
REMARK  3 active torsions:
REMARK  status: ('A' for Active; 'I' for Inactive)
REMARK    1  A    between atoms: C_1  and  C_2
REMARK    2  A    between atoms: C_7  and  S_8
REMARK    3  A    between atoms: S_8  and  N_11
REMARK                            x       y       z     vdW  Elec       q    Type
REMARK                         _______ _______ _______ _____ _____    ______ ____
ROOT
ATOM      1  S   UNL     1       4.346   5.668  18.488  0.00  0.00    +0.000 S 
ATOM      2  O   UNL     1       3.764   6.958  18.161  0.00  0.00    +0.000 OA
ATOM      3  O   UNL     1       5.206   5.508  19.647  0.00  0.00    +0.000 OA
ENDROOT
BRANCH   1  10
ATOM      4  C   UNL     1       1.812   5.531  20.527  0.00  0.00    +0.000 C 
ATOM      5  C   UNL     1       2.025   4.440  19.515  0.00  0.00    +0.000 A 
ATOM      6  C   UNL     1       1.153   3.334  19.570  0.00  0.00    +0.000 A 
ATOM      7  C   UNL     1       1.296   2.252  18.700  0.00  0.00    +0.000 A 
ATOM      8  C   UNL     1       2.313   2.255  17.754  0.00  0.00    +0.000 A 
ATOM      9  C   UNL     1       3.193   3.336  17.683  0.00  0.00    +0.000 A 
ATOM     10  C   UNL     1       3.060   4.429  18.559  0.00  0.00    +0.000 A 
ENDBRANCH   1  10
BRANCH   1  11
ATOM     11  N   UNL     1       5.318   5.247  17.154  0.00  0.00    +0.000 N 
ATOM     12  C   UNL     1       6.462   4.497  17.223  0.00  0.00    +0.000 A 
ATOM     13  C   UNL     1       6.984   4.425  15.947  0.00  0.00    +0.000 A 
ATOM     14  C   UNL     1       6.119   5.152  15.091  0.00  0.00    +0.000 A 
ATOM     15  C   UNL     1       5.093   5.657  15.865  0.00  0.00    +0.000 A 
ENDBRANCH   1  11
TORSDOF 2
ENDMDL
MODEL 4
REMARK VINA RESULT:      -6.4      1.570      2.377
REMARK  Name = 
REMARK  3 active torsions:
REMARK  status: ('A' for Active; 'I' for Inactive)
REMARK    1  A    between atoms: C_1  and  C_2
REMARK    2  A    between atoms: C_7  and  S_8
REMARK    3  A    between atoms: S_8  and  N_11
REMARK                            x       y       z     vdW  Elec       q    Type
REMARK                         _______ _______ _______ _____ _____    ______ ____
ROOT
ATOM      1  S   UNL     1       3.437   3.069  17.767  0.00  0.00    +0.000 S 
ATOM      2  O   UNL     1       2.583   3.532  16.687  0.00  0.00    +0.000 OA
ATOM      3  O   UNL     1       3.840   1.677  17.859  0.00  0.00    +0.000 OA
ENDROOT
BRANCH   1  10
ATOM      4  C   UNL     1       5.647   3.599  15.437  0.00  0.00    +0.000 C 
ATOM      5  C   UNL     1       5.821   4.220  16.795  0.00  0.00    +0.000 A 
ATOM      6  C   UNL     1       7.015   4.932  17.028  0.00  0.00    +0.000 A 
ATOM      7  C   UNL     1       7.287   5.507  18.270  0.00  0.00    +0.000 A 
ATOM      8  C   UNL     1       6.368   5.385  19.305  0.00  0.00    +0.000 A 
ATOM      9  C   UNL     1       5.182   4.679  19.102  0.00  0.00    +0.000 A 
ATOM     10  C   UNL     1       4.902   4.090  17.855  0.00  0.00    +0.000 A 
ENDBRANCH   1  10
BRANCH   1  11
ATOM     11  N   UNL     1       2.575   3.376  19.204  0.00  0.00    +0.000 N 
ATOM     12  C   UNL     1       2.657   2.623  20.345  0.00  0.00    +0.000 A 
ATOM     13  C   UNL     1       1.771   3.161  21.257  0.00  0.00    +0.000 A 
ATOM     14  C   UNL     1       1.146   4.274  20.640  0.00  0.00    +0.000 A 
ATOM     15  C   UNL     1       1.659   4.384  19.362  0.00  0.00    +0.000 A 
ENDBRANCH   1  11
TORSDOF 2
ENDMDL
MODEL 5
REMARK VINA RESULT:      -6.4      2.487      3.229
REMARK  Name = 
REMARK  3 active torsions:
REMARK  status: ('A' for Active; 'I' for Inactive)
REMARK    1  A    between atoms: C_1  and  C_2
REMARK    2  A    between atoms: C_7  and  S_8
REMARK    3  A    between atoms: S_8  and  N_11
REMARK                            x       y       z     vdW  Elec       q    Type
REMARK                         _______ _______ _______ _____ _____    ______ ____
ROOT
ATOM      1  S   UNL     1       4.714   4.220  19.041  0.00  0.00    +0.000 S 
ATOM      2  O   UNL     1       5.340   3.166  19.820  0.00  0.00    +0.000 OA
ATOM      3  O   UNL     1       4.522   5.548  19.596  0.00  0.00    +0.000 OA
ENDROOT
BRANCH   1  10
ATOM      4  C   UNL     1       7.697   5.386  18.463  0.00  0.00    +0.000 C 
ATOM      5  C   UNL     1       6.829   4.938  17.320  0.00  0.00    +0.000 A 
ATOM      6  C   UNL     1       7.323   5.147  16.017  0.00  0.00    +0.000 A 
ATOM      7  C   UNL     1       6.572   4.805  14.891  0.00  0.00    +0.000 A 
ATOM      8  C   UNL     1       5.311   4.242  15.046  0.00  0.00    +0.000 A 
ATOM      9  C   UNL     1       4.797   4.030  16.326  0.00  0.00    +0.000 A 
ATOM     10  C   UNL     1       5.544   4.378  17.466  0.00  0.00    +0.000 A 
ENDBRANCH   1  10
BRANCH   1  11
ATOM     11  N   UNL     1       3.146   3.660  18.681  0.00  0.00    +0.000 N 
ATOM     12  C   UNL     1       2.094   4.456  18.312  0.00  0.00    +0.000 A 
ATOM     13  C   UNL     1       0.991   3.638  18.164  0.00  0.00    +0.000 A 
ATOM     14  C   UNL     1       1.404   2.312  18.447  0.00  0.00    +0.000 A 
ATOM     15  C   UNL     1       2.745   2.352  18.771  0.00  0.00    +0.000 A 
ENDBRANCH   1  11
TORSDOF 2
ENDMDL
MODEL 6
REMARK VINA RESULT:      -6.4      1.860      2.307
REMARK  Name = 
REMARK  3 active torsions:
REMARK  status: ('A' for Active; 'I' for Inactive)
REMARK    1  A    between atoms: C_1  and  C_2
REMARK    2  A    between atoms: C_7  and  S_8
REMARK    3  A    between atoms: S_8  and  N_11
REMARK                            x       y       z     vdW  Elec       q    Type
REMARK                         _______ _______ _______ _____ _____    ______ ____
ROOT
ATOM      1  S   UNL     1       3.376   4.884  17.988  0.00  0.00    +0.000 S 
ATOM      2  O   UNL     1       2.432   5.977  17.840  0.00  0.00    +0.000 OA
ATOM      3  O   UNL     1       3.406   3.786  17.038  0.00  0.00    +0.000 OA
ENDROOT
BRANCH   1  10
ATOM      4  C   UNL     1       5.054   6.645  15.825  0.00  0.00    +0.000 C 
ATOM      5  C   UNL     1       5.686   6.256  17.133  0.00  0.00    +0.000 A 
ATOM      6  C   UNL     1       7.042   6.594  17.317  0.00  0.00    +0.000 A 
ATOM      7  C   UNL     1       7.728   6.238  18.478  0.00  0.00    +0.000 A 
ATOM      8  C   UNL     1       7.072   5.539  19.483  0.00  0.00    +0.000 A 
ATOM      9  C   UNL     1       5.731   5.187  19.323  0.00  0.00    +0.000 A 
ATOM     10  C   UNL     1       5.032   5.536  18.153  0.00  0.00    +0.000 A 
ENDBRANCH   1  10
BRANCH   1  11
ATOM     11  N   UNL     1       3.016   4.161  19.488  0.00  0.00    +0.000 N 
ATOM     12  C   UNL     1       3.276   2.856  19.814  0.00  0.00    +0.000 A 
ATOM     13  C   UNL     1       2.788   2.644  21.088  0.00  0.00    +0.000 A 
ATOM     14  C   UNL     1       2.225   3.866  21.536  0.00  0.00    +0.000 A 
ATOM     15  C   UNL     1       2.374   4.791  20.523  0.00  0.00    +0.000 A 
ENDBRANCH   1  11
TORSDOF 2
ENDMDL
MODEL 7
REMARK VINA RESULT:      -6.3      2.188      4.743
REMARK  Name = 
REMARK  3 active torsions:
REMARK  status: ('A' for Active; 'I' for Inactive)
REMARK    1  A    between atoms: C_1  and  C_2
REMARK    2  A    between atoms: C_7  and  S_8
REMARK    3  A    between atoms: S_8  and  N_11
REMARK                            x       y       z     vdW  Elec       q    Type
REMARK                         _______ _______ _______ _____ _____    ______ ____
ROOT
ATOM      1  S   UNL     1       4.767   4.115  18.339  0.00  0.00    +0.000 S 
ATOM      2  O   UNL     1       5.781   3.977  19.368  0.00  0.00    +0.000 OA
ATOM      3  O   UNL     1       3.836   3.036  18.056  0.00  0.00    +0.000 OA
ENDROOT
BRANCH   1  10
ATOM      4  C   UNL     1       2.596   4.717  20.688  0.00  0.00    +0.000 C 
ATOM      5  C   UNL     1       2.881   5.757  19.640  0.00  0.00    +0.000 A 
ATOM      6  C   UNL     1       2.099   6.930  19.669  0.00  0.00    +0.000 A 
ATOM      7  C   UNL     1       2.259   7.934  18.713  0.00  0.00    +0.000 A 
ATOM      8  C   UNL     1       3.209   7.788  17.709  0.00  0.00    +0.000 A 
ATOM      9  C   UNL     1       3.991   6.634  17.656  0.00  0.00    +0.000 A 
ATOM     10  C   UNL     1       3.833   5.614  18.611  0.00  0.00    +0.000 A 
ENDBRANCH   1  10
BRANCH   1  11
ATOM     11  N   UNL     1       5.616   4.359  16.882  0.00  0.00    +0.000 N 
ATOM     12  C   UNL     1       5.113   4.121  15.631  0.00  0.00    +0.000 A 
ATOM     13  C   UNL     1       6.120   4.388  14.725  0.00  0.00    +0.000 A 
ATOM     14  C   UNL     1       7.257   4.804  15.462  0.00  0.00    +0.000 A 
ATOM     15  C   UNL     1       6.921   4.773  16.801  0.00  0.00    +0.000 A 
ENDBRANCH   1  11
TORSDOF 2
ENDMDL
MODEL 8
REMARK VINA RESULT:      -6.2      1.371      2.471
REMARK  Name = 
REMARK  3 active torsions:
REMARK  status: ('A' for Active; 'I' for Inactive)
REMARK    1  A    between atoms: C_1  and  C_2
REMARK    2  A    between atoms: C_7  and  S_8
REMARK    3  A    between atoms: S_8  and  N_11
REMARK                            x       y       z     vdW  Elec       q    Type
REMARK                         _______ _______ _______ _____ _____    ______ ____
ROOT
ATOM      1  S   UNL     1       4.059   3.055  18.656  0.00  0.00    +0.000 S 
ATOM      2  O   UNL     1       3.803   2.019  17.672  0.00  0.00    +0.000 OA
ATOM      3  O   UNL     1       5.193   2.966  19.560  0.00  0.00    +0.000 OA
ENDROOT
BRANCH   1  10
ATOM      4  C   UNL     1       5.842   3.959  16.087  0.00  0.00    +0.000 C 
ATOM      5  C   UNL     1       4.941   4.953  16.767  0.00  0.00    +0.000 A 
ATOM      6  C   UNL     1       4.994   6.285  16.310  0.00  0.00    +0.000 A 
ATOM      7  C   UNL     1       4.228   7.288  16.906  0.00  0.00    +0.000 A 
ATOM      8  C   UNL     1       3.390   6.979  17.969  0.00  0.00    +0.000 A 
ATOM      9  C   UNL     1       3.324   5.669  18.444  0.00  0.00    +0.000 A 
ATOM     10  C   UNL     1       4.097   4.652  17.855  0.00  0.00    +0.000 A 
ENDBRANCH   1  10
BRANCH   1  11
ATOM     11  N   UNL     1       2.689   3.081  19.669  0.00  0.00    +0.000 N 
ATOM     12  C   UNL     1       2.722   3.020  21.037  0.00  0.00    +0.000 A 
ATOM     13  C   UNL     1       1.415   3.011  21.480  0.00  0.00    +0.000 A 
ATOM     14  C   UNL     1       0.577   3.075  20.338  0.00  0.00    +0.000 A 
ATOM     15  C   UNL     1       1.392   3.112  19.224  0.00  0.00    +0.000 A 
ENDBRANCH   1  11
TORSDOF 2
ENDMDL
MODEL 9
REMARK VINA RESULT:      -6.2      1.398      2.603
REMARK  Name = 
REMARK  3 active torsions:
REMARK  status: ('A' for Active; 'I' for Inactive)
REMARK    1  A    between atoms: C_1  and  C_2
REMARK    2  A    between atoms: C_7  and  S_8
REMARK    3  A    between atoms: S_8  and  N_11
REMARK                            x       y       z     vdW  Elec       q    Type
REMARK                         _______ _______ _______ _____ _____    ______ ____
ROOT
ATOM      1  S   UNL     1       4.063   3.183  18.675  0.00  0.00    +0.000 S 
ATOM      2  O   UNL     1       3.849   2.207  17.622  0.00  0.00    +0.000 OA
ATOM      3  O   UNL     1       5.233   3.114  19.533  0.00  0.00    +0.000 OA
ENDROOT
BRANCH   1  10
ATOM      4  C   UNL     1       5.847   4.485  16.283  0.00  0.00    +0.000 C 
ATOM      5  C   UNL     1       4.807   5.314  16.985  0.00  0.00    +0.000 A 
ATOM      6  C   UNL     1       4.726   6.676  16.632  0.00  0.00    +0.000 A 
ATOM      7  C   UNL     1       3.822   7.536  17.258  0.00  0.00    +0.000 A 
ATOM      8  C   UNL     1       2.977   7.050  18.247  0.00  0.00    +0.000 A 
ATOM      9  C   UNL     1       3.042   5.707  18.618  0.00  0.00    +0.000 A 
ATOM     10  C   UNL     1       3.953   4.834  17.998  0.00  0.00    +0.000 A 
ENDBRANCH   1  10
BRANCH   1  11
ATOM     11  N   UNL     1       2.733   3.028  19.728  0.00  0.00    +0.000 N 
ATOM     12  C   UNL     1       1.420   3.040  19.341  0.00  0.00    +0.000 A 
ATOM     13  C   UNL     1       0.652   2.946  20.485  0.00  0.00    +0.000 A 
ATOM     14  C   UNL     1       1.540   2.869  21.588  0.00  0.00    +0.000 A 
ATOM     15  C   UNL     1       2.828   2.927  21.093  0.00  0.00    +0.000 A 
ENDBRANCH   1  11
TORSDOF 2
ENDMDL
