MODEL 1
REMARK VINA RESULT:      -8.4      0.000      0.000
REMARK  Name = 
REMARK  9 active torsions:
REMARK  status: ('A' for Active; 'I' for Inactive)
REMARK    1  A    between atoms: C_2  and  C_15
REMARK    2  A    between atoms: N_3  and  C_4
REMARK    3  A    between atoms: C_7  and  C_8
REMARK    4  A    between atoms: C_8  and  P_9
REMARK    5  A    between atoms: P_9  and  O_11
REMARK    6  A    between atoms: P_9  and  O_12
REMARK    7  A    between atoms: C_19  and  O_21
REMARK    8  A    between atoms: O_21  and  C_22
REMARK    9  A    between atoms: C_22  and  C_23
REMARK                            x       y       z     vdW  Elec       q    Type
REMARK                         _______ _______ _______ _____ _____    ______ ____
ROOT
ATOM      1  O   UNL     1       1.666   5.477  17.926  0.00  0.00    +0.000 OA
ATOM      2  C   UNL     1       2.557   5.646  18.754  0.00  0.00    +0.000 C 
ATOM      3  N   UNL     1       2.730   6.786  19.512  0.00  0.00    +0.000 N 
ATOM      4  H   UNL     1       3.567   6.868  20.076  0.00  0.00    +0.000 HD
ENDROOT
BRANCH   2   5
ATOM      5  C   UNL     1       3.587   4.549  19.035  0.00  0.00    +0.000 C 
ATOM      6  C   UNL     1       4.997   5.097  19.289  0.00  0.00    +0.000 C 
ATOM      7  C   UNL     1       5.589   5.692  18.020  0.00  0.00    +0.000 C 
ATOM      8  N   UNL     1       5.613   4.692  16.967  0.00  0.00    +0.000 N 
ATOM      9  C   UNL     1       6.737   4.617  16.159  0.00  0.00    +0.000 C 
ATOM     10  O   UNL     1       7.762   5.257  16.374  0.00  0.00    +0.000 OA
ATOM     11  C   UNL     1       4.326   4.087  16.626  0.00  0.00    +0.000 C 
ATOM     12  C   UNL     1       3.625   3.535  17.872  0.00  0.00    +0.000 C 
BRANCH   9  13
ATOM     13  O   UNL     1       6.570   3.795  15.091  0.00  0.00    +0.000 OA
BRANCH  13  14
ATOM     14  C   UNL     1       6.663   4.436  13.815  0.00  0.00    +0.000 C 
BRANCH  14  15
ATOM     15  C   UNL     1       6.042   3.610  12.714  0.00  0.00    +0.000 A 
ATOM     16  C   UNL     1       6.759   2.565  12.117  0.00  0.00    +0.000 A 
ATOM     17  C   UNL     1       6.152   1.753  11.158  0.00  0.00    +0.000 A 
ATOM     18  C   UNL     1       4.833   1.992  10.771  0.00  0.00    +0.000 A 
ATOM     19  C   UNL     1       4.121   3.048  11.337  0.00  0.00    +0.000 A 
ATOM     20  C   UNL     1       4.723   3.859  12.302  0.00  0.00    +0.000 A 
ENDBRANCH  14  15
ENDBRANCH  13  14
ENDBRANCH   9  13
ENDBRANCH   2   5
BRANCH   3  21
ATOM     21  C   UNL     1       1.914   7.935  19.469  0.00  0.00    +0.000 A 
ATOM     22  C   UNL     1       1.753   8.706  18.315  0.00  0.00    +0.000 A 
ATOM     23  C   UNL     1       0.939   9.835  18.322  0.00  0.00    +0.000 A 
ATOM     24  C   UNL     1       0.276  10.206  19.490  0.00  0.00    +0.000 A 
ATOM     25  C   UNL     1       0.427   9.436  20.648  0.00  0.00    +0.000 A 
ATOM     26  C   UNL     1       1.235   8.299  20.635  0.00  0.00    +0.000 A 
BRANCH  24  27
ATOM     27  C   UNL     1      -0.718  11.337  19.462  0.00  0.00    +0.000 C 
BRANCH  27  28
ATOM     28  P   UNL     1      -1.505  11.409  17.811  0.00  0.00    +0.000 P 
ATOM     29  O   UNL     1      -2.902  11.430  18.431  0.00  0.00    +0.000 OA
BRANCH  28  30
ATOM     30  O   UNL     1      -1.051  12.972  17.621  0.00  0.00    +0.000 OA
ATOM     31  H   UNL     1      -0.940  13.454  18.460  0.00  0.00    +0.000 HD
ENDBRANCH  28  30
BRANCH  28  32
ATOM     32  O   UNL     1      -2.247  11.476  16.251  0.00  0.00    +0.000 OA
ATOM     33  H   UNL     1      -2.080  12.402  15.969  0.00  0.00    +0.000 HD
ENDBRANCH  28  32
ENDBRANCH  27  28
ENDBRANCH  24  27
ENDBRANCH   3  21
TORSDOF 9
ENDMDL
MODEL 2
REMARK VINA RESULT:      -7.8      0.733      1.203
REMARK  Name = 
REMARK  9 active torsions:
REMARK  status: ('A' for Active; 'I' for Inactive)
REMARK    1  A    between atoms: C_2  and  C_15
REMARK    2  A    between atoms: N_3  and  C_4
REMARK    3  A    between atoms: C_7  and  C_8
REMARK    4  A    between atoms: C_8  and  P_9
REMARK    5  A    between atoms: P_9  and  O_11
REMARK    6  A    between atoms: P_9  and  O_12
REMARK    7  A    between atoms: C_19  and  O_21
REMARK    8  A    between atoms: O_21  and  C_22
REMARK    9  A    between atoms: C_22  and  C_23
REMARK                            x       y       z     vdW  Elec       q    Type
REMARK                         _______ _______ _______ _____ _____    ______ ____
ROOT
ATOM      1  O   UNL     1       1.827   5.007  20.040  0.00  0.00    +0.000 OA
ATOM      2  C   UNL     1       2.903   5.432  19.628  0.00  0.00    +0.000 C 
ATOM      3  N   UNL     1       3.147   6.736  19.246  0.00  0.00    +0.000 N 
ATOM      4  H   UNL     1       4.033   6.952  18.807  0.00  0.00    +0.000 HD
ENDROOT
BRANCH   2   5
ATOM      5  C   UNL     1       4.119   4.511  19.513  0.00  0.00    +0.000 C 
ATOM      6  C   UNL     1       5.442   5.274  19.359  0.00  0.00    +0.000 C 
ATOM      7  C   UNL     1       5.515   5.973  18.011  0.00  0.00    +0.000 C 
ATOM      8  N   UNL     1       5.359   5.004  16.940  0.00  0.00    +0.000 N 
ATOM      9  C   UNL     1       6.174   5.121  15.825  0.00  0.00    +0.000 C 
ATOM     10  O   UNL     1       7.109   5.913  15.757  0.00  0.00    +0.000 OA
ATOM     11  C   UNL     1       4.134   4.206  16.970  0.00  0.00    +0.000 C 
ATOM     12  C   UNL     1       3.944   3.532  18.333  0.00  0.00    +0.000 C 
BRANCH   9  13
ATOM     13  O   UNL     1       5.808   4.297  14.809  0.00  0.00    +0.000 OA
BRANCH  13  14
ATOM     14  C   UNL     1       6.209   4.731  13.506  0.00  0.00    +0.000 C 
BRANCH  14  15
ATOM     15  C   UNL     1       6.228   3.598  12.507  0.00  0.00    +0.000 A 
ATOM     16  C   UNL     1       7.442   3.121  11.996  0.00  0.00    +0.000 A 
ATOM     17  C   UNL     1       7.458   2.021  11.137  0.00  0.00    +0.000 A 
ATOM     18  C   UNL     1       6.264   1.403  10.764  0.00  0.00    +0.000 A 
ATOM     19  C   UNL     1       5.050   1.890  11.245  0.00  0.00    +0.000 A 
ATOM     20  C   UNL     1       5.028   2.987  12.110  0.00  0.00    +0.000 A 
ENDBRANCH  14  15
ENDBRANCH  13  14
ENDBRANCH   9  13
ENDBRANCH   2   5
BRANCH   3  21
ATOM     21  C   UNL     1       2.212   7.790  19.272  0.00  0.00    +0.000 A 
ATOM     22  C   UNL     1       1.543   8.182  20.435  0.00  0.00    +0.000 A 
ATOM     23  C   UNL     1       0.625   9.228  20.409  0.00  0.00    +0.000 A 
ATOM     24  C   UNL     1       0.366   9.896  19.214  0.00  0.00    +0.000 A 
ATOM     25  C   UNL     1       1.037   9.515  18.047  0.00  0.00    +0.000 A 
ATOM     26  C   UNL     1       1.964   8.473  18.078  0.00  0.00    +0.000 A 
BRANCH  24  27
ATOM     27  C   UNL     1      -0.512  11.120  19.213  0.00  0.00    +0.000 C 
BRANCH  27  28
ATOM     28  P   UNL     1      -1.415  11.212  17.624  0.00  0.00    +0.000 P 
ATOM     29  O   UNL     1      -2.761  11.057  18.332  0.00  0.00    +0.000 OA
BRANCH  28  30
ATOM     30  O   UNL     1      -1.127  12.821  17.510  0.00  0.00    +0.000 OA
ATOM     31  H   UNL     1      -1.069  13.148  16.594  0.00  0.00    +0.000 HD
ENDBRANCH  28  30
BRANCH  28  32
ATOM     32  O   UNL     1      -2.268  11.299  16.122  0.00  0.00    +0.000 OA
ATOM     33  H   UNL     1      -1.614  10.949  15.479  0.00  0.00    +0.000 HD
ENDBRANCH  28  32
ENDBRANCH  27  28
ENDBRANCH  24  27
ENDBRANCH   3  21
TORSDOF 9
ENDMDL
MODEL 3
REMARK VINA RESULT:      -7.6      1.181      1.907
REMARK  Name = 
REMARK  9 active torsions:
REMARK  status: ('A' for Active; 'I' for Inactive)
REMARK    1  A    between atoms: C_2  and  C_15
REMARK    2  A    between atoms: N_3  and  C_4
REMARK    3  A    between atoms: C_7  and  C_8
REMARK    4  A    between atoms: C_8  and  P_9
REMARK    5  A    between atoms: P_9  and  O_11
REMARK    6  A    between atoms: P_9  and  O_12
REMARK    7  A    between atoms: C_19  and  O_21
REMARK    8  A    between atoms: O_21  and  C_22
REMARK    9  A    between atoms: C_22  and  C_23
REMARK                            x       y       z     vdW  Elec       q    Type
REMARK                         _______ _______ _______ _____ _____    ______ ____
ROOT
ATOM      1  O   UNL     1       1.233   4.584  18.493  0.00  0.00    +0.000 OA
ATOM      2  C   UNL     1       2.377   4.719  18.918  0.00  0.00    +0.000 C 
ATOM      3  N   UNL     1       2.926   5.907  19.355  0.00  0.00    +0.000 N 
ATOM      4  H   UNL     1       3.915   5.932  19.569  0.00  0.00    +0.000 HD
ENDROOT
BRANCH   2   5
ATOM      5  C   UNL     1       3.326   3.522  19.011  0.00  0.00    +0.000 C 
ATOM      6  C   UNL     1       4.501   3.758  19.971  0.00  0.00    +0.000 C 
ATOM      7  C   UNL     1       5.456   4.805  19.418  0.00  0.00    +0.000 C 
ATOM      8  N   UNL     1       5.940   4.395  18.111  0.00  0.00    +0.000 N 
ATOM      9  C   UNL     1       7.280   4.590  17.817  0.00  0.00    +0.000 C 
ATOM     10  O   UNL     1       8.102   4.961  18.649  0.00  0.00    +0.000 OA
ATOM     11  C   UNL     1       4.916   4.137  17.099  0.00  0.00    +0.000 C 
ATOM     12  C   UNL     1       3.863   3.149  17.615  0.00  0.00    +0.000 C 
BRANCH   9  13
ATOM     13  O   UNL     1       7.576   4.362  16.511  0.00  0.00    +0.000 OA
BRANCH  13  14
ATOM     14  C   UNL     1       7.064   5.338  15.597  0.00  0.00    +0.000 C 
BRANCH  14  15
ATOM     15  C   UNL     1       6.938   4.794  14.194  0.00  0.00    +0.000 A 
ATOM     16  C   UNL     1       5.986   3.812  13.894  0.00  0.00    +0.000 A 
ATOM     17  C   UNL     1       5.819   3.373  12.580  0.00  0.00    +0.000 A 
ATOM     18  C   UNL     1       6.614   3.894  11.559  0.00  0.00    +0.000 A 
ATOM     19  C   UNL     1       7.584   4.851  11.853  0.00  0.00    +0.000 A 
ATOM     20  C   UNL     1       7.751   5.298  13.166  0.00  0.00    +0.000 A 
ENDBRANCH  14  15
ENDBRANCH  13  14
ENDBRANCH   9  13
ENDBRANCH   2   5
BRANCH   3  21
ATOM     21  C   UNL     1       2.267   7.153  19.396  0.00  0.00    +0.000 A 
ATOM     22  C   UNL     1       1.575   7.608  20.521  0.00  0.00    +0.000 A 
ATOM     23  C   UNL     1       0.937   8.845  20.511  0.00  0.00    +0.000 A 
ATOM     24  C   UNL     1       0.985   9.643  19.370  0.00  0.00    +0.000 A 
ATOM     25  C   UNL     1       1.682   9.197  18.241  0.00  0.00    +0.000 A 
ATOM     26  C   UNL     1       2.329   7.962  18.257  0.00  0.00    +0.000 A 
BRANCH  24  27
ATOM     27  C   UNL     1       0.425  11.041  19.405  0.00  0.00    +0.000 C 
BRANCH  27  28
ATOM     28  P   UNL     1      -0.774  11.245  18.038  0.00  0.00    +0.000 P 
ATOM     29  O   UNL     1      -1.953  11.221  19.012  0.00  0.00    +0.000 OA
BRANCH  28  30
ATOM     30  O   UNL     1      -0.351  12.816  17.851  0.00  0.00    +0.000 OA
ATOM     31  H   UNL     1      -0.228  13.294  18.691  0.00  0.00    +0.000 HD
ENDBRANCH  28  30
BRANCH  28  32
ATOM     32  O   UNL     1      -1.907  11.438  16.745  0.00  0.00    +0.000 OA
ATOM     33  H   UNL     1      -2.378  10.576  16.738  0.00  0.00    +0.000 HD
ENDBRANCH  28  32
ENDBRANCH  27  28
ENDBRANCH  24  27
ENDBRANCH   3  21
TORSDOF 9
ENDMDL
MODEL 4
REMARK VINA RESULT:      -7.5      0.980      1.620
REMARK  Name = 
REMARK  9 active torsions:
REMARK  status: ('A' for Active; 'I' for Inactive)
REMARK    1  A    between atoms: C_2  and  C_15
REMARK    2  A    between atoms: N_3  and  C_4
REMARK    3  A    between atoms: C_7  and  C_8
REMARK    4  A    between atoms: C_8  and  P_9
REMARK    5  A    between atoms: P_9  and  O_11
REMARK    6  A    between atoms: P_9  and  O_12
REMARK    7  A    between atoms: C_19  and  O_21
REMARK    8  A    between atoms: O_21  and  C_22
REMARK    9  A    between atoms: C_22  and  C_23
REMARK                            x       y       z     vdW  Elec       q    Type
REMARK                         _______ _______ _______ _____ _____    ______ ____
ROOT
ATOM      1  O   UNL     1       1.441   5.132  18.189  0.00  0.00    +0.000 OA
ATOM      2  C   UNL     1       2.518   5.308  18.753  0.00  0.00    +0.000 C 
ATOM      3  N   UNL     1       2.975   6.520  19.230  0.00  0.00    +0.000 N 
ATOM      4  H   UNL     1       3.928   6.577  19.567  0.00  0.00    +0.000 HD
ENDROOT
BRANCH   2   5
ATOM      5  C   UNL     1       3.479   4.141  18.992  0.00  0.00    +0.000 C 
ATOM      6  C   UNL     1       4.897   4.595  19.362  0.00  0.00    +0.000 C 
ATOM      7  C   UNL     1       5.585   5.260  18.180  0.00  0.00    +0.000 C 
ATOM      8  N   UNL     1       5.620   4.349  17.049  0.00  0.00    +0.000 N 
ATOM      9  C   UNL     1       6.782   4.284  16.296  0.00  0.00    +0.000 C 
ATOM     10  O   UNL     1       7.822   4.850  16.615  0.00  0.00    +0.000 OA
ATOM     11  C   UNL     1       4.327   3.840  16.594  0.00  0.00    +0.000 C 
ATOM     12  C   UNL     1       3.534   3.225  17.752  0.00  0.00    +0.000 C 
BRANCH   9  13
ATOM     13  O   UNL     1       6.636   3.560  15.155  0.00  0.00    +0.000 OA
BRANCH  13  14
ATOM     14  C   UNL     1       6.648   4.328  13.948  0.00  0.00    +0.000 C 
BRANCH  14  15
ATOM     15  C   UNL     1       5.990   3.599  12.800  0.00  0.00    +0.000 A 
ATOM     16  C   UNL     1       6.635   2.522  12.178  0.00  0.00    +0.000 A 
ATOM     17  C   UNL     1       5.987   1.801  11.174  0.00  0.00    +0.000 A 
ATOM     18  C   UNL     1       4.703   2.163  10.767  0.00  0.00    +0.000 A 
ATOM     19  C   UNL     1       4.066   3.252  11.359  0.00  0.00    +0.000 A 
ATOM     20  C   UNL     1       4.707   3.973  12.370  0.00  0.00    +0.000 A 
ENDBRANCH  14  15
ENDBRANCH  13  14
ENDBRANCH   9  13
ENDBRANCH   2   5
BRANCH   3  21
ATOM     21  C   UNL     1       2.284   7.747  19.160  0.00  0.00    +0.000 A 
ATOM     22  C   UNL     1       1.548   8.264  20.229  0.00  0.00    +0.000 A 
ATOM     23  C   UNL     1       0.878   9.479  20.110  0.00  0.00    +0.000 A 
ATOM     24  C   UNL     1       0.940  10.191  18.914  0.00  0.00    +0.000 A 
ATOM     25  C   UNL     1       1.682   9.684  17.842  0.00  0.00    +0.000 A 
ATOM     26  C   UNL     1       2.359   8.471  17.967  0.00  0.00    +0.000 A 
BRANCH  24  27
ATOM     27  C   UNL     1       0.344  11.572  18.831  0.00  0.00    +0.000 C 
BRANCH  27  28
ATOM     28  P   UNL     1      -0.917  11.765  20.143  0.00  0.00    +0.000 P 
ATOM     29  O   UNL     1      -0.998  13.273  19.902  0.00  0.00    +0.000 OA
BRANCH  28  30
ATOM     30  O   UNL     1      -2.062  11.075  19.196  0.00  0.00    +0.000 OA
ATOM     31  H   UNL     1      -2.949  11.465  19.302  0.00  0.00    +0.000 HD
ENDBRANCH  28  30
BRANCH  28  32
ATOM     32  O   UNL     1      -2.108  11.947  21.384  0.00  0.00    +0.000 OA
ATOM     33  H   UNL     1      -2.918  12.175  20.877  0.00  0.00    +0.000 HD
ENDBRANCH  28  32
ENDBRANCH  27  28
ENDBRANCH  24  27
ENDBRANCH   3  21
TORSDOF 9
ENDMDL
MODEL 5
REMARK VINA RESULT:      -7.4      1.734      2.373
REMARK  Name = 
REMARK  9 active torsions:
REMARK  status: ('A' for Active; 'I' for Inactive)
REMARK    1  A    between atoms: C_2  and  C_15
REMARK    2  A    between atoms: N_3  and  C_4
REMARK    3  A    between atoms: C_7  and  C_8
REMARK    4  A    between atoms: C_8  and  P_9
REMARK    5  A    between atoms: P_9  and  O_11
REMARK    6  A    between atoms: P_9  and  O_12
REMARK    7  A    between atoms: C_19  and  O_21
REMARK    8  A    between atoms: O_21  and  C_22
REMARK    9  A    between atoms: C_22  and  C_23
REMARK                            x       y       z     vdW  Elec       q    Type
REMARK                         _______ _______ _______ _____ _____    ______ ____
ROOT
ATOM      1  O   UNL     1       1.628   4.703  19.257  0.00  0.00    +0.000 OA
ATOM      2  C   UNL     1       2.743   5.101  18.928  0.00  0.00    +0.000 C 
ATOM      3  N   UNL     1       3.114   6.427  18.826  0.00  0.00    +0.000 N 
ATOM      4  H   UNL     1       4.019   6.645  18.428  0.00  0.00    +0.000 HD
ENDROOT
BRANCH   2   5
ATOM      5  C   UNL     1       3.864   4.113  18.600  0.00  0.00    +0.000 C 
ATOM      6  C   UNL     1       5.259   4.642  18.963  0.00  0.00    +0.000 C 
ATOM      7  C   UNL     1       5.657   5.797  18.057  0.00  0.00    +0.000 C 
ATOM      8  N   UNL     1       5.617   5.376  16.668  0.00  0.00    +0.000 N 
ATOM      9  C   UNL     1       6.639   5.789  15.828  0.00  0.00    +0.000 C 
ATOM     10  O   UNL     1       7.641   6.375  16.226  0.00  0.00    +0.000 OA
ATOM     11  C   UNL     1       4.339   4.849  16.193  0.00  0.00    +0.000 C 
ATOM     12  C   UNL     1       3.826   3.729  17.107  0.00  0.00    +0.000 C 
BRANCH   9  13
ATOM     13  O   UNL     1       6.397   5.512  14.520  0.00  0.00    +0.000 OA
BRANCH  13  14
ATOM     14  C   UNL     1       7.114   4.388  13.999  0.00  0.00    +0.000 C 
BRANCH  14  15
ATOM     15  C   UNL     1       6.317   3.633  12.962  0.00  0.00    +0.000 A 
ATOM     16  C   UNL     1       4.971   3.944  12.734  0.00  0.00    +0.000 A 
ATOM     17  C   UNL     1       4.263   3.299  11.718  0.00  0.00    +0.000 A 
ATOM     18  C   UNL     1       4.886   2.325  10.938  0.00  0.00    +0.000 A 
ATOM     19  C   UNL     1       6.217   1.988  11.177  0.00  0.00    +0.000 A 
ATOM     20  C   UNL     1       6.932   2.635  12.189  0.00  0.00    +0.000 A 
ENDBRANCH  14  15
ENDBRANCH  13  14
ENDBRANCH   9  13
ENDBRANCH   2   5
BRANCH   3  21
ATOM     21  C   UNL     1       2.285   7.537  19.089  0.00  0.00    +0.000 A 
ATOM     22  C   UNL     1       1.784   7.823  20.361  0.00  0.00    +0.000 A 
ATOM     23  C   UNL     1       0.966   8.930  20.571  0.00  0.00    +0.000 A 
ATOM     24  C   UNL     1       0.640   9.764  19.505  0.00  0.00    +0.000 A 
ATOM     25  C   UNL     1       1.144   9.488  18.229  0.00  0.00    +0.000 A 
ATOM     26  C   UNL     1       1.971   8.385  18.023  0.00  0.00    +0.000 A 
BRANCH  24  27
ATOM     27  C   UNL     1      -0.119  11.041  19.754  0.00  0.00    +0.000 C 
BRANCH  27  28
ATOM     28  P   UNL     1      -0.365  11.255  21.555  0.00  0.00    +0.000 P 
ATOM     29  O   UNL     1       0.775  12.271  21.633  0.00  0.00    +0.000 OA
BRANCH  28  30
ATOM     30  O   UNL     1      -1.740  12.109  21.305  0.00  0.00    +0.000 OA
ATOM     31  H   UNL     1      -1.912  12.787  21.982  0.00  0.00    +0.000 HD
ENDBRANCH  28  30
BRANCH  28  32
ATOM     32  O   UNL     1      -0.597  11.456  23.257  0.00  0.00    +0.000 OA
ATOM     33  H   UNL     1      -1.545  11.232  23.376  0.00  0.00    +0.000 HD
ENDBRANCH  28  32
ENDBRANCH  27  28
ENDBRANCH  24  27
ENDBRANCH   3  21
TORSDOF 9
ENDMDL
MODEL 6
REMARK VINA RESULT:      -7.4      1.361      2.047
REMARK  Name = 
REMARK  9 active torsions:
REMARK  status: ('A' for Active; 'I' for Inactive)
REMARK    1  A    between atoms: C_2  and  C_15
REMARK    2  A    between atoms: N_3  and  C_4
REMARK    3  A    between atoms: C_7  and  C_8
REMARK    4  A    between atoms: C_8  and  P_9
REMARK    5  A    between atoms: P_9  and  O_11
REMARK    6  A    between atoms: P_9  and  O_12
REMARK    7  A    between atoms: C_19  and  O_21
REMARK    8  A    between atoms: O_21  and  C_22
REMARK    9  A    between atoms: C_22  and  C_23
REMARK                            x       y       z     vdW  Elec       q    Type
REMARK                         _______ _______ _______ _____ _____    ______ ____
ROOT
ATOM      1  O   UNL     1       2.140   5.881  17.857  0.00  0.00    +0.000 OA
ATOM      2  C   UNL     1       2.730   5.740  18.925  0.00  0.00    +0.000 C 
ATOM      3  N   UNL     1       2.631   6.594  20.005  0.00  0.00    +0.000 N 
ATOM      4  H   UNL     1       3.254   6.452  20.790  0.00  0.00    +0.000 HD
ENDROOT
BRANCH   2   5
ATOM      5  C   UNL     1       3.656   4.544  19.159  0.00  0.00    +0.000 C 
ATOM      6  C   UNL     1       5.116   4.950  19.398  0.00  0.00    +0.000 C 
ATOM      7  C   UNL     1       5.739   5.519  18.132  0.00  0.00    +0.000 C 
ATOM      8  N   UNL     1       5.650   4.548  17.055  0.00  0.00    +0.000 N 
ATOM      9  C   UNL     1       6.747   4.389  16.223  0.00  0.00    +0.000 C 
ATOM     10  O   UNL     1       7.832   4.923  16.433  0.00  0.00    +0.000 OA
ATOM     11  C   UNL     1       4.306   4.077  16.726  0.00  0.00    +0.000 C 
ATOM     12  C   UNL     1       3.577   3.562  17.972  0.00  0.00    +0.000 C 
BRANCH   9  13
ATOM     13  O   UNL     1       6.484   3.613  15.139  0.00  0.00    +0.000 OA
BRANCH  13  14
ATOM     14  C   UNL     1       6.524   4.298  13.883  0.00  0.00    +0.000 C 
BRANCH  14  15
ATOM     15  C   UNL     1       5.863   3.506  12.780  0.00  0.00    +0.000 A 
ATOM     16  C   UNL     1       4.600   3.873  12.299  0.00  0.00    +0.000 A 
ATOM     17  C   UNL     1       4.031   3.187  11.225  0.00  0.00    +0.000 A 
ATOM     18  C   UNL     1       4.707   2.117  10.638  0.00  0.00    +0.000 A 
ATOM     19  C   UNL     1       5.951   1.726  11.129  0.00  0.00    +0.000 A 
ATOM     20  C   UNL     1       6.528   2.414  12.200  0.00  0.00    +0.000 A 
ENDBRANCH  14  15
ENDBRANCH  13  14
ENDBRANCH   9  13
ENDBRANCH   2   5
BRANCH   3  21
ATOM     21  C   UNL     1       1.836   7.757  20.066  0.00  0.00    +0.000 A 
ATOM     22  C   UNL     1       1.073   8.094  21.186  0.00  0.00    +0.000 A 
ATOM     23  C   UNL     1       0.301   9.253  21.198  0.00  0.00    +0.000 A 
ATOM     24  C   UNL     1       0.285  10.088  20.083  0.00  0.00    +0.000 A 
ATOM     25  C   UNL     1       1.052   9.760  18.959  0.00  0.00    +0.000 A 
ATOM     26  C   UNL     1       1.833   8.604  18.955  0.00  0.00    +0.000 A 
BRANCH  24  27
ATOM     27  C   UNL     1      -0.429  11.412  20.146  0.00  0.00    +0.000 C 
BRANCH  27  28
ATOM     28  P   UNL     1       0.733  12.747  19.680  0.00  0.00    +0.000 P 
ATOM     29  O   UNL     1      -0.373  13.799  19.770  0.00  0.00    +0.000 OA
BRANCH  28  30
ATOM     30  O   UNL     1       1.449  12.689  21.152  0.00  0.00    +0.000 OA
ATOM     31  H   UNL     1       2.423  12.674  21.117  0.00  0.00    +0.000 HD
ENDBRANCH  28  30
BRANCH  28  32
ATOM     32  O   UNL     1       1.832  14.008  19.238  0.00  0.00    +0.000 OA
ATOM     33  H   UNL     1       1.630  14.712  19.892  0.00  0.00    +0.000 HD
ENDBRANCH  28  32
ENDBRANCH  27  28
ENDBRANCH  24  27
ENDBRANCH   3  21
TORSDOF 9
ENDMDL
MODEL 7
REMARK VINA RESULT:      -7.4      1.483      2.285
REMARK  Name = 
REMARK  9 active torsions:
REMARK  status: ('A' for Active; 'I' for Inactive)
REMARK    1  A    between atoms: C_2  and  C_15
REMARK    2  A    between atoms: N_3  and  C_4
REMARK    3  A    between atoms: C_7  and  C_8
REMARK    4  A    between atoms: C_8  and  P_9
REMARK    5  A    between atoms: P_9  and  O_11
REMARK    6  A    between atoms: P_9  and  O_12
REMARK    7  A    between atoms: C_19  and  O_21
REMARK    8  A    between atoms: O_21  and  C_22
REMARK    9  A    between atoms: C_22  and  C_23
REMARK                            x       y       z     vdW  Elec       q    Type
REMARK                         _______ _______ _______ _____ _____    ______ ____
ROOT
ATOM      1  O   UNL     1       1.350   4.737  18.340  0.00  0.00    +0.000 OA
ATOM      2  C   UNL     1       2.379   4.792  19.008  0.00  0.00    +0.000 C 
ATOM      3  N   UNL     1       2.801   5.892  19.726  0.00  0.00    +0.000 N 
ATOM      4  H   UNL     1       3.724   5.872  20.142  0.00  0.00    +0.000 HD
ENDROOT
BRANCH   2   5
ATOM      5  C   UNL     1       3.313   3.584  19.112  0.00  0.00    +0.000 C 
ATOM      6  C   UNL     1       4.518   3.830  20.031  0.00  0.00    +0.000 C 
ATOM      7  C   UNL     1       5.472   4.845  19.419  0.00  0.00    +0.000 C 
ATOM      8  N   UNL     1       5.912   4.389  18.113  0.00  0.00    +0.000 N 
ATOM      9  C   UNL     1       7.247   4.553  17.776  0.00  0.00    +0.000 C 
ATOM     10  O   UNL     1       8.098   4.937  18.573  0.00  0.00    +0.000 OA
ATOM     11  C   UNL     1       4.857   4.116  17.139  0.00  0.00    +0.000 C 
ATOM     12  C   UNL     1       3.805   3.160  17.713  0.00  0.00    +0.000 C 
BRANCH   9  13
ATOM     13  O   UNL     1       7.503   4.282  16.470  0.00  0.00    +0.000 OA
BRANCH  13  14
ATOM     14  C   UNL     1       7.091   5.298  15.550  0.00  0.00    +0.000 C 
BRANCH  14  15
ATOM     15  C   UNL     1       6.981   4.778  14.137  0.00  0.00    +0.000 A 
ATOM     16  C   UNL     1       6.054   3.779  13.816  0.00  0.00    +0.000 A 
ATOM     17  C   UNL     1       5.900   3.360  12.493  0.00  0.00    +0.000 A 
ATOM     18  C   UNL     1       6.686   3.919  11.485  0.00  0.00    +0.000 A 
ATOM     19  C   UNL     1       7.633   4.893  11.799  0.00  0.00    +0.000 A 
ATOM     20  C   UNL     1       7.785   5.319  13.121  0.00  0.00    +0.000 A 
ENDBRANCH  14  15
ENDBRANCH  13  14
ENDBRANCH   9  13
ENDBRANCH   2   5
BRANCH   3  21
ATOM     21  C   UNL     1       2.123   7.124  19.819  0.00  0.00    +0.000 A 
ATOM     22  C   UNL     1       1.403   7.509  20.953  0.00  0.00    +0.000 A 
ATOM     23  C   UNL     1       0.746   8.736  20.996  0.00  0.00    +0.000 A 
ATOM     24  C   UNL     1       0.803   9.593  19.899  0.00  0.00    +0.000 A 
ATOM     25  C   UNL     1       1.528   9.218  18.762  0.00  0.00    +0.000 A 
ATOM     26  C   UNL     1       2.193   7.993  18.726  0.00  0.00    +0.000 A 
BRANCH  24  27
ATOM     27  C   UNL     1       0.221  10.979  19.997  0.00  0.00    +0.000 C 
BRANCH  27  28
ATOM     28  P   UNL     1       1.096  12.085  18.830  0.00  0.00    +0.000 P 
ATOM     29  O   UNL     1      -0.225  12.672  18.331  0.00  0.00    +0.000 OA
BRANCH  28  30
ATOM     30  O   UNL     1       1.602  13.043  20.059  0.00  0.00    +0.000 OA
ATOM     31  H   UNL     1       2.565  13.190  20.073  0.00  0.00    +0.000 HD
ENDBRANCH  28  30
BRANCH  28  32
ATOM     32  O   UNL     1       1.923  13.129  17.727  0.00  0.00    +0.000 OA
ATOM     33  H   UNL     1       2.693  12.587  17.449  0.00  0.00    +0.000 HD
ENDBRANCH  28  32
ENDBRANCH  27  28
ENDBRANCH  24  27
ENDBRANCH   3  21
TORSDOF 9
ENDMDL
MODEL 8
REMARK VINA RESULT:      -7.4      0.948      1.553
REMARK  Name = 
REMARK  9 active torsions:
REMARK  status: ('A' for Active; 'I' for Inactive)
REMARK    1  A    between atoms: C_2  and  C_15
REMARK    2  A    between atoms: N_3  and  C_4
REMARK    3  A    between atoms: C_7  and  C_8
REMARK    4  A    between atoms: C_8  and  P_9
REMARK    5  A    between atoms: P_9  and  O_11
REMARK    6  A    between atoms: P_9  and  O_12
REMARK    7  A    between atoms: C_19  and  O_21
REMARK    8  A    between atoms: O_21  and  C_22
REMARK    9  A    between atoms: C_22  and  C_23
REMARK                            x       y       z     vdW  Elec       q    Type
REMARK                         _______ _______ _______ _____ _____    ______ ____
ROOT
ATOM      1  O   UNL     1       1.975   5.041  20.275  0.00  0.00    +0.000 OA
ATOM      2  C   UNL     1       2.857   5.313  19.464  0.00  0.00    +0.000 C 
ATOM      3  N   UNL     1       3.037   6.547  18.873  0.00  0.00    +0.000 N 
ATOM      4  H   UNL     1       3.718   6.629  18.127  0.00  0.00    +0.000 HD
ENDROOT
BRANCH   2   5
ATOM      5  C   UNL     1       3.881   4.260  19.035  0.00  0.00    +0.000 C 
ATOM      6  C   UNL     1       5.329   4.667  19.341  0.00  0.00    +0.000 C 
ATOM      7  C   UNL     1       5.766   5.829  18.462  0.00  0.00    +0.000 C 
ATOM      8  N   UNL     1       5.622   5.474  17.061  0.00  0.00    +0.000 N 
ATOM      9  C   UNL     1       6.627   5.848  16.183  0.00  0.00    +0.000 C 
ATOM     10  O   UNL     1       7.690   6.339  16.549  0.00  0.00    +0.000 OA
ATOM     11  C   UNL     1       4.284   5.065  16.637  0.00  0.00    +0.000 C 
ATOM     12  C   UNL     1       3.736   3.948  17.532  0.00  0.00    +0.000 C 
BRANCH   9  13
ATOM     13  O   UNL     1       6.297   5.648  14.881  0.00  0.00    +0.000 OA
BRANCH  13  14
ATOM     14  C   UNL     1       7.169   4.766  14.166  0.00  0.00    +0.000 C 
BRANCH  14  15
ATOM     15  C   UNL     1       6.427   3.928  13.152  0.00  0.00    +0.000 A 
ATOM     16  C   UNL     1       5.028   3.964  13.085  0.00  0.00    +0.000 A 
ATOM     17  C   UNL     1       4.353   3.250  12.094  0.00  0.00    +0.000 A 
ATOM     18  C   UNL     1       5.067   2.478  11.176  0.00  0.00    +0.000 A 
ATOM     19  C   UNL     1       6.457   2.413  11.253  0.00  0.00    +0.000 A 
ATOM     20  C   UNL     1       7.137   3.131  12.240  0.00  0.00    +0.000 A 
ENDBRANCH  14  15
ENDBRANCH  13  14
ENDBRANCH   9  13
ENDBRANCH   2   5
BRANCH   3  21
ATOM     21  C   UNL     1       2.251   7.694  19.104  0.00  0.00    +0.000 A 
ATOM     22  C   UNL     1       1.700   7.996  20.351  0.00  0.00    +0.000 A 
ATOM     23  C   UNL     1       0.927   9.140  20.530  0.00  0.00    +0.000 A 
ATOM     24  C   UNL     1       0.698   9.997  19.456  0.00  0.00    +0.000 A 
ATOM     25  C   UNL     1       1.253   9.706  18.205  0.00  0.00    +0.000 A 
ATOM     26  C   UNL     1       2.035   8.565  18.032  0.00  0.00    +0.000 A 
BRANCH  24  27
ATOM     27  C   UNL     1      -0.011  11.308  19.679  0.00  0.00    +0.000 C 
BRANCH  27  28
ATOM     28  P   UNL     1      -1.075  11.672  18.235  0.00  0.00    +0.000 P 
ATOM     29  O   UNL     1      -1.981  10.481  18.550  0.00  0.00    +0.000 OA
BRANCH  28  30
ATOM     30  O   UNL     1      -1.724  12.971  18.993  0.00  0.00    +0.000 OA
ATOM     31  H   UNL     1      -1.062  13.579  19.368  0.00  0.00    +0.000 HD
ENDBRANCH  28  30
BRANCH  28  32
ATOM     32  O   UNL     1      -2.080  12.015  16.870  0.00  0.00    +0.000 OA
ATOM     33  H   UNL     1      -2.567  11.173  16.740  0.00  0.00    +0.000 HD
ENDBRANCH  28  32
ENDBRANCH  27  28
ENDBRANCH  24  27
ENDBRANCH   3  21
TORSDOF 9
ENDMDL
MODEL 9
REMARK VINA RESULT:      -7.3      5.460      8.236
REMARK  Name = 
REMARK  9 active torsions:
REMARK  status: ('A' for Active; 'I' for Inactive)
REMARK    1  A    between atoms: C_2  and  C_15
REMARK    2  A    between atoms: N_3  and  C_4
REMARK    3  A    between atoms: C_7  and  C_8
REMARK    4  A    between atoms: C_8  and  P_9
REMARK    5  A    between atoms: P_9  and  O_11
REMARK    6  A    between atoms: P_9  and  O_12
REMARK    7  A    between atoms: C_19  and  O_21
REMARK    8  A    between atoms: O_21  and  C_22
REMARK    9  A    between atoms: C_22  and  C_23
REMARK                            x       y       z     vdW  Elec       q    Type
REMARK                         _______ _______ _______ _____ _____    ______ ____
ROOT
ATOM      1  O   UNL     1       7.099   7.870  17.223  0.00  0.00    +0.000 OA
ATOM      2  C   UNL     1       7.875   7.405  18.054  0.00  0.00    +0.000 C 
ATOM      3  N   UNL     1       8.732   8.146  18.841  0.00  0.00    +0.000 N 
ATOM      4  H   UNL     1       9.415   7.655  19.404  0.00  0.00    +0.000 HD
ENDROOT
BRANCH   2   5
ATOM      5  C   UNL     1       7.947   5.896  18.303  0.00  0.00    +0.000 C 
ATOM      6  C   UNL     1       7.494   5.064  17.097  0.00  0.00    +0.000 C 
ATOM      7  C   UNL     1       6.000   5.217  16.857  0.00  0.00    +0.000 C 
ATOM      8  N   UNL     1       5.264   4.830  18.048  0.00  0.00    +0.000 N 
ATOM      9  C   UNL     1       4.110   4.078  17.890  0.00  0.00    +0.000 C 
ATOM     10  O   UNL     1       3.757   3.608  16.813  0.00  0.00    +0.000 OA
ATOM     11  C   UNL     1       5.602   5.552  19.274  0.00  0.00    +0.000 C 
ATOM     12  C   UNL     1       7.110   5.514  19.542  0.00  0.00    +0.000 C 
BRANCH   9  13
ATOM     13  O   UNL     1       3.399   3.948  19.040  0.00  0.00    +0.000 OA
BRANCH  13  14
ATOM     14  C   UNL     1       2.060   4.452  18.982  0.00  0.00    +0.000 C 
BRANCH  14  15
ATOM     15  C   UNL     1       1.997   5.937  19.249  0.00  0.00    +0.000 A 
ATOM     16  C   UNL     1       2.244   6.856  18.221  0.00  0.00    +0.000 A 
ATOM     17  C   UNL     1       2.104   8.225  18.454  0.00  0.00    +0.000 A 
ATOM     18  C   UNL     1       1.739   8.688  19.718  0.00  0.00    +0.000 A 
ATOM     19  C   UNL     1       1.521   7.782  20.755  0.00  0.00    +0.000 A 
ATOM     20  C   UNL     1       1.654   6.411  20.525  0.00  0.00    +0.000 A 
ENDBRANCH  14  15
ENDBRANCH  13  14
ENDBRANCH   9  13
ENDBRANCH   2   5
BRANCH   3  21
ATOM     21  C   UNL     1       8.855   9.551  18.828  0.00  0.00    +0.000 A 
ATOM     22  C   UNL     1       8.482  10.334  17.733  0.00  0.00    +0.000 A 
ATOM     23  C   UNL     1       8.625  11.718  17.767  0.00  0.00    +0.000 A 
ATOM     24  C   UNL     1       9.145  12.335  18.903  0.00  0.00    +0.000 A 
ATOM     25  C   UNL     1       9.514  11.558  20.007  0.00  0.00    +0.000 A 
ATOM     26  C   UNL     1       9.360  10.172  19.974  0.00  0.00    +0.000 A 
BRANCH  24  27
ATOM     27  C   UNL     1       9.163  13.838  19.001  0.00  0.00    +0.000 C 
BRANCH  27  28
ATOM     28  P   UNL     1      10.179  14.519  17.639  0.00  0.00    +0.000 P 
ATOM     29  O   UNL     1       9.273  15.746  17.522  0.00  0.00    +0.000 OA
BRANCH  28  30
ATOM     30  O   UNL     1      11.377  14.917  18.682  0.00  0.00    +0.000 OA
ATOM     31  H   UNL     1      11.957  15.632  18.362  0.00  0.00    +0.000 HD
ENDBRANCH  28  30
BRANCH  28  32
ATOM     32  O   UNL     1      11.138  15.162  16.352  0.00  0.00    +0.000 OA
ATOM     33  H   UNL     1      10.952  16.125  16.401  0.00  0.00    +0.000 HD
ENDBRANCH  28  32
ENDBRANCH  27  28
ENDBRANCH  24  27
ENDBRANCH   3  21
TORSDOF 9
ENDMDL
