MODEL 1
REMARK VINA RESULT:      -9.1      0.000      0.000
REMARK  Name = 
REMARK  1 active torsions:
REMARK  status: ('A' for Active; 'I' for Inactive)
REMARK    1  A    between atoms: C_2  and  C_3
REMARK                            x       y       z     vdW  Elec       q    Type
REMARK                         _______ _______ _______ _____ _____    ______ ____
ROOT
ATOM      1  O   UNL     1       4.063   6.781  17.118  0.00  0.00    +0.000 OA
ATOM      2  C   UNL     1       3.607   6.758  18.265  0.00  0.00    +0.000 C 
ATOM      3  N   UNL     1       2.655   7.700  18.652  0.00  0.00    +0.000 N 
ATOM      4  C   UNL     1       1.938   7.698  19.947  0.00  0.00    +0.000 C 
ATOM      5  C   UNL     1       1.455   9.107  20.379  0.00  0.00    +0.000 C 
ATOM      6  N   UNL     1       0.756   9.707  19.244  0.00  0.00    +0.000 N 
ATOM      7  C   UNL     1      -0.358  10.489  19.442  0.00  0.00    +0.000 A 
ATOM      8  C   UNL     1      -1.318  10.574  18.437  0.00  0.00    +0.000 A 
ATOM      9  C   UNL     1      -2.495  11.283  18.638  0.00  0.00    +0.000 A 
ATOM     10  C   UNL     1      -2.673  11.925  19.848  0.00  0.00    +0.000 A 
ATOM     11  N   UNL     1      -3.837  12.687  20.095  0.00  0.00    +0.000 N 
ATOM     12  C   UNL     1      -4.934  12.872  19.282  0.00  0.00    +0.000 A 
ATOM     13  C   UNL     1      -5.781  13.703  19.978  0.00  0.00    +0.000 A 
ATOM     14  N   UNL     1      -5.244  14.034  21.193  0.00  0.00    +0.000 NA
ATOM     15  C   UNL     1      -4.084  13.413  21.241  0.00  0.00    +0.000 A 
ATOM     16  N   UNL     1      -1.737  11.844  20.822  0.00  0.00    +0.000 NA
ATOM     17  N   UNL     1      -0.588  11.099  20.617  0.00  0.00    +0.000 NA
ATOM     18  C   UNL     1       1.588   9.885  18.055  0.00  0.00    +0.000 C 
ATOM     19  C   UNL     1       2.026   8.495  17.578  0.00  0.00    +0.000 C 
ENDROOT
BRANCH   2  20
ATOM     20  C   UNL     1       4.168   5.775  19.323  0.00  0.00    +0.000 C 
ATOM     21  C   UNL     1       4.998   4.672  18.654  0.00  0.00    +0.000 C 
ATOM     22  O   UNL     1       4.204   3.691  17.975  0.00  0.00    +0.000 OA
ATOM     23  C   UNL     1       3.012   3.441  18.593  0.00  0.00    +0.000 A 
ATOM     24  C   UNL     1       2.219   2.436  18.039  0.00  0.00    +0.000 A 
ATOM     25  C   UNL     1       0.976   2.138  18.599  0.00  0.00    +0.000 A 
ATOM     26  C   UNL     1       0.548   2.810  19.744  0.00  0.00    +0.000 A 
ATOM     27  C   UNL     1       1.349   3.805  20.308  0.00  0.00    +0.000 A 
ATOM     28  C   UNL     1       2.556   4.150  19.703  0.00  0.00    +0.000 A 
ATOM     29  O   UNL     1       3.231   5.213  20.240  0.00  0.00    +0.000 OA
ENDBRANCH   2  20
TORSDOF 1
ENDMDL
MODEL 2
REMARK VINA RESULT:      -8.9      2.985      4.415
REMARK  Name = 
REMARK  1 active torsions:
REMARK  status: ('A' for Active; 'I' for Inactive)
REMARK    1  A    between atoms: C_2  and  C_3
REMARK                            x       y       z     vdW  Elec       q    Type
REMARK                         _______ _______ _______ _____ _____    ______ ____
ROOT
ATOM      1  O   UNL     1       2.517   5.544  20.382  0.00  0.00    +0.000 OA
ATOM      2  C   UNL     1       2.594   6.172  19.322  0.00  0.00    +0.000 C 
ATOM      3  N   UNL     1       2.117   7.480  19.254  0.00  0.00    +0.000 N 
ATOM      4  C   UNL     1       2.269   8.379  18.089  0.00  0.00    +0.000 C 
ATOM      5  C   UNL     1       1.167   9.467  18.009  0.00  0.00    +0.000 C 
ATOM      6  N   UNL     1       1.072  10.105  19.321  0.00  0.00    +0.000 N 
ATOM      7  C   UNL     1       0.831  11.455  19.427  0.00  0.00    +0.000 A 
ATOM      8  C   UNL     1       1.294  12.143  20.545  0.00  0.00    +0.000 A 
ATOM      9  C   UNL     1       1.146  13.521  20.642  0.00  0.00    +0.000 A 
ATOM     10  C   UNL     1       0.501  14.182  19.615  0.00  0.00    +0.000 A 
ATOM     11  N   UNL     1       0.293  15.579  19.677  0.00  0.00    +0.000 N 
ATOM     12  C   UNL     1       0.702  16.469  20.646  0.00  0.00    +0.000 A 
ATOM     13  C   UNL     1       0.241  17.700  20.243  0.00  0.00    +0.000 A 
ATOM     14  N   UNL     1      -0.436  17.600  19.058  0.00  0.00    +0.000 NA
ATOM     15  C   UNL     1      -0.389  16.323  18.738  0.00  0.00    +0.000 A 
ATOM     16  N   UNL     1       0.048  13.511  18.531  0.00  0.00    +0.000 NA
ATOM     17  N   UNL     1       0.241  12.143  18.435  0.00  0.00    +0.000 NA
ATOM     18  C   UNL     1       0.699   9.195  20.403  0.00  0.00    +0.000 C 
ATOM     19  C   UNL     1       1.810   8.147  20.537  0.00  0.00    +0.000 C 
ENDROOT
BRANCH   2  20
ATOM     20  C   UNL     1       3.099   5.487  18.027  0.00  0.00    +0.000 C 
ATOM     21  C   UNL     1       3.693   4.107  18.339  0.00  0.00    +0.000 C 
ATOM     22  O   UNL     1       4.981   4.166  18.964  0.00  0.00    +0.000 OA
ATOM     23  C   UNL     1       5.743   5.214  18.529  0.00  0.00    +0.000 A 
ATOM     24  C   UNL     1       7.043   5.291  19.028  0.00  0.00    +0.000 A 
ATOM     25  C   UNL     1       7.875   6.345  18.650  0.00  0.00    +0.000 A 
ATOM     26  C   UNL     1       7.425   7.294  17.732  0.00  0.00    +0.000 A 
ATOM     27  C   UNL     1       6.129   7.207  17.219  0.00  0.00    +0.000 A 
ATOM     28  C   UNL     1       5.276   6.195  17.656  0.00  0.00    +0.000 A 
ATOM     29  O   UNL     1       3.986   6.241  17.204  0.00  0.00    +0.000 OA
ENDBRANCH   2  20
TORSDOF 1
ENDMDL
MODEL 3
REMARK VINA RESULT:      -8.5      3.847     10.128
REMARK  Name = 
REMARK  1 active torsions:
REMARK  status: ('A' for Active; 'I' for Inactive)
REMARK    1  A    between atoms: C_2  and  C_3
REMARK                            x       y       z     vdW  Elec       q    Type
REMARK                         _______ _______ _______ _____ _____    ______ ____
ROOT
ATOM      1  O   UNL     1      -1.142  12.109  23.420  0.00  0.00    +0.000 OA
ATOM      2  C   UNL     1      -1.085  11.980  22.194  0.00  0.00    +0.000 C 
ATOM      3  N   UNL     1      -0.369  10.920  21.641  0.00  0.00    +0.000 N 
ATOM      4  C   UNL     1      -0.334  10.580  20.201  0.00  0.00    +0.000 C 
ATOM      5  C   UNL     1       0.955   9.825  19.784  0.00  0.00    +0.000 C 
ATOM      6  N   UNL     1       1.151   8.722  20.722  0.00  0.00    +0.000 N 
ATOM      7  C   UNL     1       1.641   7.512  20.288  0.00  0.00    +0.000 A 
ATOM      8  C   UNL     1       1.302   6.352  20.980  0.00  0.00    +0.000 A 
ATOM      9  C   UNL     1       1.706   5.107  20.517  0.00  0.00    +0.000 A 
ATOM     10  C   UNL     1       2.479   5.053  19.373  0.00  0.00    +0.000 A 
ATOM     11  N   UNL     1       2.945   3.816  18.876  0.00  0.00    +0.000 N 
ATOM     12  C   UNL     1       2.699   2.547  19.354  0.00  0.00    +0.000 A 
ATOM     13  C   UNL     1       3.390   1.694  18.527  0.00  0.00    +0.000 A 
ATOM     14  N   UNL     1       4.051   2.392  17.553  0.00  0.00    +0.000 NA
ATOM     15  C   UNL     1       3.768   3.658  17.781  0.00  0.00    +0.000 A 
ATOM     16  N   UNL     1       2.810   6.183  18.705  0.00  0.00    +0.000 NA
ATOM     17  N   UNL     1       2.364   7.412  19.159  0.00  0.00    +0.000 NA
ATOM     18  C   UNL     1       1.331   9.142  22.111  0.00  0.00    +0.000 C 
ATOM     19  C   UNL     1       0.041   9.838  22.560  0.00  0.00    +0.000 C 
ENDROOT
BRANCH   2  20
ATOM     20  C   UNL     1      -1.694  13.050  21.253  0.00  0.00    +0.000 C 
ATOM     21  C   UNL     1      -1.571  14.449  21.870  0.00  0.00    +0.000 C 
ATOM     22  O   UNL     1      -2.491  14.684  22.943  0.00  0.00    +0.000 OA
ATOM     23  C   UNL     1      -3.694  14.060  22.768  0.00  0.00    +0.000 A 
ATOM     24  C   UNL     1      -4.673  14.310  23.730  0.00  0.00    +0.000 A 
ATOM     25  C   UNL     1      -5.921  13.691  23.633  0.00  0.00    +0.000 A 
ATOM     26  C   UNL     1      -6.207  12.864  22.547  0.00  0.00    +0.000 A 
ATOM     27  C   UNL     1      -5.232  12.628  21.576  0.00  0.00    +0.000 A 
ATOM     28  C   UNL     1      -3.963  13.189  21.714  0.00  0.00    +0.000 A 
ATOM     29  O   UNL     1      -3.023  12.820  20.791  0.00  0.00    +0.000 OA
ENDBRANCH   2  20
TORSDOF 1
ENDMDL
MODEL 4
REMARK VINA RESULT:      -8.2      2.189      3.210
REMARK  Name = 
REMARK  1 active torsions:
REMARK  status: ('A' for Active; 'I' for Inactive)
REMARK    1  A    between atoms: C_2  and  C_3
REMARK                            x       y       z     vdW  Elec       q    Type
REMARK                         _______ _______ _______ _____ _____    ______ ____
ROOT
ATOM      1  O   UNL     1       3.403   7.388  17.133  0.00  0.00    +0.000 OA
ATOM      2  C   UNL     1       2.911   6.981  18.189  0.00  0.00    +0.000 C 
ATOM      3  N   UNL     1       2.205   7.860  19.009  0.00  0.00    +0.000 N 
ATOM      4  C   UNL     1       1.458   7.471  20.226  0.00  0.00    +0.000 C 
ATOM      5  C   UNL     1       1.320   8.625  21.253  0.00  0.00    +0.000 C 
ATOM      6  N   UNL     1       0.836   9.804  20.537  0.00  0.00    +0.000 N 
ATOM      7  C   UNL     1      -0.059  10.665  21.130  0.00  0.00    +0.000 A 
ATOM      8  C   UNL     1      -0.927  11.402  20.329  0.00  0.00    +0.000 A 
ATOM      9  C   UNL     1      -1.902  12.212  20.898  0.00  0.00    +0.000 A 
ATOM     10  C   UNL     1      -1.964  12.290  22.276  0.00  0.00    +0.000 A 
ATOM     11  N   UNL     1      -2.913  13.124  22.907  0.00  0.00    +0.000 N 
ATOM     12  C   UNL     1      -3.898  13.898  22.333  0.00  0.00    +0.000 A 
ATOM     13  C   UNL     1      -4.541  14.522  23.376  0.00  0.00    +0.000 A 
ATOM     14  N   UNL     1      -3.989  14.157  24.573  0.00  0.00    +0.000 NA
ATOM     15  C   UNL     1      -3.020  13.319  24.268  0.00  0.00    +0.000 A 
ATOM     16  N   UNL     1      -1.116  11.576  23.052  0.00  0.00    +0.000 NA
ATOM     17  N   UNL     1      -0.178  10.742  22.466  0.00  0.00    +0.000 NA
ATOM     18  C   UNL     1       1.733  10.274  19.483  0.00  0.00    +0.000 C 
ATOM     19  C   UNL     1       1.834   9.167  18.427  0.00  0.00    +0.000 C 
ENDROOT
BRANCH   2  20
ATOM     20  C   UNL     1       3.170   5.536  18.682  0.00  0.00    +0.000 C 
ATOM     21  C   UNL     1       4.317   5.506  19.700  0.00  0.00    +0.000 C 
ATOM     22  O   UNL     1       5.612   5.674  19.109  0.00  0.00    +0.000 OA
ATOM     23  C   UNL     1       5.715   5.111  17.868  0.00  0.00    +0.000 A 
ATOM     24  C   UNL     1       6.970   5.159  17.262  0.00  0.00    +0.000 A 
ATOM     25  C   UNL     1       7.150   4.626  15.985  0.00  0.00    +0.000 A 
ATOM     26  C   UNL     1       6.087   3.999  15.335  0.00  0.00    +0.000 A 
ATOM     27  C   UNL     1       4.835   3.936  15.949  0.00  0.00    +0.000 A 
ATOM     28  C   UNL     1       4.640   4.534  17.193  0.00  0.00    +0.000 A 
ATOM     29  O   UNL     1       3.362   4.539  17.680  0.00  0.00    +0.000 OA
ENDBRANCH   2  20
TORSDOF 1
ENDMDL
MODEL 5
REMARK VINA RESULT:      -8.2      0.993      1.126
REMARK  Name = 
REMARK  1 active torsions:
REMARK  status: ('A' for Active; 'I' for Inactive)
REMARK    1  A    between atoms: C_2  and  C_3
REMARK                            x       y       z     vdW  Elec       q    Type
REMARK                         _______ _______ _______ _____ _____    ______ ____
ROOT
ATOM      1  O   UNL     1       3.094   7.139  17.656  0.00  0.00    +0.000 OA
ATOM      2  C   UNL     1       2.724   7.199  18.832  0.00  0.00    +0.000 C 
ATOM      3  N   UNL     1       1.875   8.227  19.240  0.00  0.00    +0.000 N 
ATOM      4  C   UNL     1       1.257   8.335  20.580  0.00  0.00    +0.000 C 
ATOM      5  C   UNL     1       0.913   9.794  20.978  0.00  0.00    +0.000 C 
ATOM      6  N   UNL     1       0.180  10.399  19.868  0.00  0.00    +0.000 N 
ATOM      7  C   UNL     1      -0.855  11.273  20.106  0.00  0.00    +0.000 A 
ATOM      8  C   UNL     1      -1.877  11.390  19.167  0.00  0.00    +0.000 A 
ATOM      9  C   UNL     1      -2.981  12.196  19.417  0.00  0.00    +0.000 A 
ATOM     10  C   UNL     1      -3.021  12.900  20.605  0.00  0.00    +0.000 A 
ATOM     11  N   UNL     1      -4.103  13.760  20.896  0.00  0.00    +0.000 N 
ATOM     12  C   UNL     1      -5.240  13.995  20.155  0.00  0.00    +0.000 A 
ATOM     13  C   UNL     1      -5.969  14.917  20.868  0.00  0.00    +0.000 A 
ATOM     14  N   UNL     1      -5.322  15.256  22.025  0.00  0.00    +0.000 NA
ATOM     15  C   UNL     1      -4.211  14.549  22.021  0.00  0.00    +0.000 A 
ATOM     16  N   UNL     1      -2.024  12.787  21.514  0.00  0.00    +0.000 NA
ATOM     17  N   UNL     1      -0.952  11.948  21.264  0.00  0.00    +0.000 NA
ATOM     18  C   UNL     1       0.933  10.462  18.616  0.00  0.00    +0.000 C 
ATOM     19  C   UNL     1       1.230   9.023  18.176  0.00  0.00    +0.000 C 
ENDROOT
BRANCH   2  20
ATOM     20  C   UNL     1       3.286   6.221  19.893  0.00  0.00    +0.000 C 
ATOM     21  C   UNL     1       4.554   5.530  19.378  0.00  0.00    +0.000 C 
ATOM     22  O   UNL     1       4.297   4.519  18.395  0.00  0.00    +0.000 OA
ATOM     23  C   UNL     1       3.128   3.845  18.610  0.00  0.00    +0.000 A 
ATOM     24  C   UNL     1       2.848   2.787  17.744  0.00  0.00    +0.000 A 
ATOM     25  C   UNL     1       1.662   2.065  17.884  0.00  0.00    +0.000 A 
ATOM     26  C   UNL     1       0.780   2.367  18.922  0.00  0.00    +0.000 A 
ATOM     27  C   UNL     1       1.069   3.414  19.799  0.00  0.00    +0.000 A 
ATOM     28  C   UNL     1       2.218   4.180  19.611  0.00  0.00    +0.000 A 
ATOM     29  O   UNL     1       2.376   5.263  20.432  0.00  0.00    +0.000 OA
ENDBRANCH   2  20
TORSDOF 1
ENDMDL
MODEL 6
REMARK VINA RESULT:      -8.1      4.172     10.322
REMARK  Name = 
REMARK  1 active torsions:
REMARK  status: ('A' for Active; 'I' for Inactive)
REMARK    1  A    between atoms: C_2  and  C_3
REMARK                            x       y       z     vdW  Elec       q    Type
REMARK                         _______ _______ _______ _____ _____    ______ ____
ROOT
ATOM      1  O   UNL     1      -2.545  13.210  22.908  0.00  0.00    +0.000 OA
ATOM      2  C   UNL     1      -2.618  12.906  21.714  0.00  0.00    +0.000 C 
ATOM      3  N   UNL     1      -1.681  12.034  21.161  0.00  0.00    +0.000 N 
ATOM      4  C   UNL     1      -1.735  11.490  19.786  0.00  0.00    +0.000 C 
ATOM      5  C   UNL     1      -0.342  11.101  19.228  0.00  0.00    +0.000 C 
ATOM      6  N   UNL     1       0.328  10.277  20.233  0.00  0.00    +0.000 N 
ATOM      7  C   UNL     1       1.119   9.217  19.855  0.00  0.00    +0.000 A 
ATOM      8  C   UNL     1       1.271   8.138  20.722  0.00  0.00    +0.000 A 
ATOM      9  C   UNL     1       1.989   7.013  20.336  0.00  0.00    +0.000 A 
ATOM     10  C   UNL     1       2.573   7.009  19.083  0.00  0.00    +0.000 A 
ATOM     11  N   UNL     1       3.342   5.905  18.651  0.00  0.00    +0.000 N 
ATOM     12  C   UNL     1       3.587   4.717  19.305  0.00  0.00    +0.000 A 
ATOM     13  C   UNL     1       4.396   3.988  18.466  0.00  0.00    +0.000 A 
ATOM     14  N   UNL     1       4.656   4.684  17.317  0.00  0.00    +0.000 NA
ATOM     15  C   UNL     1       4.013   5.825  17.450  0.00  0.00    +0.000 A 
ATOM     16  N   UNL     1       2.426   8.060  18.244  0.00  0.00    +0.000 NA
ATOM     17  N   UNL     1       1.672   9.155  18.632  0.00  0.00    +0.000 NA
ATOM     18  C   UNL     1       0.551  10.953  21.510  0.00  0.00    +0.000 C 
ATOM     19  C   UNL     1      -0.821  11.292  22.106  0.00  0.00    +0.000 C 
ENDROOT
BRANCH   2  20
ATOM     20  C   UNL     1      -3.663  13.574  20.786  0.00  0.00    +0.000 C 
ATOM     21  C   UNL     1      -3.916  15.026  21.209  0.00  0.00    +0.000 C 
ATOM     22  O   UNL     1      -4.705  15.147  22.399  0.00  0.00    +0.000 OA
ATOM     23  C   UNL     1      -5.654  14.171  22.517  0.00  0.00    +0.000 A 
ATOM     24  C   UNL     1      -6.519  14.269  23.607  0.00  0.00    +0.000 A 
ATOM     25  C   UNL     1      -7.500  13.297  23.809  0.00  0.00    +0.000 A 
ATOM     26  C   UNL     1      -7.650  12.256  22.892  0.00  0.00    +0.000 A 
ATOM     27  C   UNL     1      -6.795  12.168  21.792  0.00  0.00    +0.000 A 
ATOM     28  C   UNL     1      -5.769  13.099  21.634  0.00  0.00    +0.000 A 
ATOM     29  O   UNL     1      -4.897  12.883  20.602  0.00  0.00    +0.000 OA
ENDBRANCH   2  20
TORSDOF 1
ENDMDL
MODEL 7
REMARK VINA RESULT:      -8.0      4.232      9.943
REMARK  Name = 
REMARK  1 active torsions:
REMARK  status: ('A' for Active; 'I' for Inactive)
REMARK    1  A    between atoms: C_2  and  C_3
REMARK                            x       y       z     vdW  Elec       q    Type
REMARK                         _______ _______ _______ _____ _____    ______ ____
ROOT
ATOM      1  O   UNL     1      -3.376  13.954  22.256  0.00  0.00    +0.000 OA
ATOM      2  C   UNL     1      -3.435  13.494  21.112  0.00  0.00    +0.000 C 
ATOM      3  N   UNL     1      -2.431  12.641  20.655  0.00  0.00    +0.000 N 
ATOM      4  C   UNL     1      -2.453  11.922  19.362  0.00  0.00    +0.000 C 
ATOM      5  C   UNL     1      -1.037  11.583  18.828  0.00  0.00    +0.000 C 
ATOM      6  N   UNL     1      -0.289  10.954  19.914  0.00  0.00    +0.000 N 
ATOM      7  C   UNL     1       0.587   9.924  19.658  0.00  0.00    +0.000 A 
ATOM      8  C   UNL     1       0.841   8.982  20.651  0.00  0.00    +0.000 A 
ATOM      9  C   UNL     1       1.649   7.882  20.395  0.00  0.00    +0.000 A 
ATOM     10  C   UNL     1       2.217   7.766  19.141  0.00  0.00    +0.000 A 
ATOM     11  N   UNL     1       3.074   6.684  18.837  0.00  0.00    +0.000 N 
ATOM     12  C   UNL     1       3.428   5.615  19.630  0.00  0.00    +0.000 A 
ATOM     13  C   UNL     1       4.288   4.855  18.874  0.00  0.00    +0.000 A 
ATOM     14  N   UNL     1       4.475   5.417  17.640  0.00  0.00    +0.000 NA
ATOM     15  C   UNL     1       3.737   6.508  17.641  0.00  0.00    +0.000 A 
ATOM     16  N   UNL     1       1.972   8.685  18.179  0.00  0.00    +0.000 NA
ATOM     17  N   UNL     1       1.131   9.753  18.440  0.00  0.00    +0.000 NA
ATOM     18  C   UNL     1      -0.111  11.804  21.090  0.00  0.00    +0.000 C 
ATOM     19  C   UNL     1      -1.501  12.100  21.668  0.00  0.00    +0.000 C 
ENDROOT
BRANCH   2  20
ATOM     20  C   UNL     1      -4.543  13.947  20.130  0.00  0.00    +0.000 C 
ATOM     21  C   UNL     1      -5.620  14.757  20.861  0.00  0.00    +0.000 C 
ATOM     22  O   UNL     1      -6.488  13.954  21.672  0.00  0.00    +0.000 OA
ATOM     23  C   UNL     1      -6.731  12.719  21.141  0.00  0.00    +0.000 A 
ATOM     24  C   UNL     1      -7.634  11.909  21.829  0.00  0.00    +0.000 A 
ATOM     25  C   UNL     1      -7.916  10.624  21.362  0.00  0.00    +0.000 A 
ATOM     26  C   UNL     1      -7.334  10.169  20.179  0.00  0.00    +0.000 A 
ATOM     27  C   UNL     1      -6.443  10.986  19.482  0.00  0.00    +0.000 A 
ATOM     28  C   UNL     1      -6.107  12.240  19.990  0.00  0.00    +0.000 A 
ATOM     29  O   UNL     1      -5.139  12.936  19.319  0.00  0.00    +0.000 OA
ENDBRANCH   2  20
TORSDOF 1
ENDMDL
MODEL 8
REMARK VINA RESULT:      -8.0      4.071     10.368
REMARK  Name = 
REMARK  1 active torsions:
REMARK  status: ('A' for Active; 'I' for Inactive)
REMARK    1  A    between atoms: C_2  and  C_3
REMARK                            x       y       z     vdW  Elec       q    Type
REMARK                         _______ _______ _______ _____ _____    ______ ____
ROOT
ATOM      1  O   UNL     1      -1.148  11.980  23.506  0.00  0.00    +0.000 OA
ATOM      2  C   UNL     1      -1.102  11.866  22.277  0.00  0.00    +0.000 C 
ATOM      3  N   UNL     1      -0.381  10.819  21.704  0.00  0.00    +0.000 N 
ATOM      4  C   UNL     1      -0.356  10.497  20.260  0.00  0.00    +0.000 C 
ATOM      5  C   UNL     1       0.936   9.760  19.822  0.00  0.00    +0.000 C 
ATOM      6  N   UNL     1       1.152   8.648  20.745  0.00  0.00    +0.000 N 
ATOM      7  C   UNL     1       1.649   7.448  20.292  0.00  0.00    +0.000 A 
ATOM      8  C   UNL     1       1.328   6.277  20.973  0.00  0.00    +0.000 A 
ATOM      9  C   UNL     1       1.740   5.040  20.492  0.00  0.00    +0.000 A 
ATOM     10  C   UNL     1       2.501   5.009  19.339  0.00  0.00    +0.000 A 
ATOM     11  N   UNL     1       2.975   3.782  18.823  0.00  0.00    +0.000 N 
ATOM     12  C   UNL     1       2.746   2.505  19.289  0.00  0.00    +0.000 A 
ATOM     13  C   UNL     1       3.436   1.668  18.444  0.00  0.00    +0.000 A 
ATOM     14  N   UNL     1       4.081   2.384  17.473  0.00  0.00    +0.000 NA
ATOM     15  C   UNL     1       3.788   3.645  17.719  0.00  0.00    +0.000 A 
ATOM     16  N   UNL     1       2.816   6.149  18.681  0.00  0.00    +0.000 NA
ATOM     17  N   UNL     1       2.361   7.368  19.155  0.00  0.00    +0.000 NA
ATOM     18  C   UNL     1       1.341   9.053  22.137  0.00  0.00    +0.000 C 
ATOM     19  C   UNL     1       0.049   9.731  22.607  0.00  0.00    +0.000 C 
ENDROOT
BRANCH   2  20
ATOM     20  C   UNL     1      -1.730  12.941  21.355  0.00  0.00    +0.000 C 
ATOM     21  C   UNL     1      -0.734  14.077  21.088  0.00  0.00    +0.000 C 
ATOM     22  O   UNL     1      -0.554  14.955  22.206  0.00  0.00    +0.000 OA
ATOM     23  C   UNL     1      -1.693  15.133  22.939  0.00  0.00    +0.000 A 
ATOM     24  C   UNL     1      -1.620  16.042  23.995  0.00  0.00    +0.000 A 
ATOM     25  C   UNL     1      -2.735  16.261  24.806  0.00  0.00    +0.000 A 
ATOM     26  C   UNL     1      -3.938  15.610  24.529  0.00  0.00    +0.000 A 
ATOM     27  C   UNL     1      -4.014  14.714  23.462  0.00  0.00    +0.000 A 
ATOM     28  C   UNL     1      -2.879  14.442  22.700  0.00  0.00    +0.000 A 
ATOM     29  O   UNL     1      -2.997  13.466  21.748  0.00  0.00    +0.000 OA
ENDBRANCH   2  20
TORSDOF 1
ENDMDL
MODEL 9
REMARK VINA RESULT:      -8.0      4.302     10.241
REMARK  Name = 
REMARK  1 active torsions:
REMARK  status: ('A' for Active; 'I' for Inactive)
REMARK    1  A    between atoms: C_2  and  C_3
REMARK                            x       y       z     vdW  Elec       q    Type
REMARK                         _______ _______ _______ _____ _____    ______ ____
ROOT
ATOM      1  O   UNL     1      -3.087  13.540  20.603  0.00  0.00    +0.000 OA
ATOM      2  C   UNL     1      -2.286  13.051  21.405  0.00  0.00    +0.000 C 
ATOM      3  N   UNL     1      -1.467  11.994  21.010  0.00  0.00    +0.000 N 
ATOM      4  C   UNL     1      -0.381  11.411  21.828  0.00  0.00    +0.000 C 
ATOM      5  C   UNL     1      -0.074   9.934  21.471  0.00  0.00    +0.000 C 
ATOM      6  N   UNL     1       0.081   9.847  20.020  0.00  0.00    +0.000 N 
ATOM      7  C   UNL     1       1.019   9.009  19.465  0.00  0.00    +0.000 A 
ATOM      8  C   UNL     1       1.560   9.322  18.220  0.00  0.00    +0.000 A 
ATOM      9  C   UNL     1       2.573   8.546  17.671  0.00  0.00    +0.000 A 
ATOM     10  C   UNL     1       3.005   7.441  18.379  0.00  0.00    +0.000 A 
ATOM     11  N   UNL     1       4.010   6.597  17.853  0.00  0.00    +0.000 N 
ATOM     12  C   UNL     1       4.721   6.731  16.680  0.00  0.00    +0.000 A 
ATOM     13  C   UNL     1       5.565   5.647  16.627  0.00  0.00    +0.000 A 
ATOM     14  N   UNL     1       5.401   4.852  17.728  0.00  0.00    +0.000 NA
ATOM     15  C   UNL     1       4.469   5.441  18.447  0.00  0.00    +0.000 A 
ATOM     16  N   UNL     1       2.475   7.137  19.586  0.00  0.00    +0.000 NA
ATOM     17  N   UNL     1       1.495   7.946  20.135  0.00  0.00    +0.000 NA
ATOM     18  C   UNL     1      -1.112  10.231  19.267  0.00  0.00    +0.000 C 
ATOM     19  C   UNL     1      -1.396  11.709  19.562  0.00  0.00    +0.000 C 
ENDROOT
BRANCH   2  20
ATOM     20  C   UNL     1      -2.263  13.509  22.885  0.00  0.00    +0.000 C 
ATOM     21  C   UNL     1      -2.708  12.373  23.813  0.00  0.00    +0.000 C 
ATOM     22  O   UNL     1      -4.119  12.124  23.778  0.00  0.00    +0.000 OA
ATOM     23  C   UNL     1      -4.861  13.257  23.595  0.00  0.00    +0.000 A 
ATOM     24  C   UNL     1      -6.247  13.109  23.634  0.00  0.00    +0.000 A 
ATOM     25  C   UNL     1      -7.074  14.215  23.431  0.00  0.00    +0.000 A 
ATOM     26  C   UNL     1      -6.514  15.479  23.241  0.00  0.00    +0.000 A 
ATOM     27  C   UNL     1      -5.126  15.629  23.218  0.00  0.00    +0.000 A 
ATOM     28  C   UNL     1      -4.304  14.510  23.348  0.00  0.00    +0.000 A 
ATOM     29  O   UNL     1      -2.960  14.714  23.197  0.00  0.00    +0.000 OA
ENDBRANCH   2  20
TORSDOF 1
ENDMDL
