MODEL 1
REMARK VINA RESULT:      -7.5      0.000      0.000
REMARK  Name = 
REMARK  10 active torsions:
REMARK  status: ('A' for Active; 'I' for Inactive)
REMARK    1  A    between atoms: C_2  and  C_3
REMARK    2  A    between atoms: C_3  and  C_4
REMARK    3  A    between atoms: C_4  and  C_5
REMARK    4  A    between atoms: C_4  and  N_10
REMARK    5  A    between atoms: C_5  and  C_6
REMARK    6  A    between atoms: C_11  and  C_13
REMARK    7  A    between atoms: C_13  and  C_14
REMARK    8  A    between atoms: C_17  and  C_18
REMARK    9  A    between atoms: C_23  and  O_24
REMARK   10  A    between atoms: O_24  and  C_25
REMARK                            x       y       z     vdW  Elec       q    Type
REMARK                         _______ _______ _______ _____ _____    ______ ____
ROOT
ATOM      1  C   UNL     1       8.069   6.166  18.938  0.00  0.00    +0.000 C 
ENDROOT
BRANCH   1   2
ATOM      2  C   UNL     1       8.137   7.553  18.447  0.00  0.00    +0.000 A 
ATOM      3  N   UNL     1       7.560   8.087  17.395  0.00  0.00    +0.000 NA
ATOM      4  N   UNL     1       7.997   9.388  17.338  0.00  0.00    +0.000 NA
ATOM      5  C   UNL     1       8.761   9.600  18.390  0.00  0.00    +0.000 A 
ATOM      6  O   UNL     1       8.890   8.455  19.153  0.00  0.00    +0.000 OA
BRANCH   5   7
ATOM      7  C   UNL     1       9.513  10.777  18.835  0.00  0.00    +0.000 A 
ATOM      8  C   UNL     1      10.303  11.424  17.847  0.00  0.00    +0.000 A 
ATOM      9  C   UNL     1      11.069  12.561  18.118  0.00  0.00    +0.000 A 
ATOM     10  C   UNL     1      11.068  13.094  19.393  0.00  0.00    +0.000 A 
ATOM     11  C   UNL     1      10.296  12.487  20.379  0.00  0.00    +0.000 A 
ATOM     12  C   UNL     1       9.514  11.335  20.130  0.00  0.00    +0.000 A 
BRANCH  12  13
ATOM     13  O   UNL     1       8.896  10.966  21.290  0.00  0.00    +0.000 OA
ATOM     14  C   UNL     1       8.669  11.869  22.351  0.00  0.00    +0.000 C 
ENDBRANCH  12  13
ENDBRANCH   5   7
ENDBRANCH   1   2
BRANCH   1  16
ATOM     15  N   UNL     1       6.006   5.641  17.723  0.00  0.00    +0.000 N 
ATOM     16  C   UNL     1       7.345   5.338  17.895  0.00  0.00    +0.000 C 
ATOM     17  O   UNL     1       7.913   4.460  17.251  0.00  0.00    +0.000 OA
ATOM     18  H   UNL     1       5.569   6.309  18.352  0.00  0.00    +0.000 HD
BRANCH  15  19
ATOM     19  C   UNL     1       5.142   4.915  16.780  0.00  0.00    +0.000 C 
BRANCH  19  20
ATOM     20  C   UNL     1       5.253   5.509  15.363  0.00  0.00    +0.000 C 
BRANCH  20  22
ATOM     21  C   UNL     1       6.117   3.741  13.544  0.00  0.00    +0.000 C 
ATOM     22  C   UNL     1       5.729   4.529  14.363  0.00  0.00    +0.000 C 
ENDBRANCH  20  22
ENDBRANCH  19  20
BRANCH  19  23
ATOM     23  C   UNL     1       3.711   4.814  17.326  0.00  0.00    +0.000 C 
BRANCH  23  24
ATOM     24  C   UNL     1       3.225   3.402  17.562  0.00  0.00    +0.000 C 
ATOM     25  F   UNL     1       2.835   3.181  18.838  0.00  0.00    +0.000 F 
ATOM     26  F   UNL     1       2.182   3.102  16.760  0.00  0.00    +0.000 F 
ATOM     27  F   UNL     1       4.209   2.514  17.295  0.00  0.00    +0.000 F 
ENDBRANCH  23  24
ENDBRANCH  19  23
ENDBRANCH  15  19
ENDBRANCH   1  16
TORSDOF 9
ENDMDL
MODEL 2
REMARK VINA RESULT:      -7.4      5.246      7.830
REMARK  Name = 
REMARK  10 active torsions:
REMARK  status: ('A' for Active; 'I' for Inactive)
REMARK    1  A    between atoms: C_2  and  C_3
REMARK    2  A    between atoms: C_3  and  C_4
REMARK    3  A    between atoms: C_4  and  C_5
REMARK    4  A    between atoms: C_4  and  N_10
REMARK    5  A    between atoms: C_5  and  C_6
REMARK    6  A    between atoms: C_11  and  C_13
REMARK    7  A    between atoms: C_13  and  C_14
REMARK    8  A    between atoms: C_17  and  C_18
REMARK    9  A    between atoms: C_23  and  O_24
REMARK   10  A    between atoms: O_24  and  C_25
REMARK                            x       y       z     vdW  Elec       q    Type
REMARK                         _______ _______ _______ _____ _____    ______ ____
ROOT
ATOM      1  C   UNL     1       2.423   3.969  21.159  0.00  0.00    +0.000 C 
ENDROOT
BRANCH   1   2
ATOM      2  C   UNL     1       3.050   3.436  19.937  0.00  0.00    +0.000 A 
ATOM      3  N   UNL     1       2.950   2.236  19.413  0.00  0.00    +0.000 NA
ATOM      4  N   UNL     1       3.782   2.226  18.319  0.00  0.00    +0.000 NA
ATOM      5  C   UNL     1       4.291   3.434  18.193  0.00  0.00    +0.000 A 
ATOM      6  O   UNL     1       3.856   4.268  19.204  0.00  0.00    +0.000 OA
BRANCH   5   7
ATOM      7  C   UNL     1       5.248   4.000  17.238  0.00  0.00    +0.000 A 
ATOM      8  C   UNL     1       4.829   4.034  15.880  0.00  0.00    +0.000 A 
ATOM      9  C   UNL     1       5.628   4.552  14.857  0.00  0.00    +0.000 A 
ATOM     10  C   UNL     1       6.878   5.059  15.159  0.00  0.00    +0.000 A 
ATOM     11  C   UNL     1       7.310   5.047  16.482  0.00  0.00    +0.000 A 
ATOM     12  C   UNL     1       6.521   4.527  17.535  0.00  0.00    +0.000 A 
BRANCH  12  13
ATOM     13  O   UNL     1       7.223   4.634  18.701  0.00  0.00    +0.000 OA
ATOM     14  C   UNL     1       7.820   5.843  19.120  0.00  0.00    +0.000 C 
ENDBRANCH  12  13
ENDBRANCH   5   7
ENDBRANCH   1   2
BRANCH   1  16
ATOM     15  N   UNL     1       2.161   6.372  20.757  0.00  0.00    +0.000 N 
ATOM     16  C   UNL     1       1.542   5.135  20.760  0.00  0.00    +0.000 C 
ATOM     17  O   UNL     1       0.360   4.986  20.462  0.00  0.00    +0.000 OA
ATOM     18  H   UNL     1       3.112   6.446  21.106  0.00  0.00    +0.000 HD
BRANCH  15  19
ATOM     19  C   UNL     1       1.448   7.617  20.430  0.00  0.00    +0.000 C 
BRANCH  19  20
ATOM     20  C   UNL     1       1.992   8.235  19.129  0.00  0.00    +0.000 C 
BRANCH  20  22
ATOM     21  C   UNL     1       0.474  10.252  18.228  0.00  0.00    +0.000 C 
ATOM     22  C   UNL     1       1.159   9.352  18.630  0.00  0.00    +0.000 C 
ENDBRANCH  20  22
ENDBRANCH  19  20
BRANCH  19  23
ATOM     23  C   UNL     1       1.434   8.564  21.637  0.00  0.00    +0.000 C 
BRANCH  23  24
ATOM     24  C   UNL     1       0.055   8.991  22.087  0.00  0.00    +0.000 C 
ATOM     25  F   UNL     1      -0.056   9.097  23.430  0.00  0.00    +0.000 F 
ATOM     26  F   UNL     1      -0.289  10.182  21.555  0.00  0.00    +0.000 F 
ATOM     27  F   UNL     1      -0.871   8.088  21.689  0.00  0.00    +0.000 F 
ENDBRANCH  23  24
ENDBRANCH  19  23
ENDBRANCH  15  19
ENDBRANCH   1  16
TORSDOF 9
ENDMDL
MODEL 3
REMARK VINA RESULT:      -7.2      4.503      6.594
REMARK  Name = 
REMARK  10 active torsions:
REMARK  status: ('A' for Active; 'I' for Inactive)
REMARK    1  A    between atoms: C_2  and  C_3
REMARK    2  A    between atoms: C_3  and  C_4
REMARK    3  A    between atoms: C_4  and  C_5
REMARK    4  A    between atoms: C_4  and  N_10
REMARK    5  A    between atoms: C_5  and  C_6
REMARK    6  A    between atoms: C_11  and  C_13
REMARK    7  A    between atoms: C_13  and  C_14
REMARK    8  A    between atoms: C_17  and  C_18
REMARK    9  A    between atoms: C_23  and  O_24
REMARK   10  A    between atoms: O_24  and  C_25
REMARK                            x       y       z     vdW  Elec       q    Type
REMARK                         _______ _______ _______ _____ _____    ______ ____
ROOT
ATOM      1  C   UNL     1       3.966   2.848  20.233  0.00  0.00    +0.000 C 
ENDROOT
BRANCH   1   2
ATOM      2  C   UNL     1       2.984   3.937  20.375  0.00  0.00    +0.000 A 
ATOM      3  N   UNL     1       1.856   3.949  21.047  0.00  0.00    +0.000 NA
ATOM      4  N   UNL     1       1.278   5.172  20.801  0.00  0.00    +0.000 NA
ATOM      5  C   UNL     1       2.111   5.865  20.052  0.00  0.00    +0.000 A 
ATOM      6  O   UNL     1       3.238   5.127  19.743  0.00  0.00    +0.000 OA
BRANCH   5   7
ATOM      7  C   UNL     1       2.020   7.205  19.466  0.00  0.00    +0.000 A 
ATOM      8  C   UNL     1       2.635   7.373  18.195  0.00  0.00    +0.000 A 
ATOM      9  C   UNL     1       2.625   8.590  17.508  0.00  0.00    +0.000 A 
ATOM     10  C   UNL     1       1.993   9.684  18.069  0.00  0.00    +0.000 A 
ATOM     11  C   UNL     1       1.375   9.546  19.308  0.00  0.00    +0.000 A 
ATOM     12  C   UNL     1       1.373   8.326  20.024  0.00  0.00    +0.000 A 
BRANCH  12  13
ATOM     13  O   UNL     1       0.714   8.513  21.205  0.00  0.00    +0.000 OA
ATOM     14  C   UNL     1       1.209   9.352  22.227  0.00  0.00    +0.000 C 
ENDBRANCH  12  13
ENDBRANCH   5   7
ENDBRANCH   1   2
BRANCH   1  16
ATOM     15  N   UNL     1       5.572   3.783  18.635  0.00  0.00    +0.000 N 
ATOM     16  C   UNL     1       4.522   2.903  18.824  0.00  0.00    +0.000 C 
ATOM     17  O   UNL     1       4.066   2.212  17.917  0.00  0.00    +0.000 OA
ATOM     18  H   UNL     1       5.842   4.397  19.399  0.00  0.00    +0.000 HD
BRANCH  15  19
ATOM     19  C   UNL     1       6.210   3.990  17.326  0.00  0.00    +0.000 C 
BRANCH  19  20
ATOM     20  C   UNL     1       7.569   4.697  17.481  0.00  0.00    +0.000 C 
BRANCH  20  22
ATOM     21  C   UNL     1       7.348   7.364  17.631  0.00  0.00    +0.000 C 
ATOM     22  C   UNL     1       7.446   6.169  17.570  0.00  0.00    +0.000 C 
ENDBRANCH  20  22
ENDBRANCH  19  20
BRANCH  19  23
ATOM     23  C   UNL     1       5.237   4.672  16.354  0.00  0.00    +0.000 C 
BRANCH  23  24
ATOM     24  C   UNL     1       5.677   4.657  14.907  0.00  0.00    +0.000 C 
ATOM     25  F   UNL     1       4.665   4.408  14.047  0.00  0.00    +0.000 F 
ATOM     26  F   UNL     1       6.234   5.834  14.552  0.00  0.00    +0.000 F 
ATOM     27  F   UNL     1       6.606   3.694  14.708  0.00  0.00    +0.000 F 
ENDBRANCH  23  24
ENDBRANCH  19  23
ENDBRANCH  15  19
ENDBRANCH   1  16
TORSDOF 9
ENDMDL
MODEL 4
REMARK VINA RESULT:      -7.1      5.629      7.174
REMARK  Name = 
REMARK  10 active torsions:
REMARK  status: ('A' for Active; 'I' for Inactive)
REMARK    1  A    between atoms: C_2  and  C_3
REMARK    2  A    between atoms: C_3  and  C_4
REMARK    3  A    between atoms: C_4  and  C_5
REMARK    4  A    between atoms: C_4  and  N_10
REMARK    5  A    between atoms: C_5  and  C_6
REMARK    6  A    between atoms: C_11  and  C_13
REMARK    7  A    between atoms: C_13  and  C_14
REMARK    8  A    between atoms: C_17  and  C_18
REMARK    9  A    between atoms: C_23  and  O_24
REMARK   10  A    between atoms: O_24  and  C_25
REMARK                            x       y       z     vdW  Elec       q    Type
REMARK                         _______ _______ _______ _____ _____    ______ ____
ROOT
ATOM      1  C   UNL     1       2.643   6.508  19.542  0.00  0.00    +0.000 C 
ENDROOT
BRANCH   1   2
ATOM      2  C   UNL     1       2.342   7.733  18.781  0.00  0.00    +0.000 A 
ATOM      3  N   UNL     1       2.788   8.103  17.602  0.00  0.00    +0.000 NA
ATOM      4  N   UNL     1       2.266   9.354  17.372  0.00  0.00    +0.000 NA
ATOM      5  C   UNL     1       1.480   9.652  18.385  0.00  0.00    +0.000 A 
ATOM      6  O   UNL     1       1.479   8.645  19.331  0.00  0.00    +0.000 OA
BRANCH   5   7
ATOM      7  C   UNL     1       0.688  10.846  18.695  0.00  0.00    +0.000 A 
ATOM      8  C   UNL     1       1.424  12.032  18.961  0.00  0.00    +0.000 A 
ATOM      9  C   UNL     1       0.810  13.250  19.263  0.00  0.00    +0.000 A 
ATOM     10  C   UNL     1      -0.570  13.325  19.306  0.00  0.00    +0.000 A 
ATOM     11  C   UNL     1      -1.317  12.181  19.042  0.00  0.00    +0.000 A 
ATOM     12  C   UNL     1      -0.719  10.936  18.735  0.00  0.00    +0.000 A 
BRANCH  12  13
ATOM     13  O   UNL     1      -1.705  10.010  18.550  0.00  0.00    +0.000 OA
ATOM     14  C   UNL     1      -2.424   9.898  17.341  0.00  0.00    +0.000 C 
ENDBRANCH  12  13
ENDBRANCH   5   7
ENDBRANCH   1   2
BRANCH   1  16
ATOM     15  N   UNL     1       4.729   6.053  18.339  0.00  0.00    +0.000 N 
ATOM     16  C   UNL     1       3.461   5.596  18.652  0.00  0.00    +0.000 C 
ATOM     17  O   UNL     1       3.023   4.525  18.238  0.00  0.00    +0.000 OA
ATOM     18  H   UNL     1       4.999   6.988  18.630  0.00  0.00    +0.000 HD
BRANCH  15  19
ATOM     19  C   UNL     1       5.646   5.313  17.459  0.00  0.00    +0.000 C 
BRANCH  19  20
ATOM     20  C   UNL     1       7.112   5.554  17.865  0.00  0.00    +0.000 C 
BRANCH  20  22
ATOM     21  C   UNL     1       7.855   8.119  17.645  0.00  0.00    +0.000 C 
ATOM     22  C   UNL     1       7.519   6.971  17.738  0.00  0.00    +0.000 C 
ENDBRANCH  20  22
ENDBRANCH  19  20
BRANCH  19  23
ATOM     23  C   UNL     1       5.330   5.602  15.985  0.00  0.00    +0.000 C 
BRANCH  23  24
ATOM     24  C   UNL     1       5.871   4.578  15.012  0.00  0.00    +0.000 C 
ATOM     25  F   UNL     1       6.083   3.369  15.579  0.00  0.00    +0.000 F 
ATOM     26  F   UNL     1       5.031   4.398  13.971  0.00  0.00    +0.000 F 
ATOM     27  F   UNL     1       7.057   4.987  14.508  0.00  0.00    +0.000 F 
ENDBRANCH  23  24
ENDBRANCH  19  23
ENDBRANCH  15  19
ENDBRANCH   1  16
TORSDOF 9
ENDMDL
MODEL 5
REMARK VINA RESULT:      -7.1      1.725      2.264
REMARK  Name = 
REMARK  10 active torsions:
REMARK  status: ('A' for Active; 'I' for Inactive)
REMARK    1  A    between atoms: C_2  and  C_3
REMARK    2  A    between atoms: C_3  and  C_4
REMARK    3  A    between atoms: C_4  and  C_5
REMARK    4  A    between atoms: C_4  and  N_10
REMARK    5  A    between atoms: C_5  and  C_6
REMARK    6  A    between atoms: C_11  and  C_13
REMARK    7  A    between atoms: C_13  and  C_14
REMARK    8  A    between atoms: C_17  and  C_18
REMARK    9  A    between atoms: C_23  and  O_24
REMARK   10  A    between atoms: O_24  and  C_25
REMARK                            x       y       z     vdW  Elec       q    Type
REMARK                         _______ _______ _______ _____ _____    ______ ____
ROOT
ATOM      1  C   UNL     1       8.132   6.001  18.750  0.00  0.00    +0.000 C 
ENDROOT
BRANCH   1   2
ATOM      2  C   UNL     1       8.120   7.431  18.394  0.00  0.00    +0.000 A 
ATOM      3  N   UNL     1       7.393   8.051  17.493  0.00  0.00    +0.000 NA
ATOM      4  N   UNL     1       7.810   9.361  17.502  0.00  0.00    +0.000 NA
ATOM      5  C   UNL     1       8.716   9.486  18.450  0.00  0.00    +0.000 A 
ATOM      6  O   UNL     1       8.961   8.275  19.070  0.00  0.00    +0.000 OA
BRANCH   5   7
ATOM      7  C   UNL     1       9.518  10.629  18.896  0.00  0.00    +0.000 A 
ATOM      8  C   UNL     1      10.317  11.257  17.904  0.00  0.00    +0.000 A 
ATOM      9  C   UNL     1      11.128  12.362  18.176  0.00  0.00    +0.000 A 
ATOM     10  C   UNL     1      11.164  12.881  19.456  0.00  0.00    +0.000 A 
ATOM     11  C   UNL     1      10.385  12.291  20.447  0.00  0.00    +0.000 A 
ATOM     12  C   UNL     1       9.558  11.171  20.197  0.00  0.00    +0.000 A 
BRANCH  12  13
ATOM     13  O   UNL     1       8.944  10.812  21.363  0.00  0.00    +0.000 OA
ATOM     14  C   UNL     1       8.485  11.760  22.303  0.00  0.00    +0.000 C 
ENDBRANCH  12  13
ENDBRANCH   5   7
ENDBRANCH   1   2
BRANCH   1  16
ATOM     15  N   UNL     1       5.956   5.545  17.718  0.00  0.00    +0.000 N 
ATOM     16  C   UNL     1       6.694   5.544  18.888  0.00  0.00    +0.000 C 
ATOM     17  O   UNL     1       6.221   5.198  19.968  0.00  0.00    +0.000 OA
ATOM     18  H   UNL     1       6.372   5.933  16.875  0.00  0.00    +0.000 HD
BRANCH  15  19
ATOM     19  C   UNL     1       4.536   5.165  17.673  0.00  0.00    +0.000 C 
BRANCH  19  20
ATOM     20  C   UNL     1       4.321   3.945  16.758  0.00  0.00    +0.000 C 
BRANCH  20  22
ATOM     21  C   UNL     1       2.527   2.206  17.725  0.00  0.00    +0.000 C 
ATOM     22  C   UNL     1       3.328   2.990  17.295  0.00  0.00    +0.000 C 
ENDBRANCH  20  22
ENDBRANCH  19  20
BRANCH  19  23
ATOM     23  C   UNL     1       3.662   6.382  17.340  0.00  0.00    +0.000 C 
BRANCH  23  24
ATOM     24  C   UNL     1       2.420   6.517  18.193  0.00  0.00    +0.000 C 
ATOM     25  F   UNL     1       1.903   7.766  18.182  0.00  0.00    +0.000 F 
ATOM     26  F   UNL     1       1.451   5.671  17.787  0.00  0.00    +0.000 F 
ATOM     27  F   UNL     1       2.700   6.222  19.483  0.00  0.00    +0.000 F 
ENDBRANCH  23  24
ENDBRANCH  19  23
ENDBRANCH  15  19
ENDBRANCH   1  16
TORSDOF 9
ENDMDL
MODEL 6
REMARK VINA RESULT:      -7.1      4.458      6.677
REMARK  Name = 
REMARK  10 active torsions:
REMARK  status: ('A' for Active; 'I' for Inactive)
REMARK    1  A    between atoms: C_2  and  C_3
REMARK    2  A    between atoms: C_3  and  C_4
REMARK    3  A    between atoms: C_4  and  C_5
REMARK    4  A    between atoms: C_4  and  N_10
REMARK    5  A    between atoms: C_5  and  C_6
REMARK    6  A    between atoms: C_11  and  C_13
REMARK    7  A    between atoms: C_13  and  C_14
REMARK    8  A    between atoms: C_17  and  C_18
REMARK    9  A    between atoms: C_23  and  O_24
REMARK   10  A    between atoms: O_24  and  C_25
REMARK                            x       y       z     vdW  Elec       q    Type
REMARK                         _______ _______ _______ _____ _____    ______ ____
ROOT
ATOM      1  C   UNL     1       3.420   3.700  18.880  0.00  0.00    +0.000 C 
ENDROOT
BRANCH   1   2
ATOM      2  C   UNL     1       2.751   4.779  19.628  0.00  0.00    +0.000 A 
ATOM      3  N   UNL     1       2.163   4.730  20.801  0.00  0.00    +0.000 NA
ATOM      4  N   UNL     1       1.636   5.981  21.017  0.00  0.00    +0.000 NA
ATOM      5  C   UNL     1       1.987   6.743  20.003  0.00  0.00    +0.000 A 
ATOM      6  O   UNL     1       2.714   6.030  19.069  0.00  0.00    +0.000 OA
BRANCH   5   7
ATOM      7  C   UNL     1       1.695   8.143  19.681  0.00  0.00    +0.000 A 
ATOM      8  C   UNL     1       1.952   8.543  18.341  0.00  0.00    +0.000 A 
ATOM      9  C   UNL     1       1.716   9.841  17.883  0.00  0.00    +0.000 A 
ATOM     10  C   UNL     1       1.211  10.789  18.753  0.00  0.00    +0.000 A 
ATOM     11  C   UNL     1       0.942  10.425  20.068  0.00  0.00    +0.000 A 
ATOM     12  C   UNL     1       1.173   9.117  20.557  0.00  0.00    +0.000 A 
BRANCH  12  13
ATOM     13  O   UNL     1       0.836   9.078  21.879  0.00  0.00    +0.000 OA
ATOM     14  C   UNL     1      -0.487   8.860  22.320  0.00  0.00    +0.000 C 
ENDBRANCH  12  13
ENDBRANCH   5   7
ENDBRANCH   1   2
BRANCH   1  16
ATOM     15  N   UNL     1       4.510   5.003  17.114  0.00  0.00    +0.000 N 
ATOM     16  C   UNL     1       4.686   4.270  18.273  0.00  0.00    +0.000 C 
ATOM     17  O   UNL     1       5.791   4.087  18.779  0.00  0.00    +0.000 OA
ATOM     18  H   UNL     1       3.586   5.038  16.690  0.00  0.00    +0.000 HD
BRANCH  15  19
ATOM     19  C   UNL     1       5.631   5.599  16.371  0.00  0.00    +0.000 C 
BRANCH  19  20
ATOM     20  C   UNL     1       5.860   7.061  16.800  0.00  0.00    +0.000 C 
BRANCH  20  22
ATOM     21  C   UNL     1       8.113   7.402  18.210  0.00  0.00    +0.000 C 
ATOM     22  C   UNL     1       7.102   7.244  17.582  0.00  0.00    +0.000 C 
ENDBRANCH  20  22
ENDBRANCH  19  20
BRANCH  19  23
ATOM     23  C   UNL     1       5.450   5.391  14.861  0.00  0.00    +0.000 C 
BRANCH  23  24
ATOM     24  C   UNL     1       6.430   4.423  14.237  0.00  0.00    +0.000 C 
ATOM     25  F   UNL     1       6.752   3.394  15.053  0.00  0.00    +0.000 F 
ATOM     26  F   UNL     1       5.941   3.899  13.094  0.00  0.00    +0.000 F 
ATOM     27  F   UNL     1       7.586   5.055  13.930  0.00  0.00    +0.000 F 
ENDBRANCH  23  24
ENDBRANCH  19  23
ENDBRANCH  15  19
ENDBRANCH   1  16
TORSDOF 9
ENDMDL
MODEL 7
REMARK VINA RESULT:      -7.1      5.680      7.385
REMARK  Name = 
REMARK  10 active torsions:
REMARK  status: ('A' for Active; 'I' for Inactive)
REMARK    1  A    between atoms: C_2  and  C_3
REMARK    2  A    between atoms: C_3  and  C_4
REMARK    3  A    between atoms: C_4  and  C_5
REMARK    4  A    between atoms: C_4  and  N_10
REMARK    5  A    between atoms: C_5  and  C_6
REMARK    6  A    between atoms: C_11  and  C_13
REMARK    7  A    between atoms: C_13  and  C_14
REMARK    8  A    between atoms: C_17  and  C_18
REMARK    9  A    between atoms: C_23  and  O_24
REMARK   10  A    between atoms: O_24  and  C_25
REMARK                            x       y       z     vdW  Elec       q    Type
REMARK                         _______ _______ _______ _____ _____    ______ ____
ROOT
ATOM      1  C   UNL     1       3.658   7.347  17.789  0.00  0.00    +0.000 C 
ENDROOT
BRANCH   1   2
ATOM      2  C   UNL     1       2.550   8.269  18.093  0.00  0.00    +0.000 A 
ATOM      3  N   UNL     1       1.880   9.052  17.278  0.00  0.00    +0.000 NA
ATOM      4  N   UNL     1       1.002   9.759  18.065  0.00  0.00    +0.000 NA
ATOM      5  C   UNL     1       1.133   9.326  19.301  0.00  0.00    +0.000 A 
ATOM      6  O   UNL     1       2.115   8.357  19.390  0.00  0.00    +0.000 OA
BRANCH   5   7
ATOM      7  C   UNL     1       0.485   9.723  20.555  0.00  0.00    +0.000 A 
ATOM      8  C   UNL     1       0.133   8.667  21.437  0.00  0.00    +0.000 A 
ATOM      9  C   UNL     1      -0.483   8.889  22.672  0.00  0.00    +0.000 A 
ATOM     10  C   UNL     1      -0.766  10.183  23.068  0.00  0.00    +0.000 A 
ATOM     11  C   UNL     1      -0.424  11.238  22.228  0.00  0.00    +0.000 A 
ATOM     12  C   UNL     1       0.199  11.039  20.974  0.00  0.00    +0.000 A 
BRANCH  12  13
ATOM     13  O   UNL     1       0.385  12.254  20.379  0.00  0.00    +0.000 OA
ATOM     14  C   UNL     1       0.831  13.388  21.092  0.00  0.00    +0.000 C 
ENDBRANCH  12  13
ENDBRANCH   5   7
ENDBRANCH   1   2
BRANCH   1  16
ATOM     15  N   UNL     1       2.335   5.320  18.170  0.00  0.00    +0.000 N 
ATOM     16  C   UNL     1       3.427   6.068  18.569  0.00  0.00    +0.000 C 
ATOM     17  O   UNL     1       4.162   5.727  19.492  0.00  0.00    +0.000 OA
ATOM     18  H   UNL     1       1.709   5.701  17.466  0.00  0.00    +0.000 HD
BRANCH  15  19
ATOM     19  C   UNL     1       1.941   4.069  18.837  0.00  0.00    +0.000 C 
BRANCH  19  20
ATOM     20  C   UNL     1       1.153   4.359  20.128  0.00  0.00    +0.000 C 
BRANCH  20  22
ATOM     21  C   UNL     1       1.471   2.469  22.002  0.00  0.00    +0.000 C 
ATOM     22  C   UNL     1       1.331   3.312  21.158  0.00  0.00    +0.000 C 
ENDBRANCH  20  22
ENDBRANCH  19  20
BRANCH  19  23
ATOM     23  C   UNL     1       3.156   3.148  19.016  0.00  0.00    +0.000 C 
BRANCH  23  24
ATOM     24  C   UNL     1       3.405   2.203  17.862  0.00  0.00    +0.000 C 
ATOM     25  F   UNL     1       2.292   1.940  17.142  0.00  0.00    +0.000 F 
ATOM     26  F   UNL     1       4.332   2.697  17.015  0.00  0.00    +0.000 F 
ATOM     27  F   UNL     1       3.867   1.015  18.317  0.00  0.00    +0.000 F 
ENDBRANCH  23  24
ENDBRANCH  19  23
ENDBRANCH  15  19
ENDBRANCH   1  16
TORSDOF 9
ENDMDL
MODEL 8
REMARK VINA RESULT:      -7.0      4.451      6.710
REMARK  Name = 
REMARK  10 active torsions:
REMARK  status: ('A' for Active; 'I' for Inactive)
REMARK    1  A    between atoms: C_2  and  C_3
REMARK    2  A    between atoms: C_3  and  C_4
REMARK    3  A    between atoms: C_4  and  C_5
REMARK    4  A    between atoms: C_4  and  N_10
REMARK    5  A    between atoms: C_5  and  C_6
REMARK    6  A    between atoms: C_11  and  C_13
REMARK    7  A    between atoms: C_13  and  C_14
REMARK    8  A    between atoms: C_17  and  C_18
REMARK    9  A    between atoms: C_23  and  O_24
REMARK   10  A    between atoms: O_24  and  C_25
REMARK                            x       y       z     vdW  Elec       q    Type
REMARK                         _______ _______ _______ _____ _____    ______ ____
ROOT
ATOM      1  C   UNL     1       2.429   3.472  18.339  0.00  0.00    +0.000 C 
ENDROOT
BRANCH   1   2
ATOM      2  C   UNL     1       2.340   4.633  19.243  0.00  0.00    +0.000 A 
ATOM      3  N   UNL     1       2.479   4.675  20.548  0.00  0.00    +0.000 NA
ATOM      4  N   UNL     1       2.231   5.976  20.916  0.00  0.00    +0.000 NA
ATOM      5  C   UNL     1       2.023   6.670  19.817  0.00  0.00    +0.000 A 
ATOM      6  O   UNL     1       2.083   5.863  18.697  0.00  0.00    +0.000 OA
BRANCH   5   7
ATOM      7  C   UNL     1       1.691   8.081  19.595  0.00  0.00    +0.000 A 
ATOM      8  C   UNL     1       2.076   8.623  18.339  0.00  0.00    +0.000 A 
ATOM      9  C   UNL     1       1.822   9.949  17.979  0.00  0.00    +0.000 A 
ATOM     10  C   UNL     1       1.166  10.781  18.867  0.00  0.00    +0.000 A 
ATOM     11  C   UNL     1       0.769  10.275  20.101  0.00  0.00    +0.000 A 
ATOM     12  C   UNL     1       1.016   8.938  20.489  0.00  0.00    +0.000 A 
BRANCH  12  13
ATOM     13  O   UNL     1       0.532   8.751  21.752  0.00  0.00    +0.000 OA
ATOM     14  C   UNL     1       0.127   9.824  22.576  0.00  0.00    +0.000 C 
ENDBRANCH  12  13
ENDBRANCH   5   7
ENDBRANCH   1   2
BRANCH   1  16
ATOM     15  N   UNL     1       4.532   4.624  17.832  0.00  0.00    +0.000 N 
ATOM     16  C   UNL     1       3.833   3.431  17.772  0.00  0.00    +0.000 C 
ATOM     17  O   UNL     1       4.312   2.407  17.291  0.00  0.00    +0.000 OA
ATOM     18  H   UNL     1       4.051   5.460  18.151  0.00  0.00    +0.000 HD
BRANCH  15  19
ATOM     19  C   UNL     1       5.894   4.775  17.296  0.00  0.00    +0.000 C 
BRANCH  19  20
ATOM     20  C   UNL     1       6.826   5.419  18.338  0.00  0.00    +0.000 C 
BRANCH  20  22
ATOM     21  C   UNL     1       7.757   7.813  17.572  0.00  0.00    +0.000 C 
ATOM     22  C   UNL     1       7.344   6.738  17.911  0.00  0.00    +0.000 C 
ENDBRANCH  20  22
ENDBRANCH  19  20
BRANCH  19  23
ATOM     23  C   UNL     1       5.863   5.482  15.934  0.00  0.00    +0.000 C 
BRANCH  23  24
ATOM     24  C   UNL     1       6.163   4.587  14.753  0.00  0.00    +0.000 C 
ATOM     25  F   UNL     1       5.123   4.470  13.898  0.00  0.00    +0.000 F 
ATOM     26  F   UNL     1       7.220   5.043  14.048  0.00  0.00    +0.000 F 
ATOM     27  F   UNL     1       6.466   3.338  15.173  0.00  0.00    +0.000 F 
ENDBRANCH  23  24
ENDBRANCH  19  23
ENDBRANCH  15  19
ENDBRANCH   1  16
TORSDOF 9
ENDMDL
MODEL 9
REMARK VINA RESULT:      -7.0      5.982      7.895
REMARK  Name = 
REMARK  10 active torsions:
REMARK  status: ('A' for Active; 'I' for Inactive)
REMARK    1  A    between atoms: C_2  and  C_3
REMARK    2  A    between atoms: C_3  and  C_4
REMARK    3  A    between atoms: C_4  and  C_5
REMARK    4  A    between atoms: C_4  and  N_10
REMARK    5  A    between atoms: C_5  and  C_6
REMARK    6  A    between atoms: C_11  and  C_13
REMARK    7  A    between atoms: C_13  and  C_14
REMARK    8  A    between atoms: C_17  and  C_18
REMARK    9  A    between atoms: C_23  and  O_24
REMARK   10  A    between atoms: O_24  and  C_25
REMARK                            x       y       z     vdW  Elec       q    Type
REMARK                         _______ _______ _______ _____ _____    ______ ____
ROOT
ATOM      1  C   UNL     1       6.969   4.262  15.799  0.00  0.00    +0.000 C 
ENDROOT
BRANCH   1   2
ATOM      2  C   UNL     1       5.902   4.996  16.501  0.00  0.00    +0.000 A 
ATOM      3  N   UNL     1       5.680   6.290  16.543  0.00  0.00    +0.000 NA
ATOM      4  N   UNL     1       4.610   6.467  17.387  0.00  0.00    +0.000 NA
ATOM      5  C   UNL     1       4.193   5.274  17.760  0.00  0.00    +0.000 A 
ATOM      6  O   UNL     1       4.982   4.277  17.219  0.00  0.00    +0.000 OA
BRANCH   5   7
ATOM      7  C   UNL     1       3.119   4.847  18.662  0.00  0.00    +0.000 A 
ATOM      8  C   UNL     1       2.688   5.806  19.617  0.00  0.00    +0.000 A 
ATOM      9  C   UNL     1       1.669   5.549  20.538  0.00  0.00    +0.000 A 
ATOM     10  C   UNL     1       1.041   4.317  20.532  0.00  0.00    +0.000 A 
ATOM     11  C   UNL     1       1.437   3.361  19.602  0.00  0.00    +0.000 A 
ATOM     12  C   UNL     1       2.467   3.597  18.661  0.00  0.00    +0.000 A 
BRANCH  12  13
ATOM     13  O   UNL     1       2.639   2.471  17.908  0.00  0.00    +0.000 OA
ATOM     14  C   UNL     1       3.458   1.399  18.322  0.00  0.00    +0.000 C 
ENDBRANCH  12  13
ENDBRANCH   5   7
ENDBRANCH   1   2
BRANCH   1  16
ATOM     15  N   UNL     1       6.054   3.605  13.623  0.00  0.00    +0.000 N 
ATOM     16  C   UNL     1       6.819   4.527  14.315  0.00  0.00    +0.000 C 
ATOM     17  O   UNL     1       7.344   5.494  13.769  0.00  0.00    +0.000 OA
ATOM     18  H   UNL     1       5.727   2.774  14.109  0.00  0.00    +0.000 HD
BRANCH  15  19
ATOM     19  C   UNL     1       5.831   3.687  12.171  0.00  0.00    +0.000 C 
BRANCH  19  20
ATOM     20  C   UNL     1       4.586   2.880  11.759  0.00  0.00    +0.000 C 
BRANCH  20  22
ATOM     21  C   UNL     1       3.131   4.109   9.874  0.00  0.00    +0.000 C 
ATOM     22  C   UNL     1       3.783   3.554  10.715  0.00  0.00    +0.000 C 
ENDBRANCH  20  22
ENDBRANCH  19  20
BRANCH  19  23
ATOM     23  C   UNL     1       7.114   3.327  11.408  0.00  0.00    +0.000 C 
BRANCH  23  24
ATOM     24  C   UNL     1       7.219   1.873  11.003  0.00  0.00    +0.000 C 
ATOM     25  F   UNL     1       6.021   1.248  10.955  0.00  0.00    +0.000 F 
ATOM     26  F   UNL     1       7.795   1.742   9.790  0.00  0.00    +0.000 F 
ATOM     27  F   UNL     1       7.981   1.192  11.888  0.00  0.00    +0.000 F 
ENDBRANCH  23  24
ENDBRANCH  19  23
ENDBRANCH  15  19
ENDBRANCH   1  16
TORSDOF 9
ENDMDL
