MODEL 1
REMARK VINA RESULT:      -7.9      0.000      0.000
REMARK  Name = 
REMARK  7 active torsions:
REMARK  status: ('A' for Active; 'I' for Inactive)
REMARK    1  A    between atoms: O_1  and  C_2
REMARK    2  A    between atoms: C_5  and  C_6
REMARK    3  A    between atoms: C_13  and  C_14
REMARK    4  A    between atoms: C_14  and  N_15
REMARK    5  A    between atoms: N_15  and  C_16
REMARK    6  A    between atoms: N_19  and  C_20
REMARK    7  A    between atoms: C_20  and  C_21
REMARK                            x       y       z     vdW  Elec       q    Type
REMARK                         _______ _______ _______ _____ _____    ______ ____
ROOT
ATOM      1  C   UNL     1       3.651   7.173  17.286  0.00  0.00    +0.000 C 
ENDROOT
BRANCH   1   7
ATOM      2  C   UNL     1       2.535   7.101  19.591  0.00  0.00    +0.000 A 
ATOM      3  C   UNL     1       1.685   7.656  20.549  0.00  0.00    +0.000 A 
ATOM      4  C   UNL     1       1.025   8.861  20.281  0.00  0.00    +0.000 A 
ATOM      5  C   UNL     1       1.186   9.521  19.052  0.00  0.00    +0.000 A 
ATOM      6  C   UNL     1       2.067   8.943  18.119  0.00  0.00    +0.000 A 
ATOM      7  C   UNL     1       2.757   7.742  18.372  0.00  0.00    +0.000 A 
BRANCH   5   8
ATOM      8  C   UNL     1       0.455  10.766  18.754  0.00  0.00    +0.000 A 
ATOM      9  C   UNL     1      -0.884  10.791  18.352  0.00  0.00    +0.000 A 
ATOM     10  N   UNL     1      -1.566  11.926  18.068  0.00  0.00    +0.000 NA
ATOM     11  C   UNL     1      -0.857  13.064  18.201  0.00  0.00    +0.000 A 
ATOM     12  C   UNL     1       0.465  13.066  18.607  0.00  0.00    +0.000 A 
ATOM     13  N   UNL     1       1.143  11.930  18.899  0.00  0.00    +0.000 NA
ENDBRANCH   5   8
BRANCH   2  14
ATOM     14  O   UNL     1       3.150   5.908  19.854  0.00  0.00    +0.000 OA
ATOM     15  H   UNL     1       2.531   5.182  19.659  0.00  0.00    +0.000 HD
ENDBRANCH   2  14
ENDBRANCH   1   7
BRANCH   1  16
ATOM     16  N   UNL     1       5.042   6.982  17.756  0.00  0.00    +0.000 NA
ATOM     17  H   UNL     1       4.972   6.752  18.752  0.00  0.00    +0.000 HD
BRANCH  16  18
ATOM     18  C   UNL     1       5.717   5.849  17.082  0.00  0.00    +0.000 C 
ATOM     19  C   UNL     1       4.764   5.143  16.091  0.00  0.00    +0.000 C 
ATOM     20  C   UNL     1       3.878   4.049  16.704  0.00  0.00    +0.000 C 
ATOM     21  N   UNL     1       4.645   3.106  17.542  0.00  0.00    +0.000 NA
ATOM     22  C   UNL     1       5.282   3.861  18.630  0.00  0.00    +0.000 C 
ATOM     23  C   UNL     1       6.321   4.809  18.037  0.00  0.00    +0.000 C 
BRANCH  21  24
ATOM     24  C   UNL     1       3.755   2.040  18.045  0.00  0.00    +0.000 C 
BRANCH  24  25
ATOM     25  C   UNL     1       2.844   2.444  19.194  0.00  0.00    +0.000 A 
ATOM     26  C   UNL     1       3.307   2.375  20.519  0.00  0.00    +0.000 A 
ATOM     27  C   UNL     1       2.492   2.772  21.583  0.00  0.00    +0.000 A 
ATOM     28  C   UNL     1       1.205   3.245  21.333  0.00  0.00    +0.000 A 
ATOM     29  C   UNL     1       0.732   3.317  20.025  0.00  0.00    +0.000 A 
ATOM     30  C   UNL     1       1.544   2.919  18.960  0.00  0.00    +0.000 A 
ENDBRANCH  24  25
ENDBRANCH  21  24
ENDBRANCH  16  18
ENDBRANCH   1  16
TORSDOF 7
ENDMDL
MODEL 2
REMARK VINA RESULT:      -7.8      0.531      1.289
REMARK  Name = 
REMARK  7 active torsions:
REMARK  status: ('A' for Active; 'I' for Inactive)
REMARK    1  A    between atoms: O_1  and  C_2
REMARK    2  A    between atoms: C_5  and  C_6
REMARK    3  A    between atoms: C_13  and  C_14
REMARK    4  A    between atoms: C_14  and  N_15
REMARK    5  A    between atoms: N_15  and  C_16
REMARK    6  A    between atoms: N_19  and  C_20
REMARK    7  A    between atoms: C_20  and  C_21
REMARK                            x       y       z     vdW  Elec       q    Type
REMARK                         _______ _______ _______ _____ _____    ______ ____
ROOT
ATOM      1  C   UNL     1       3.684   7.244  17.307  0.00  0.00    +0.000 C 
ENDROOT
BRANCH   1   7
ATOM      2  C   UNL     1       2.494   7.165  19.574  0.00  0.00    +0.000 A 
ATOM      3  C   UNL     1       1.634   7.731  20.517  0.00  0.00    +0.000 A 
ATOM      4  C   UNL     1       1.027   8.965  20.255  0.00  0.00    +0.000 A 
ATOM      5  C   UNL     1       1.251   9.643  19.045  0.00  0.00    +0.000 A 
ATOM      6  C   UNL     1       2.139   9.052  18.128  0.00  0.00    +0.000 A 
ATOM      7  C   UNL     1       2.777   7.823  18.376  0.00  0.00    +0.000 A 
BRANCH   5   8
ATOM      8  C   UNL     1       0.574  10.920  18.753  0.00  0.00    +0.000 A 
ATOM      9  C   UNL     1       1.223  12.158  18.791  0.00  0.00    +0.000 A 
ATOM     10  N   UNL     1       0.612  13.338  18.532  0.00  0.00    +0.000 NA
ATOM     11  C   UNL     1      -0.697  13.247  18.226  0.00  0.00    +0.000 A 
ATOM     12  C   UNL     1      -1.358  12.033  18.172  0.00  0.00    +0.000 A 
ATOM     13  N   UNL     1      -0.744  10.853  18.423  0.00  0.00    +0.000 NA
ENDBRANCH   5   8
BRANCH   2  14
ATOM     14  O   UNL     1       3.057   5.945  19.830  0.00  0.00    +0.000 OA
ATOM     15  H   UNL     1       2.411   5.247  19.622  0.00  0.00    +0.000 HD
ENDBRANCH   2  14
ENDBRANCH   1   7
BRANCH   1  16
ATOM     16  N   UNL     1       5.063   7.030  17.804  0.00  0.00    +0.000 NA
ATOM     17  H   UNL     1       4.968   6.774  18.791  0.00  0.00    +0.000 HD
BRANCH  16  18
ATOM     18  C   UNL     1       5.746   5.911  17.115  0.00  0.00    +0.000 C 
ATOM     19  C   UNL     1       4.797   5.208  16.118  0.00  0.00    +0.000 C 
ATOM     20  C   UNL     1       3.923   4.099  16.720  0.00  0.00    +0.000 C 
ATOM     21  N   UNL     1       4.700   3.153  17.545  0.00  0.00    +0.000 NA
ATOM     22  C   UNL     1       5.332   3.901  18.641  0.00  0.00    +0.000 C 
ATOM     23  C   UNL     1       6.362   4.866  18.056  0.00  0.00    +0.000 C 
BRANCH  21  24
ATOM     24  C   UNL     1       3.821   2.073  18.037  0.00  0.00    +0.000 C 
BRANCH  24  25
ATOM     25  C   UNL     1       2.900   2.459  19.185  0.00  0.00    +0.000 A 
ATOM     26  C   UNL     1       1.562   2.806  18.931  0.00  0.00    +0.000 A 
ATOM     27  C   UNL     1       0.697   3.132  19.978  0.00  0.00    +0.000 A 
ATOM     28  C   UNL     1       1.159   3.113  21.293  0.00  0.00    +0.000 A 
ATOM     29  C   UNL     1       2.483   2.774  21.561  0.00  0.00    +0.000 A 
ATOM     30  C   UNL     1       3.351   2.448  20.515  0.00  0.00    +0.000 A 
ENDBRANCH  24  25
ENDBRANCH  21  24
ENDBRANCH  16  18
ENDBRANCH   1  16
TORSDOF 7
ENDMDL
MODEL 3
REMARK VINA RESULT:      -7.8      2.548      7.657
REMARK  Name = 
REMARK  7 active torsions:
REMARK  status: ('A' for Active; 'I' for Inactive)
REMARK    1  A    between atoms: O_1  and  C_2
REMARK    2  A    between atoms: C_5  and  C_6
REMARK    3  A    between atoms: C_13  and  C_14
REMARK    4  A    between atoms: C_14  and  N_15
REMARK    5  A    between atoms: N_15  and  C_16
REMARK    6  A    between atoms: N_19  and  C_20
REMARK    7  A    between atoms: C_20  and  C_21
REMARK                            x       y       z     vdW  Elec       q    Type
REMARK                         _______ _______ _______ _____ _____    ______ ____
ROOT
ATOM      1  C   UNL     1       4.315   3.163  18.574  0.00  0.00    +0.000 C 
ENDROOT
BRANCH   1   7
ATOM      2  C   UNL     1       5.989   5.101  18.653  0.00  0.00    +0.000 A 
ATOM      3  C   UNL     1       6.914   5.937  18.024  0.00  0.00    +0.000 A 
ATOM      4  C   UNL     1       7.188   5.772  16.662  0.00  0.00    +0.000 A 
ATOM      5  C   UNL     1       6.533   4.789  15.901  0.00  0.00    +0.000 A 
ATOM      6  C   UNL     1       5.623   3.952  16.573  0.00  0.00    +0.000 A 
ATOM      7  C   UNL     1       5.345   4.084  17.947  0.00  0.00    +0.000 A 
BRANCH   5   8
ATOM      8  C   UNL     1       6.790   4.649  14.456  0.00  0.00    +0.000 A 
ATOM      9  C   UNL     1       6.127   3.721  13.647  0.00  0.00    +0.000 A 
ATOM     10  N   UNL     1       6.358   3.576  12.320  0.00  0.00    +0.000 NA
ATOM     11  C   UNL     1       7.292   4.403  11.811  0.00  0.00    +0.000 A 
ATOM     12  C   UNL     1       7.953   5.335  12.590  0.00  0.00    +0.000 A 
ATOM     13  N   UNL     1       7.715   5.485  13.914  0.00  0.00    +0.000 NA
ENDBRANCH   5   8
BRANCH   2  14
ATOM     14  O   UNL     1       5.709   5.292  19.978  0.00  0.00    +0.000 OA
ATOM     15  H   UNL     1       4.745   5.368  20.091  0.00  0.00    +0.000 HD
ENDBRANCH   2  14
ENDBRANCH   1   7
BRANCH   1  16
ATOM     16  N   UNL     1       3.660   3.781  19.749  0.00  0.00    +0.000 NA
ATOM     17  H   UNL     1       4.208   4.618  19.967  0.00  0.00    +0.000 HD
BRANCH  16  18
ATOM     18  C   UNL     1       2.274   4.216  19.461  0.00  0.00    +0.000 C 
ATOM     19  C   UNL     1       2.167   4.837  18.050  0.00  0.00    +0.000 C 
ATOM     20  C   UNL     1       2.488   6.337  17.971  0.00  0.00    +0.000 C 
ATOM     21  N   UNL     1       1.783   7.120  19.003  0.00  0.00    +0.000 NA
ATOM     22  C   UNL     1       2.188   6.621  20.325  0.00  0.00    +0.000 C 
ATOM     23  C   UNL     1       1.685   5.189  20.493  0.00  0.00    +0.000 C 
BRANCH  21  24
ATOM     24  C   UNL     1       2.076   8.557  18.834  0.00  0.00    +0.000 C 
BRANCH  24  25
ATOM     25  C   UNL     1       0.916   9.495  19.133  0.00  0.00    +0.000 A 
ATOM     26  C   UNL     1       0.734  10.002  20.431  0.00  0.00    +0.000 A 
ATOM     27  C   UNL     1      -0.309  10.888  20.713  0.00  0.00    +0.000 A 
ATOM     28  C   UNL     1      -1.180  11.281  19.698  0.00  0.00    +0.000 A 
ATOM     29  C   UNL     1      -1.013  10.787  18.407  0.00  0.00    +0.000 A 
ATOM     30  C   UNL     1       0.028   9.899  18.123  0.00  0.00    +0.000 A 
ENDBRANCH  24  25
ENDBRANCH  21  24
ENDBRANCH  16  18
ENDBRANCH   1  16
TORSDOF 7
ENDMDL
MODEL 4
REMARK VINA RESULT:      -7.7      2.508      7.359
REMARK  Name = 
REMARK  7 active torsions:
REMARK  status: ('A' for Active; 'I' for Inactive)
REMARK    1  A    between atoms: O_1  and  C_2
REMARK    2  A    between atoms: C_5  and  C_6
REMARK    3  A    between atoms: C_13  and  C_14
REMARK    4  A    between atoms: C_14  and  N_15
REMARK    5  A    between atoms: N_15  and  C_16
REMARK    6  A    between atoms: N_19  and  C_20
REMARK    7  A    between atoms: C_20  and  C_21
REMARK                            x       y       z     vdW  Elec       q    Type
REMARK                         _______ _______ _______ _____ _____    ______ ____
ROOT
ATOM      1  C   UNL     1       4.317   3.103  18.643  0.00  0.00    +0.000 C 
ENDROOT
BRANCH   1   7
ATOM      2  C   UNL     1       5.853   5.154  18.651  0.00  0.00    +0.000 A 
ATOM      3  C   UNL     1       6.718   6.028  17.992  0.00  0.00    +0.000 A 
ATOM      4  C   UNL     1       7.005   5.834  16.636  0.00  0.00    +0.000 A 
ATOM      5  C   UNL     1       6.421   4.781  15.912  0.00  0.00    +0.000 A 
ATOM      6  C   UNL     1       5.570   3.909  16.614  0.00  0.00    +0.000 A 
ATOM      7  C   UNL     1       5.281   4.070  17.983  0.00  0.00    +0.000 A 
BRANCH   5   8
ATOM      8  C   UNL     1       6.689   4.607  14.472  0.00  0.00    +0.000 A 
ATOM      9  C   UNL     1       6.029   3.664  13.679  0.00  0.00    +0.000 A 
ATOM     10  N   UNL     1       6.271   3.488  12.358  0.00  0.00    +0.000 NA
ATOM     11  C   UNL     1       7.212   4.299  11.838  0.00  0.00    +0.000 A 
ATOM     12  C   UNL     1       7.871   5.246  12.601  0.00  0.00    +0.000 A 
ATOM     13  N   UNL     1       7.623   5.427  13.920  0.00  0.00    +0.000 NA
ENDBRANCH   5   8
BRANCH   2  14
ATOM     14  O   UNL     1       5.558   5.372  19.968  0.00  0.00    +0.000 OA
ATOM     15  H   UNL     1       5.579   4.523  20.444  0.00  0.00    +0.000 HD
ENDBRANCH   2  14
ENDBRANCH   1   7
BRANCH   1  16
ATOM     16  N   UNL     1       3.217   2.709  17.734  0.00  0.00    +0.000 NA
ATOM     17  H   UNL     1       3.159   1.688  17.790  0.00  0.00    +0.000 HD
BRANCH  16  18
ATOM     18  C   UNL     1       1.907   3.255  18.160  0.00  0.00    +0.000 C 
ATOM     19  C   UNL     1       1.624   4.615  17.484  0.00  0.00    +0.000 C 
ATOM     20  C   UNL     1       2.197   5.839  18.215  0.00  0.00    +0.000 C 
ATOM     21  N   UNL     1       1.883   5.832  19.657  0.00  0.00    +0.000 NA
ATOM     22  C   UNL     1       2.456   4.616  20.253  0.00  0.00    +0.000 C 
ATOM     23  C   UNL     1       1.741   3.395  19.680  0.00  0.00    +0.000 C 
BRANCH  21  24
ATOM     24  C   UNL     1       2.397   7.063  20.290  0.00  0.00    +0.000 C 
BRANCH  24  25
ATOM     25  C   UNL     1       1.430   8.237  20.306  0.00  0.00    +0.000 A 
ATOM     26  C   UNL     1       1.317   9.073  19.182  0.00  0.00    +0.000 A 
ATOM     27  C   UNL     1       0.411  10.137  19.170  0.00  0.00    +0.000 A 
ATOM     28  C   UNL     1      -0.395  10.375  20.283  0.00  0.00    +0.000 A 
ATOM     29  C   UNL     1      -0.294   9.556  21.404  0.00  0.00    +0.000 A 
ATOM     30  C   UNL     1       0.613   8.492  21.418  0.00  0.00    +0.000 A 
ENDBRANCH  24  25
ENDBRANCH  21  24
ENDBRANCH  16  18
ENDBRANCH   1  16
TORSDOF 7
ENDMDL
MODEL 5
REMARK VINA RESULT:      -7.6      2.587      7.870
REMARK  Name = 
REMARK  7 active torsions:
REMARK  status: ('A' for Active; 'I' for Inactive)
REMARK    1  A    between atoms: O_1  and  C_2
REMARK    2  A    between atoms: C_5  and  C_6
REMARK    3  A    between atoms: C_13  and  C_14
REMARK    4  A    between atoms: C_14  and  N_15
REMARK    5  A    between atoms: N_15  and  C_16
REMARK    6  A    between atoms: N_19  and  C_20
REMARK    7  A    between atoms: C_20  and  C_21
REMARK                            x       y       z     vdW  Elec       q    Type
REMARK                         _______ _______ _______ _____ _____    ______ ____
ROOT
ATOM      1  C   UNL     1       4.588   3.644  18.875  0.00  0.00    +0.000 C 
ENDROOT
BRANCH   1   7
ATOM      2  C   UNL     1       6.521   5.319  18.724  0.00  0.00    +0.000 A 
ATOM      3  C   UNL     1       7.488   5.997  17.980  0.00  0.00    +0.000 A 
ATOM      4  C   UNL     1       7.598   5.765  16.605  0.00  0.00    +0.000 A 
ATOM      5  C   UNL     1       6.738   4.871  15.946  0.00  0.00    +0.000 A 
ATOM      6  C   UNL     1       5.789   4.190  16.732  0.00  0.00    +0.000 A 
ATOM      7  C   UNL     1       5.671   4.391  18.120  0.00  0.00    +0.000 A 
BRANCH   5   8
ATOM      8  C   UNL     1       6.827   4.662  14.489  0.00  0.00    +0.000 A 
ATOM      9  C   UNL     1       6.036   3.740  13.797  0.00  0.00    +0.000 A 
ATOM     10  N   UNL     1       6.112   3.533  12.461  0.00  0.00    +0.000 NA
ATOM     11  C   UNL     1       7.022   4.291  11.819  0.00  0.00    +0.000 A 
ATOM     12  C   UNL     1       7.809   5.217  12.480  0.00  0.00    +0.000 A 
ATOM     13  N   UNL     1       7.725   5.429  13.815  0.00  0.00    +0.000 NA
ENDBRANCH   5   8
BRANCH   2  14
ATOM     14  O   UNL     1       6.403   5.578  20.062  0.00  0.00    +0.000 OA
ATOM     15  H   UNL     1       6.747   4.817  20.564  0.00  0.00    +0.000 HD
ENDBRANCH   2  14
ENDBRANCH   1   7
BRANCH   1  16
ATOM     16  N   UNL     1       3.842   4.529  19.797  0.00  0.00    +0.000 NA
ATOM     17  H   UNL     1       4.368   5.407  19.831  0.00  0.00    +0.000 HD
BRANCH  16  18
ATOM     18  C   UNL     1       2.481   4.843  19.303  0.00  0.00    +0.000 C 
ATOM     19  C   UNL     1       2.537   5.751  18.054  0.00  0.00    +0.000 C 
ATOM     20  C   UNL     1       2.612   7.257  18.344  0.00  0.00    +0.000 C 
ATOM     21  N   UNL     1       1.603   7.692  19.330  0.00  0.00    +0.000 NA
ATOM     22  C   UNL     1       1.832   6.959  20.584  0.00  0.00    +0.000 C 
ATOM     23  C   UNL     1       1.554   5.475  20.352  0.00  0.00    +0.000 C 
BRANCH  21  24
ATOM     24  C   UNL     1       1.677   9.155  19.515  0.00  0.00    +0.000 C 
BRANCH  24  25
ATOM     25  C   UNL     1       0.394   9.913  19.208  0.00  0.00    +0.000 A 
ATOM     26  C   UNL     1      -0.284   9.693  17.997  0.00  0.00    +0.000 A 
ATOM     27  C   UNL     1      -1.479  10.359  17.715  0.00  0.00    +0.000 A 
ATOM     28  C   UNL     1      -2.013  11.252  18.644  0.00  0.00    +0.000 A 
ATOM     29  C   UNL     1      -1.352  11.482  19.847  0.00  0.00    +0.000 A 
ATOM     30  C   UNL     1      -0.155  10.817  20.131  0.00  0.00    +0.000 A 
ENDBRANCH  24  25
ENDBRANCH  21  24
ENDBRANCH  16  18
ENDBRANCH   1  16
TORSDOF 7
ENDMDL
MODEL 6
REMARK VINA RESULT:      -7.6      2.639      5.473
REMARK  Name = 
REMARK  7 active torsions:
REMARK  status: ('A' for Active; 'I' for Inactive)
REMARK    1  A    between atoms: O_1  and  C_2
REMARK    2  A    between atoms: C_5  and  C_6
REMARK    3  A    between atoms: C_13  and  C_14
REMARK    4  A    between atoms: C_14  and  N_15
REMARK    5  A    between atoms: N_15  and  C_16
REMARK    6  A    between atoms: N_19  and  C_20
REMARK    7  A    between atoms: C_20  and  C_21
REMARK                            x       y       z     vdW  Elec       q    Type
REMARK                         _______ _______ _______ _____ _____    ______ ____
ROOT
ATOM      1  C   UNL     1       6.046   4.124  19.648  0.00  0.00    +0.000 C 
ENDROOT
BRANCH   1   7
ATOM      2  C   UNL     1       3.731   3.309  18.913  0.00  0.00    +0.000 A 
ATOM      3  C   UNL     1       2.396   3.564  18.594  0.00  0.00    +0.000 A 
ATOM      4  C   UNL     1       1.904   4.872  18.651  0.00  0.00    +0.000 A 
ATOM      5  C   UNL     1       2.734   5.948  19.007  0.00  0.00    +0.000 A 
ATOM      6  C   UNL     1       4.068   5.650  19.343  0.00  0.00    +0.000 A 
ATOM      7  C   UNL     1       4.583   4.340  19.312  0.00  0.00    +0.000 A 
BRANCH   5   8
ATOM      8  C   UNL     1       2.225   7.331  19.022  0.00  0.00    +0.000 A 
ATOM      9  C   UNL     1       1.640   7.921  20.147  0.00  0.00    +0.000 A 
ATOM     10  N   UNL     1       1.161   9.187  20.172  0.00  0.00    +0.000 NA
ATOM     11  C   UNL     1       1.285   9.866  19.014  0.00  0.00    +0.000 A 
ATOM     12  C   UNL     1       1.868   9.307  17.891  0.00  0.00    +0.000 A 
ATOM     13  N   UNL     1       2.355   8.043  17.871  0.00  0.00    +0.000 NA
ENDBRANCH   5   8
BRANCH   2  14
ATOM     14  O   UNL     1       4.207   2.030  18.825  0.00  0.00    +0.000 OA
ATOM     15  H   UNL     1       4.762   1.952  18.028  0.00  0.00    +0.000 HD
ENDBRANCH   2  14
ENDBRANCH   1   7
BRANCH   1  16
ATOM     16  N   UNL     1       6.774   5.403  19.808  0.00  0.00    +0.000 NA
ATOM     17  H   UNL     1       7.321   5.309  20.668  0.00  0.00    +0.000 HD
BRANCH  16  18
ATOM     18  C   UNL     1       7.724   5.657  18.700  0.00  0.00    +0.000 C 
ATOM     19  C   UNL     1       7.382   6.971  17.963  0.00  0.00    +0.000 C 
ATOM     20  C   UNL     1       6.346   6.839  16.837  0.00  0.00    +0.000 C 
ATOM     21  N   UNL     1       6.649   5.723  15.920  0.00  0.00    +0.000 NA
ATOM     22  C   UNL     1       6.665   4.474  16.696  0.00  0.00    +0.000 C 
ATOM     23  C   UNL     1       7.831   4.513  17.680  0.00  0.00    +0.000 C 
BRANCH  21  24
ATOM     24  C   UNL     1       5.661   5.689  14.824  0.00  0.00    +0.000 C 
BRANCH  24  25
ATOM     25  C   UNL     1       6.012   4.771  13.662  0.00  0.00    +0.000 A 
ATOM     26  C   UNL     1       7.230   4.930  12.980  0.00  0.00    +0.000 A 
ATOM     27  C   UNL     1       7.580   4.076  11.931  0.00  0.00    +0.000 A 
ATOM     28  C   UNL     1       6.715   3.049  11.554  0.00  0.00    +0.000 A 
ATOM     29  C   UNL     1       5.503   2.880  12.220  0.00  0.00    +0.000 A 
ATOM     30  C   UNL     1       5.151   3.735  13.268  0.00  0.00    +0.000 A 
ENDBRANCH  24  25
ENDBRANCH  21  24
ENDBRANCH  16  18
ENDBRANCH   1  16
TORSDOF 7
ENDMDL
MODEL 7
REMARK VINA RESULT:      -7.6      2.569      5.029
REMARK  Name = 
REMARK  7 active torsions:
REMARK  status: ('A' for Active; 'I' for Inactive)
REMARK    1  A    between atoms: O_1  and  C_2
REMARK    2  A    between atoms: C_5  and  C_6
REMARK    3  A    between atoms: C_13  and  C_14
REMARK    4  A    between atoms: C_14  and  N_15
REMARK    5  A    between atoms: N_15  and  C_16
REMARK    6  A    between atoms: N_19  and  C_20
REMARK    7  A    between atoms: C_20  and  C_21
REMARK                            x       y       z     vdW  Elec       q    Type
REMARK                         _______ _______ _______ _____ _____    ______ ____
ROOT
ATOM      1  C   UNL     1       3.135   5.737  19.708  0.00  0.00    +0.000 C 
ENDROOT
BRANCH   1   7
ATOM      2  C   UNL     1       2.753   7.714  18.123  0.00  0.00    +0.000 A 
ATOM      3  C   UNL     1       2.184   8.957  17.844  0.00  0.00    +0.000 A 
ATOM      4  C   UNL     1       1.388   9.590  18.806  0.00  0.00    +0.000 A 
ATOM      5  C   UNL     1       1.162   9.006  20.063  0.00  0.00    +0.000 A 
ATOM      6  C   UNL     1       1.736   7.743  20.301  0.00  0.00    +0.000 A 
ATOM      7  C   UNL     1       2.523   7.077  19.343  0.00  0.00    +0.000 A 
BRANCH   5   8
ATOM      8  C   UNL     1       0.361   9.697  21.091  0.00  0.00    +0.000 A 
ATOM      9  C   UNL     1      -0.324  10.891  20.853  0.00  0.00    +0.000 A 
ATOM     10  N   UNL     1      -1.057  11.540  21.790  0.00  0.00    +0.000 NA
ATOM     11  C   UNL     1      -1.087  10.948  23.000  0.00  0.00    +0.000 A 
ATOM     12  C   UNL     1      -0.425   9.761  23.256  0.00  0.00    +0.000 A 
ATOM     13  N   UNL     1       0.301   9.109  22.316  0.00  0.00    +0.000 NA
ENDBRANCH   5   8
BRANCH   2  14
ATOM     14  O   UNL     1       3.553   7.120  17.186  0.00  0.00    +0.000 OA
ATOM     15  H   UNL     1       3.313   7.455  16.304  0.00  0.00    +0.000 HD
ENDBRANCH   2  14
ENDBRANCH   1   7
BRANCH   1  16
ATOM     16  N   UNL     1       2.396   4.606  19.103  0.00  0.00    +0.000 NA
ATOM     17  H   UNL     1       1.944   4.982  18.265  0.00  0.00    +0.000 HD
BRANCH  16  18
ATOM     18  C   UNL     1       3.293   3.508  18.673  0.00  0.00    +0.000 C 
ATOM     19  C   UNL     1       4.718   3.700  19.238  0.00  0.00    +0.000 C 
ATOM     20  C   UNL     1       5.645   4.582  18.389  0.00  0.00    +0.000 C 
ATOM     21  N   UNL     1       5.634   4.201  16.963  0.00  0.00    +0.000 NA
ATOM     22  C   UNL     1       4.261   4.335  16.456  0.00  0.00    +0.000 C 
ATOM     23  C   UNL     1       3.370   3.309  17.152  0.00  0.00    +0.000 C 
BRANCH  21  24
ATOM     24  C   UNL     1       6.593   5.035  16.211  0.00  0.00    +0.000 C 
BRANCH  24  25
ATOM     25  C   UNL     1       6.715   4.708  14.730  0.00  0.00    +0.000 A 
ATOM     26  C   UNL     1       7.631   5.408  13.926  0.00  0.00    +0.000 A 
ATOM     27  C   UNL     1       7.775   5.098  12.571  0.00  0.00    +0.000 A 
ATOM     28  C   UNL     1       7.007   4.081  12.005  0.00  0.00    +0.000 A 
ATOM     29  C   UNL     1       6.095   3.380  12.789  0.00  0.00    +0.000 A 
ATOM     30  C   UNL     1       5.947   3.690  14.144  0.00  0.00    +0.000 A 
ENDBRANCH  24  25
ENDBRANCH  21  24
ENDBRANCH  16  18
ENDBRANCH   1  16
TORSDOF 7
ENDMDL
MODEL 8
REMARK VINA RESULT:      -7.5      2.631      5.451
REMARK  Name = 
REMARK  7 active torsions:
REMARK  status: ('A' for Active; 'I' for Inactive)
REMARK    1  A    between atoms: O_1  and  C_2
REMARK    2  A    between atoms: C_5  and  C_6
REMARK    3  A    between atoms: C_13  and  C_14
REMARK    4  A    between atoms: C_14  and  N_15
REMARK    5  A    between atoms: N_15  and  C_16
REMARK    6  A    between atoms: N_19  and  C_20
REMARK    7  A    between atoms: C_20  and  C_21
REMARK                            x       y       z     vdW  Elec       q    Type
REMARK                         _______ _______ _______ _____ _____    ______ ____
ROOT
ATOM      1  C   UNL     1       5.840   4.086  19.432  0.00  0.00    +0.000 C 
ENDROOT
BRANCH   1   7
ATOM      2  C   UNL     1       3.421   3.332  19.811  0.00  0.00    +0.000 A 
ATOM      3  C   UNL     1       2.063   3.624  19.950  0.00  0.00    +0.000 A 
ATOM      4  C   UNL     1       1.623   4.950  19.866  0.00  0.00    +0.000 A 
ATOM      5  C   UNL     1       2.523   6.001  19.625  0.00  0.00    +0.000 A 
ATOM      6  C   UNL     1       3.887   5.671  19.512  0.00  0.00    +0.000 A 
ATOM      7  C   UNL     1       4.357   4.348  19.612  0.00  0.00    +0.000 A 
BRANCH   5   8
ATOM      8  C   UNL     1       2.051   7.392  19.492  0.00  0.00    +0.000 A 
ATOM      9  C   UNL     1       1.470   8.108  20.543  0.00  0.00    +0.000 A 
ATOM     10  N   UNL     1       1.026   9.382  20.432  0.00  0.00    +0.000 NA
ATOM     11  C   UNL     1       1.181   9.936  19.213  0.00  0.00    +0.000 A 
ATOM     12  C   UNL     1       1.761   9.250  18.161  0.00  0.00    +0.000 A 
ATOM     13  N   UNL     1       2.213   7.979  18.276  0.00  0.00    +0.000 NA
ENDBRANCH   5   8
BRANCH   2  14
ATOM     14  O   UNL     1       3.834   2.029  19.865  0.00  0.00    +0.000 OA
ATOM     15  H   UNL     1       4.310   1.812  19.044  0.00  0.00    +0.000 HD
ENDBRANCH   2  14
ENDBRANCH   1   7
BRANCH   1  16
ATOM     16  N   UNL     1       6.657   5.278  19.755  0.00  0.00    +0.000 NA
ATOM     17  H   UNL     1       7.205   5.027  20.583  0.00  0.00    +0.000 HD
BRANCH  16  18
ATOM     18  C   UNL     1       7.612   5.620  18.674  0.00  0.00    +0.000 C 
ATOM     19  C   UNL     1       7.205   6.932  17.967  0.00  0.00    +0.000 C 
ATOM     20  C   UNL     1       6.201   6.770  16.816  0.00  0.00    +0.000 C 
ATOM     21  N   UNL     1       6.589   5.701  15.876  0.00  0.00    +0.000 NA
ATOM     22  C   UNL     1       6.666   4.433  16.616  0.00  0.00    +0.000 C 
ATOM     23  C   UNL     1       7.808   4.515  17.627  0.00  0.00    +0.000 C 
BRANCH  21  24
ATOM     24  C   UNL     1       5.627   5.639  14.758  0.00  0.00    +0.000 C 
BRANCH  24  25
ATOM     25  C   UNL     1       6.007   4.697  13.625  0.00  0.00    +0.000 A 
ATOM     26  C   UNL     1       5.121   3.685  13.220  0.00  0.00    +0.000 A 
ATOM     27  C   UNL     1       5.444   2.832  12.162  0.00  0.00    +0.000 A 
ATOM     28  C   UNL     1       6.658   2.985  11.492  0.00  0.00    +0.000 A 
ATOM     29  C   UNL     1       7.547   3.982  11.883  0.00  0.00    +0.000 A 
ATOM     30  C   UNL     1       7.227   4.835  12.943  0.00  0.00    +0.000 A 
ENDBRANCH  24  25
ENDBRANCH  21  24
ENDBRANCH  16  18
ENDBRANCH   1  16
TORSDOF 7
ENDMDL
MODEL 9
REMARK VINA RESULT:      -7.5      2.775      5.065
REMARK  Name = 
REMARK  7 active torsions:
REMARK  status: ('A' for Active; 'I' for Inactive)
REMARK    1  A    between atoms: O_1  and  C_2
REMARK    2  A    between atoms: C_5  and  C_6
REMARK    3  A    between atoms: C_13  and  C_14
REMARK    4  A    between atoms: C_14  and  N_15
REMARK    5  A    between atoms: N_15  and  C_16
REMARK    6  A    between atoms: N_19  and  C_20
REMARK    7  A    between atoms: C_20  and  C_21
REMARK                            x       y       z     vdW  Elec       q    Type
REMARK                         _______ _______ _______ _____ _____    ______ ____
ROOT
ATOM      1  C   UNL     1       2.204   6.673  19.623  0.00  0.00    +0.000 C 
ENDROOT
BRANCH   1   7
ATOM      2  C   UNL     1       2.205   8.771  18.153  0.00  0.00    +0.000 A 
ATOM      3  C   UNL     1       1.854  10.105  17.935  0.00  0.00    +0.000 A 
ATOM      4  C   UNL     1       1.135  10.804  18.911  0.00  0.00    +0.000 A 
ATOM      5  C   UNL     1       0.772  10.195  20.124  0.00  0.00    +0.000 A 
ATOM      6  C   UNL     1       1.125   8.844  20.299  0.00  0.00    +0.000 A 
ATOM      7  C   UNL     1       1.830   8.113  19.325  0.00  0.00    +0.000 A 
BRANCH   5   8
ATOM      8  C   UNL     1       0.056  10.948  21.170  0.00  0.00    +0.000 A 
ATOM      9  C   UNL     1       0.006  12.345  21.210  0.00  0.00    +0.000 A 
ATOM     10  N   UNL     1      -0.642  13.049  22.169  0.00  0.00    +0.000 NA
ATOM     11  C   UNL     1      -1.253  12.302  23.109  0.00  0.00    +0.000 A 
ATOM     12  C   UNL     1      -1.225  10.920  23.085  0.00  0.00    +0.000 A 
ATOM     13  N   UNL     1      -0.584  10.217  22.121  0.00  0.00    +0.000 NA
ENDBRANCH   5   8
BRANCH   2  14
ATOM     14  O   UNL     1       2.932   8.108  17.203  0.00  0.00    +0.000 OA
ATOM     15  H   UNL     1       3.765   8.588  17.048  0.00  0.00    +0.000 HD
ENDBRANCH   2  14
ENDBRANCH   1   7
BRANCH   1  16
ATOM     16  N   UNL     1       3.661   6.441  19.497  0.00  0.00    +0.000 NA
ATOM     17  H   UNL     1       4.040   6.513  20.446  0.00  0.00    +0.000 HD
BRANCH  16  18
ATOM     18  C   UNL     1       3.977   5.084  18.993  0.00  0.00    +0.000 C 
ATOM     19  C   UNL     1       5.438   4.697  19.311  0.00  0.00    +0.000 C 
ATOM     20  C   UNL     1       6.476   5.155  18.277  0.00  0.00    +0.000 C 
ATOM     21  N   UNL     1       6.078   4.824  16.895  0.00  0.00    +0.000 NA
ATOM     22  C   UNL     1       4.799   5.489  16.606  0.00  0.00    +0.000 C 
ATOM     23  C   UNL     1       3.712   4.887  17.493  0.00  0.00    +0.000 C 
BRANCH  21  24
ATOM     24  C   UNL     1       7.143   5.224  15.954  0.00  0.00    +0.000 C 
BRANCH  24  25
ATOM     25  C   UNL     1       6.948   4.760  14.518  0.00  0.00    +0.000 A 
ATOM     26  C   UNL     1       7.730   5.308  13.487  0.00  0.00    +0.000 A 
ATOM     27  C   UNL     1       7.584   4.869  12.168  0.00  0.00    +0.000 A 
ATOM     28  C   UNL     1       6.655   3.873  11.866  0.00  0.00    +0.000 A 
ATOM     29  C   UNL     1       5.873   3.322  12.877  0.00  0.00    +0.000 A 
ATOM     30  C   UNL     1       6.016   3.761  14.197  0.00  0.00    +0.000 A 
ENDBRANCH  24  25
ENDBRANCH  21  24
ENDBRANCH  16  18
ENDBRANCH   1  16
TORSDOF 7
ENDMDL
