MODEL 1
REMARK VINA RESULT:      -8.6      0.000      0.000
REMARK  Name = 
REMARK  7 active torsions:
REMARK  status: ('A' for Active; 'I' for Inactive)
REMARK    1  A    between atoms: C_2  and  C_3
REMARK    2  A    between atoms: N_7  and  C_8
REMARK    3  A    between atoms: C_11  and  C_12
REMARK    4  A    between atoms: N_14  and  C_15
REMARK    5  A    between atoms: C_18  and  O_19
REMARK    6  A    between atoms: O_19  and  C_20
REMARK    7  A    between atoms: C_27  and  C_28
REMARK                            x       y       z     vdW  Elec       q    Type
REMARK                         _______ _______ _______ _____ _____    ______ ____
ROOT
ATOM      1  C   UNL     1       3.744   6.123  18.074  0.00  0.00    +0.000 A 
ATOM      2  N   UNL     1       3.964   7.286  17.413  0.00  0.00    +0.000 NA
ATOM      3  C   UNL     1       3.186   8.363  17.672  0.00  0.00    +0.000 A 
ATOM      4  C   UNL     1       2.154   8.363  18.589  0.00  0.00    +0.000 A 
ATOM      5  C   UNL     1       1.889   7.172  19.257  0.00  0.00    +0.000 A 
ATOM      6  C   UNL     1       2.678   6.021  19.015  0.00  0.00    +0.000 A 
ENDROOT
BRANCH   1  11
ATOM      7  C   UNL     1       7.090   4.974  17.744  0.00  0.00    +0.000 C 
ATOM      8  C   UNL     1       7.018   4.172  16.441  0.00  0.00    +0.000 C 
ATOM      9  C   UNL     1       5.785   4.561  15.621  0.00  0.00    +0.000 C 
ATOM     10  C   UNL     1       4.498   4.442  16.438  0.00  0.00    +0.000 C 
ATOM     11  N   UNL     1       4.606   5.080  17.759  0.00  0.00    +0.000 N 
ATOM     12  C   UNL     1       5.820   4.822  18.543  0.00  0.00    +0.000 C 
BRANCH   7  14
ATOM     13  N   UNL     1       7.492   7.657  17.132  0.00  0.00    +0.000 NA
ATOM     14  C   UNL     1       7.310   6.441  17.409  0.00  0.00    +0.000 C 
ENDBRANCH   7  14
ENDBRANCH   1  11
BRANCH   6  15
ATOM     15  C   UNL     1       2.350   4.780  19.748  0.00  0.00    +0.000 A 
ATOM     16  C   UNL     1       2.655   4.565  21.084  0.00  0.00    +0.000 A 
ATOM     17  N   UNL     1       2.135   3.572  21.839  0.00  0.00    +0.000 NA
ATOM     18  C   UNL     1       1.333   2.713  21.196  0.00  0.00    +0.000 A 
ATOM     19  N   UNL     1       1.042   2.744  19.890  0.00  0.00    +0.000 NA
ATOM     20  C   UNL     1       1.565   3.778  19.198  0.00  0.00    +0.000 A 
ENDBRANCH   6  15
BRANCH   4  21
ATOM     21  C   UNL     1       1.327   9.586  18.724  0.00  0.00    +0.000 C 
ATOM     22  O   UNL     1       1.721  10.588  18.149  0.00  0.00    +0.000 OA
ATOM     23  N   UNL     1       0.203   9.492  19.537  0.00  0.00    +0.000 N 
ATOM     24  H   UNL     1       0.119   8.683  20.138  0.00  0.00    +0.000 HD
BRANCH  23  25
ATOM     25  C   UNL     1      -0.739  10.529  19.741  0.00  0.00    +0.000 A 
ATOM     26  C   UNL     1      -0.796  11.298  20.902  0.00  0.00    +0.000 A 
ATOM     27  C   UNL     1      -1.753  12.299  21.059  0.00  0.00    +0.000 A 
ATOM     28  C   UNL     1      -2.675  12.569  20.049  0.00  0.00    +0.000 A 
ATOM     29  C   UNL     1      -2.644  11.794  18.891  0.00  0.00    +0.000 A 
ATOM     30  C   UNL     1      -1.668  10.800  18.727  0.00  0.00    +0.000 A 
BRANCH  28  31
ATOM     31  O   UNL     1      -3.591  13.526  20.350  0.00  0.00    +0.000 OA
BRANCH  31  32
ATOM     32  C   UNL     1      -4.954  13.167  20.517  0.00  0.00    +0.000 C 
ATOM     33  F   UNL     1      -5.151  11.981  21.127  0.00  0.00    +0.000 F 
ATOM     34  F   UNL     1      -5.575  14.128  21.236  0.00  0.00    +0.000 F 
ATOM     35  F   UNL     1      -5.541  13.111  19.299  0.00  0.00    +0.000 F 
ENDBRANCH  31  32
ENDBRANCH  28  31
ENDBRANCH  23  25
ENDBRANCH   4  21
TORSDOF 7
ENDMDL
MODEL 2
REMARK VINA RESULT:      -8.5      0.809      1.225
REMARK  Name = 
REMARK  7 active torsions:
REMARK  status: ('A' for Active; 'I' for Inactive)
REMARK    1  A    between atoms: C_2  and  C_3
REMARK    2  A    between atoms: N_7  and  C_8
REMARK    3  A    between atoms: C_11  and  C_12
REMARK    4  A    between atoms: N_14  and  C_15
REMARK    5  A    between atoms: C_18  and  O_19
REMARK    6  A    between atoms: O_19  and  C_20
REMARK    7  A    between atoms: C_27  and  C_28
REMARK                            x       y       z     vdW  Elec       q    Type
REMARK                         _______ _______ _______ _____ _____    ______ ____
ROOT
ATOM      1  C   UNL     1       3.794   5.961  18.057  0.00  0.00    +0.000 A 
ATOM      2  N   UNL     1       3.925   7.133  17.388  0.00  0.00    +0.000 NA
ATOM      3  C   UNL     1       3.150   8.189  17.726  0.00  0.00    +0.000 A 
ATOM      4  C   UNL     1       2.207   8.161  18.733  0.00  0.00    +0.000 A 
ATOM      5  C   UNL     1       2.031   6.960  19.414  0.00  0.00    +0.000 A 
ATOM      6  C   UNL     1       2.821   5.829  19.091  0.00  0.00    +0.000 A 
ENDROOT
BRANCH   1  11
ATOM      7  C   UNL     1       7.128   4.857  17.521  0.00  0.00    +0.000 C 
ATOM      8  C   UNL     1       6.999   4.111  16.188  0.00  0.00    +0.000 C 
ATOM      9  C   UNL     1       5.727   4.526  15.445  0.00  0.00    +0.000 C 
ATOM     10  C   UNL     1       4.480   4.360  16.315  0.00  0.00    +0.000 C 
ATOM     11  N   UNL     1       4.646   4.940  17.657  0.00  0.00    +0.000 N 
ATOM     12  C   UNL     1       5.898   4.658  18.371  0.00  0.00    +0.000 C 
BRANCH   7  14
ATOM     13  N   UNL     1       7.484   7.567  17.009  0.00  0.00    +0.000 NA
ATOM     14  C   UNL     1       7.322   6.339  17.241  0.00  0.00    +0.000 C 
ENDBRANCH   7  14
ENDBRANCH   1  11
BRANCH   6  15
ATOM     15  C   UNL     1       2.590   4.576  19.842  0.00  0.00    +0.000 A 
ATOM     16  C   UNL     1       2.562   4.496  21.226  0.00  0.00    +0.000 A 
ATOM     17  N   UNL     1       2.091   3.438  21.923  0.00  0.00    +0.000 NA
ATOM     18  C   UNL     1       1.703   2.385  21.190  0.00  0.00    +0.000 A 
ATOM     19  N   UNL     1       1.777   2.292  19.857  0.00  0.00    +0.000 NA
ATOM     20  C   UNL     1       2.225   3.393  19.217  0.00  0.00    +0.000 A 
ENDBRANCH   6  15
BRANCH   4  21
ATOM     21  C   UNL     1       1.368   9.363  18.953  0.00  0.00    +0.000 C 
ATOM     22  O   UNL     1       1.448  10.254  18.123  0.00  0.00    +0.000 OA
ATOM     23  N   UNL     1       0.604   9.386  20.115  0.00  0.00    +0.000 N 
ATOM     24  H   UNL     1       0.806   8.698  20.829  0.00  0.00    +0.000 HD
BRANCH  23  25
ATOM     25  C   UNL     1      -0.302  10.415  20.469  0.00  0.00    +0.000 A 
ATOM     26  C   UNL     1      -1.257  10.931  19.595  0.00  0.00    +0.000 A 
ATOM     27  C   UNL     1      -2.117  11.955  19.989  0.00  0.00    +0.000 A 
ATOM     28  C   UNL     1      -2.055  12.483  21.277  0.00  0.00    +0.000 A 
ATOM     29  C   UNL     1      -1.091  11.991  22.155  0.00  0.00    +0.000 A 
ATOM     30  C   UNL     1      -0.239  10.947  21.764  0.00  0.00    +0.000 A 
BRANCH  28  31
ATOM     31  O   UNL     1      -2.906  13.516  21.515  0.00  0.00    +0.000 OA
BRANCH  31  32
ATOM     32  C   UNL     1      -4.154  13.268  22.144  0.00  0.00    +0.000 C 
ATOM     33  F   UNL     1      -4.112  12.352  23.132  0.00  0.00    +0.000 F 
ATOM     34  F   UNL     1      -4.626  14.427  22.653  0.00  0.00    +0.000 F 
ATOM     35  F   UNL     1      -5.032  12.833  21.210  0.00  0.00    +0.000 F 
ENDBRANCH  31  32
ENDBRANCH  28  31
ENDBRANCH  23  25
ENDBRANCH   4  21
TORSDOF 7
ENDMDL
MODEL 3
REMARK VINA RESULT:      -8.4      1.757      1.994
REMARK  Name = 
REMARK  7 active torsions:
REMARK  status: ('A' for Active; 'I' for Inactive)
REMARK    1  A    between atoms: C_2  and  C_3
REMARK    2  A    between atoms: N_7  and  C_8
REMARK    3  A    between atoms: C_11  and  C_12
REMARK    4  A    between atoms: N_14  and  C_15
REMARK    5  A    between atoms: C_18  and  O_19
REMARK    6  A    between atoms: O_19  and  C_20
REMARK    7  A    between atoms: C_27  and  C_28
REMARK                            x       y       z     vdW  Elec       q    Type
REMARK                         _______ _______ _______ _____ _____    ______ ____
ROOT
ATOM      1  C   UNL     1       3.843   5.949  17.736  0.00  0.00    +0.000 A 
ATOM      2  N   UNL     1       3.998   7.255  17.410  0.00  0.00    +0.000 NA
ATOM      3  C   UNL     1       3.190   8.187  17.967  0.00  0.00    +0.000 A 
ATOM      4  C   UNL     1       2.189   7.894  18.871  0.00  0.00    +0.000 A 
ATOM      5  C   UNL     1       1.988   6.556  19.197  0.00  0.00    +0.000 A 
ATOM      6  C   UNL     1       2.811   5.549  18.635  0.00  0.00    +0.000 A 
ENDROOT
BRANCH   1  11
ATOM      7  C   UNL     1       7.218   5.047  17.087  0.00  0.00    +0.000 C 
ATOM      8  C   UNL     1       7.157   4.654  15.607  0.00  0.00    +0.000 C 
ATOM      9  C   UNL     1       5.907   5.227  14.936  0.00  0.00    +0.000 C 
ATOM     10  C   UNL     1       4.631   4.837  15.683  0.00  0.00    +0.000 C 
ATOM     11  N   UNL     1       4.731   5.068  17.132  0.00  0.00    +0.000 N 
ATOM     12  C   UNL     1       5.960   4.631  17.808  0.00  0.00    +0.000 C 
BRANCH   7  14
ATOM     13  N   UNL     1       7.536   7.803  17.279  0.00  0.00    +0.000 NA
ATOM     14  C   UNL     1       7.392   6.554  17.192  0.00  0.00    +0.000 C 
ENDBRANCH   7  14
ENDBRANCH   1  11
BRANCH   6  15
ATOM     15  C   UNL     1       2.553   4.143  19.011  0.00  0.00    +0.000 A 
ATOM     16  C   UNL     1       2.951   3.576  20.213  0.00  0.00    +0.000 A 
ATOM     17  N   UNL     1       2.498   2.395  20.691  0.00  0.00    +0.000 NA
ATOM     18  C   UNL     1       1.667   1.722  19.883  0.00  0.00    +0.000 A 
ATOM     19  N   UNL     1       1.287   2.106  18.658  0.00  0.00    +0.000 NA
ATOM     20  C   UNL     1       1.746   3.308  18.252  0.00  0.00    +0.000 A 
ENDBRANCH   6  15
BRANCH   4  21
ATOM     21  C   UNL     1       1.322   8.997  19.350  0.00  0.00    +0.000 C 
ATOM     22  O   UNL     1       0.789   9.692  18.500  0.00  0.00    +0.000 OA
ATOM     23  N   UNL     1       1.236   9.171  20.727  0.00  0.00    +0.000 N 
ATOM     24  H   UNL     1       1.905   8.684  21.308  0.00  0.00    +0.000 HD
BRANCH  23  25
ATOM     25  C   UNL     1       0.415  10.126  21.374  0.00  0.00    +0.000 A 
ATOM     26  C   UNL     1       0.337  11.461  20.984  0.00  0.00    +0.000 A 
ATOM     27  C   UNL     1      -0.477  12.366  21.664  0.00  0.00    +0.000 A 
ATOM     28  C   UNL     1      -1.249  11.954  22.749  0.00  0.00    +0.000 A 
ATOM     29  C   UNL     1      -1.165  10.627  23.164  0.00  0.00    +0.000 A 
ATOM     30  C   UNL     1      -0.360   9.713  22.466  0.00  0.00    +0.000 A 
BRANCH  28  31
ATOM     31  O   UNL     1      -1.951  12.944  23.361  0.00  0.00    +0.000 OA
BRANCH  31  32
ATOM     32  C   UNL     1      -3.365  12.854  23.448  0.00  0.00    +0.000 C 
ATOM     33  F   UNL     1      -3.816  12.070  24.447  0.00  0.00    +0.000 F 
ATOM     34  F   UNL     1      -3.873  14.095  23.612  0.00  0.00    +0.000 F 
ATOM     35  F   UNL     1      -3.840  12.358  22.282  0.00  0.00    +0.000 F 
ENDBRANCH  31  32
ENDBRANCH  28  31
ENDBRANCH  23  25
ENDBRANCH   4  21
TORSDOF 7
ENDMDL
MODEL 4
REMARK VINA RESULT:      -8.3      0.350      1.087
REMARK  Name = 
REMARK  7 active torsions:
REMARK  status: ('A' for Active; 'I' for Inactive)
REMARK    1  A    between atoms: C_2  and  C_3
REMARK    2  A    between atoms: N_7  and  C_8
REMARK    3  A    between atoms: C_11  and  C_12
REMARK    4  A    between atoms: N_14  and  C_15
REMARK    5  A    between atoms: C_18  and  O_19
REMARK    6  A    between atoms: O_19  and  C_20
REMARK    7  A    between atoms: C_27  and  C_28
REMARK                            x       y       z     vdW  Elec       q    Type
REMARK                         _______ _______ _______ _____ _____    ______ ____
ROOT
ATOM      1  C   UNL     1       3.704   6.116  18.081  0.00  0.00    +0.000 A 
ATOM      2  N   UNL     1       3.940   7.276  17.422  0.00  0.00    +0.000 NA
ATOM      3  C   UNL     1       3.174   8.362  17.679  0.00  0.00    +0.000 A 
ATOM      4  C   UNL     1       2.139   8.375  18.592  0.00  0.00    +0.000 A 
ATOM      5  C   UNL     1       1.856   7.186  19.258  0.00  0.00    +0.000 A 
ATOM      6  C   UNL     1       2.632   6.025  19.018  0.00  0.00    +0.000 A 
ENDROOT
BRANCH   1  11
ATOM      7  C   UNL     1       7.037   4.931  17.749  0.00  0.00    +0.000 C 
ATOM      8  C   UNL     1       6.953   4.123  16.450  0.00  0.00    +0.000 C 
ATOM      9  C   UNL     1       5.722   4.522  15.631  0.00  0.00    +0.000 C 
ATOM     10  C   UNL     1       4.436   4.419  16.452  0.00  0.00    +0.000 C 
ATOM     11  N   UNL     1       4.553   5.062  17.770  0.00  0.00    +0.000 N 
ATOM     12  C   UNL     1       5.767   4.795  18.552  0.00  0.00    +0.000 C 
BRANCH   7  14
ATOM     13  N   UNL     1       7.466   7.606  17.123  0.00  0.00    +0.000 NA
ATOM     14  C   UNL     1       7.271   6.394  17.407  0.00  0.00    +0.000 C 
ENDBRANCH   7  14
ENDBRANCH   1  11
BRANCH   6  15
ATOM     15  C   UNL     1       2.286   4.788  19.749  0.00  0.00    +0.000 A 
ATOM     16  C   UNL     1       2.037   3.569  19.137  0.00  0.00    +0.000 A 
ATOM     17  N   UNL     1       1.990   2.382  19.783  0.00  0.00    +0.000 NA
ATOM     18  C   UNL     1       2.123   2.440  21.114  0.00  0.00    +0.000 A 
ATOM     19  N   UNL     1       2.263   3.558  21.838  0.00  0.00    +0.000 NA
ATOM     20  C   UNL     1       2.337   4.706  21.133  0.00  0.00    +0.000 A 
ENDBRANCH   6  15
BRANCH   4  21
ATOM     21  C   UNL     1       1.326   9.607  18.724  0.00  0.00    +0.000 C 
ATOM     22  O   UNL     1       1.720  10.597  18.129  0.00  0.00    +0.000 OA
ATOM     23  N   UNL     1       0.215   9.535  19.557  0.00  0.00    +0.000 N 
ATOM     24  H   UNL     1       0.134   8.735  20.170  0.00  0.00    +0.000 HD
BRANCH  23  25
ATOM     25  C   UNL     1      -0.713  10.584  19.763  0.00  0.00    +0.000 A 
ATOM     26  C   UNL     1      -0.712  11.400  20.893  0.00  0.00    +0.000 A 
ATOM     27  C   UNL     1      -1.658  12.411  21.054  0.00  0.00    +0.000 A 
ATOM     28  C   UNL     1      -2.626  12.644  20.079  0.00  0.00    +0.000 A 
ATOM     29  C   UNL     1      -2.652  11.823  18.953  0.00  0.00    +0.000 A 
ATOM     30  C   UNL     1      -1.688  10.818  18.783  0.00  0.00    +0.000 A 
BRANCH  28  31
ATOM     31  O   UNL     1      -3.524  13.617  20.383  0.00  0.00    +0.000 OA
BRANCH  31  32
ATOM     32  C   UNL     1      -4.781  13.265  20.942  0.00  0.00    +0.000 C 
ATOM     33  F   UNL     1      -5.432  14.282  21.544  0.00  0.00    +0.000 F 
ATOM     34  F   UNL     1      -5.571  12.768  19.965  0.00  0.00    +0.000 F 
ATOM     35  F   UNL     1      -4.589  12.292  21.862  0.00  0.00    +0.000 F 
ENDBRANCH  31  32
ENDBRANCH  28  31
ENDBRANCH  23  25
ENDBRANCH   4  21
TORSDOF 7
ENDMDL
MODEL 5
REMARK VINA RESULT:      -8.2      1.103      1.251
REMARK  Name = 
REMARK  7 active torsions:
REMARK  status: ('A' for Active; 'I' for Inactive)
REMARK    1  A    between atoms: C_2  and  C_3
REMARK    2  A    between atoms: N_7  and  C_8
REMARK    3  A    between atoms: C_11  and  C_12
REMARK    4  A    between atoms: N_14  and  C_15
REMARK    5  A    between atoms: C_18  and  O_19
REMARK    6  A    between atoms: O_19  and  C_20
REMARK    7  A    between atoms: C_27  and  C_28
REMARK                            x       y       z     vdW  Elec       q    Type
REMARK                         _______ _______ _______ _____ _____    ______ ____
ROOT
ATOM      1  C   UNL     1       3.728   6.082  18.090  0.00  0.00    +0.000 A 
ATOM      2  N   UNL     1       3.926   7.252  17.437  0.00  0.00    +0.000 NA
ATOM      3  C   UNL     1       3.154   8.324  17.731  0.00  0.00    +0.000 A 
ATOM      4  C   UNL     1       2.151   8.312  18.679  0.00  0.00    +0.000 A 
ATOM      5  C   UNL     1       1.908   7.113  19.341  0.00  0.00    +0.000 A 
ATOM      6  C   UNL     1       2.691   5.966  19.062  0.00  0.00    +0.000 A 
ENDROOT
BRANCH   1  11
ATOM      7  C   UNL     1       7.065   4.934  17.676  0.00  0.00    +0.000 C 
ATOM      8  C   UNL     1       6.967   4.159  16.357  0.00  0.00    +0.000 C 
ATOM      9  C   UNL     1       5.721   4.569  15.568  0.00  0.00    +0.000 C 
ATOM     10  C   UNL     1       4.449   4.434  16.405  0.00  0.00    +0.000 C 
ATOM     11  N   UNL     1       4.582   5.044  17.738  0.00  0.00    +0.000 N 
ATOM     12  C   UNL     1       5.809   4.766  18.495  0.00  0.00    +0.000 C 
BRANCH   7  14
ATOM     13  N   UNL     1       7.462   7.628  17.115  0.00  0.00    +0.000 NA
ATOM     14  C   UNL     1       7.283   6.407  17.369  0.00  0.00    +0.000 C 
ENDBRANCH   7  14
ENDBRANCH   1  11
BRANCH   6  15
ATOM     15  C   UNL     1       2.388   4.716  19.791  0.00  0.00    +0.000 A 
ATOM     16  C   UNL     1       2.648   4.522  21.139  0.00  0.00    +0.000 A 
ATOM     17  N   UNL     1       2.142   3.511  21.880  0.00  0.00    +0.000 NA
ATOM     18  C   UNL     1       1.403   2.615  21.212  0.00  0.00    +0.000 A 
ATOM     19  N   UNL     1       1.162   2.627  19.895  0.00  0.00    +0.000 NA
ATOM     20  C   UNL     1       1.667   3.679  19.217  0.00  0.00    +0.000 A 
ENDBRANCH   6  15
BRANCH   4  21
ATOM     21  C   UNL     1       1.327   9.532  18.854  0.00  0.00    +0.000 C 
ATOM     22  O   UNL     1       1.616  10.499  18.169  0.00  0.00    +0.000 OA
ATOM     23  N   UNL     1       0.329   9.477  19.821  0.00  0.00    +0.000 N 
ATOM     24  H   UNL     1       0.346   8.707  20.476  0.00  0.00    +0.000 HD
BRANCH  23  25
ATOM     25  C   UNL     1      -0.597  10.514  20.090  0.00  0.00    +0.000 A 
ATOM     26  C   UNL     1      -0.713  11.136  21.332  0.00  0.00    +0.000 A 
ATOM     27  C   UNL     1      -1.651  12.143  21.550  0.00  0.00    +0.000 A 
ATOM     28  C   UNL     1      -2.492  12.569  20.523  0.00  0.00    +0.000 A 
ATOM     29  C   UNL     1      -2.401  11.942  19.282  0.00  0.00    +0.000 A 
ATOM     30  C   UNL     1      -1.444  10.941  19.058  0.00  0.00    +0.000 A 
BRANCH  28  31
ATOM     31  O   UNL     1      -3.401  13.514  20.881  0.00  0.00    +0.000 OA
BRANCH  31  32
ATOM     32  C   UNL     1      -3.006  14.875  20.960  0.00  0.00    +0.000 C 
ATOM     33  F   UNL     1      -3.929  15.753  20.515  0.00  0.00    +0.000 F 
ATOM     34  F   UNL     1      -2.715  15.173  22.245  0.00  0.00    +0.000 F 
ATOM     35  F   UNL     1      -1.883  15.045  20.225  0.00  0.00    +0.000 F 
ENDBRANCH  31  32
ENDBRANCH  28  31
ENDBRANCH  23  25
ENDBRANCH   4  21
TORSDOF 7
ENDMDL
MODEL 6
REMARK VINA RESULT:      -8.2      1.018      1.243
REMARK  Name = 
REMARK  7 active torsions:
REMARK  status: ('A' for Active; 'I' for Inactive)
REMARK    1  A    between atoms: C_2  and  C_3
REMARK    2  A    between atoms: N_7  and  C_8
REMARK    3  A    between atoms: C_11  and  C_12
REMARK    4  A    between atoms: N_14  and  C_15
REMARK    5  A    between atoms: C_18  and  O_19
REMARK    6  A    between atoms: O_19  and  C_20
REMARK    7  A    between atoms: C_27  and  C_28
REMARK                            x       y       z     vdW  Elec       q    Type
REMARK                         _______ _______ _______ _____ _____    ______ ____
ROOT
ATOM      1  C   UNL     1       3.748   6.048  18.225  0.00  0.00    +0.000 A 
ATOM      2  N   UNL     1       3.830   7.248  17.600  0.00  0.00    +0.000 NA
ATOM      3  C   UNL     1       2.996   8.252  17.962  0.00  0.00    +0.000 A 
ATOM      4  C   UNL     1       2.041   8.138  18.951  0.00  0.00    +0.000 A 
ATOM      5  C   UNL     1       1.916   6.906  19.585  0.00  0.00    +0.000 A 
ATOM      6  C   UNL     1       2.767   5.829  19.236  0.00  0.00    +0.000 A 
ENDROOT
BRANCH   1  11
ATOM      7  C   UNL     1       7.141   5.140  17.690  0.00  0.00    +0.000 C 
ATOM      8  C   UNL     1       7.065   4.430  16.335  0.00  0.00    +0.000 C 
ATOM      9  C   UNL     1       5.779   4.799  15.591  0.00  0.00    +0.000 C 
ATOM     10  C   UNL     1       4.535   4.539  16.443  0.00  0.00    +0.000 C 
ATOM     11  N   UNL     1       4.658   5.087  17.803  0.00  0.00    +0.000 N 
ATOM     12  C   UNL     1       5.916   4.851  18.522  0.00  0.00    +0.000 C 
BRANCH   7  14
ATOM     13  N   UNL     1       7.356   7.880  17.264  0.00  0.00    +0.000 NA
ATOM     14  C   UNL     1       7.258   6.638  17.457  0.00  0.00    +0.000 C 
ENDBRANCH   7  14
ENDBRANCH   1  11
BRANCH   6  15
ATOM     15  C   UNL     1       2.590   4.540  19.938  0.00  0.00    +0.000 A 
ATOM     16  C   UNL     1       2.618   4.397  21.317  0.00  0.00    +0.000 A 
ATOM     17  N   UNL     1       2.194   3.300  21.983  0.00  0.00    +0.000 NA
ATOM     18  C   UNL     1       1.797   2.273  21.218  0.00  0.00    +0.000 A 
ATOM     19  N   UNL     1       1.819   2.242  19.880  0.00  0.00    +0.000 NA
ATOM     20  C   UNL     1       2.221   3.379  19.274  0.00  0.00    +0.000 A 
ENDBRANCH   6  15
BRANCH   4  21
ATOM     21  C   UNL     1       1.139   9.288  19.200  0.00  0.00    +0.000 C 
ATOM     22  O   UNL     1       0.753   9.911  18.224  0.00  0.00    +0.000 OA
ATOM     23  N   UNL     1       0.854   9.582  20.529  0.00  0.00    +0.000 N 
ATOM     24  H   UNL     1       1.418   9.141  21.243  0.00  0.00    +0.000 HD
BRANCH  23  25
ATOM     25  C   UNL     1      -0.031  10.598  20.963  0.00  0.00    +0.000 A 
ATOM     26  C   UNL     1      -0.536  10.675  22.260  0.00  0.00    +0.000 A 
ATOM     27  C   UNL     1      -1.417  11.689  22.632  0.00  0.00    +0.000 A 
ATOM     28  C   UNL     1      -1.806  12.667  21.719  0.00  0.00    +0.000 A 
ATOM     29  C   UNL     1      -1.326  12.591  20.413  0.00  0.00    +0.000 A 
ATOM     30  C   UNL     1      -0.425  11.581  20.044  0.00  0.00    +0.000 A 
BRANCH  28  31
ATOM     31  O   UNL     1      -2.713  13.562  22.191  0.00  0.00    +0.000 OA
BRANCH  31  32
ATOM     32  C   UNL     1      -4.088  13.212  22.240  0.00  0.00    +0.000 C 
ATOM     33  F   UNL     1      -4.478  12.337  21.290  0.00  0.00    +0.000 F 
ATOM     34  F   UNL     1      -4.362  12.681  23.451  0.00  0.00    +0.000 F 
ATOM     35  F   UNL     1      -4.828  14.336  22.097  0.00  0.00    +0.000 F 
ENDBRANCH  31  32
ENDBRANCH  28  31
ENDBRANCH  23  25
ENDBRANCH   4  21
TORSDOF 7
ENDMDL
MODEL 7
REMARK VINA RESULT:      -8.2      1.183      1.748
REMARK  Name = 
REMARK  7 active torsions:
REMARK  status: ('A' for Active; 'I' for Inactive)
REMARK    1  A    between atoms: C_2  and  C_3
REMARK    2  A    between atoms: N_7  and  C_8
REMARK    3  A    between atoms: C_11  and  C_12
REMARK    4  A    between atoms: N_14  and  C_15
REMARK    5  A    between atoms: C_18  and  O_19
REMARK    6  A    between atoms: O_19  and  C_20
REMARK    7  A    between atoms: C_27  and  C_28
REMARK                            x       y       z     vdW  Elec       q    Type
REMARK                         _______ _______ _______ _____ _____    ______ ____
ROOT
ATOM      1  C   UNL     1       3.845   6.026  17.705  0.00  0.00    +0.000 A 
ATOM      2  N   UNL     1       4.093   7.296  17.304  0.00  0.00    +0.000 NA
ATOM      3  C   UNL     1       3.296   8.303  17.732  0.00  0.00    +0.000 A 
ATOM      4  C   UNL     1       2.218   8.124  18.575  0.00  0.00    +0.000 A 
ATOM      5  C   UNL     1       1.925   6.825  18.976  0.00  0.00    +0.000 A 
ATOM      6  C   UNL     1       2.732   5.741  18.549  0.00  0.00    +0.000 A 
ENDROOT
BRANCH   1  11
ATOM      7  C   UNL     1       7.213   4.973  17.284  0.00  0.00    +0.000 C 
ATOM      8  C   UNL     1       7.192   4.425  15.853  0.00  0.00    +0.000 C 
ATOM      9  C   UNL     1       5.983   4.953  15.078  0.00  0.00    +0.000 C 
ATOM     10  C   UNL     1       4.671   4.679  15.814  0.00  0.00    +0.000 C 
ATOM     11  N   UNL     1       4.728   5.063  17.233  0.00  0.00    +0.000 N 
ATOM     12  C   UNL     1       5.919   4.669  17.998  0.00  0.00    +0.000 C 
BRANCH   7  14
ATOM     13  N   UNL     1       7.606   7.725  17.190  0.00  0.00    +0.000 NA
ATOM     14  C   UNL     1       7.428   6.478  17.233  0.00  0.00    +0.000 C 
ENDBRANCH   7  14
ENDBRANCH   1  11
BRANCH   6  15
ATOM     15  C   UNL     1       2.373   4.380  19.000  0.00  0.00    +0.000 A 
ATOM     16  C   UNL     1       1.530   3.529  18.303  0.00  0.00    +0.000 A 
ATOM     17  N   UNL     1       1.404   2.205  18.546  0.00  0.00    +0.000 NA
ATOM     18  C   UNL     1       2.103   1.737  19.589  0.00  0.00    +0.000 A 
ATOM     19  N   UNL     1       2.870   2.469  20.407  0.00  0.00    +0.000 NA
ATOM     20  C   UNL     1       2.981   3.776  20.091  0.00  0.00    +0.000 A 
ENDBRANCH   6  15
BRANCH   4  21
ATOM     21  C   UNL     1       1.378   9.299  18.910  0.00  0.00    +0.000 C 
ATOM     22  O   UNL     1       1.338  10.203  18.091  0.00  0.00    +0.000 OA
ATOM     23  N   UNL     1       0.752   9.285  20.152  0.00  0.00    +0.000 N 
ATOM     24  H   UNL     1       1.052   8.594  20.826  0.00  0.00    +0.000 HD
BRANCH  23  25
ATOM     25  C   UNL     1      -0.135  10.283  20.624  0.00  0.00    +0.000 A 
ATOM     26  C   UNL     1      -0.985  11.010  19.793  0.00  0.00    +0.000 A 
ATOM     27  C   UNL     1      -1.830  11.993  20.306  0.00  0.00    +0.000 A 
ATOM     28  C   UNL     1      -1.858  12.266  21.673  0.00  0.00    +0.000 A 
ATOM     29  C   UNL     1      -0.999  11.561  22.513  0.00  0.00    +0.000 A 
ATOM     30  C   UNL     1      -0.163  10.559  21.998  0.00  0.00    +0.000 A 
BRANCH  28  31
ATOM     31  O   UNL     1      -2.680  13.286  22.037  0.00  0.00    +0.000 OA
BRANCH  31  32
ATOM     32  C   UNL     1      -3.929  13.000  22.647  0.00  0.00    +0.000 C 
ATOM     33  F   UNL     1      -3.848  12.247  23.763  0.00  0.00    +0.000 F 
ATOM     34  F   UNL     1      -4.541  14.163  22.957  0.00  0.00    +0.000 F 
ATOM     35  F   UNL     1      -4.706  12.340  21.757  0.00  0.00    +0.000 F 
ENDBRANCH  31  32
ENDBRANCH  28  31
ENDBRANCH  23  25
ENDBRANCH   4  21
TORSDOF 7
ENDMDL
MODEL 8
REMARK VINA RESULT:      -8.2      1.871      2.106
REMARK  Name = 
REMARK  7 active torsions:
REMARK  status: ('A' for Active; 'I' for Inactive)
REMARK    1  A    between atoms: C_2  and  C_3
REMARK    2  A    between atoms: N_7  and  C_8
REMARK    3  A    between atoms: C_11  and  C_12
REMARK    4  A    between atoms: N_14  and  C_15
REMARK    5  A    between atoms: C_18  and  O_19
REMARK    6  A    between atoms: O_19  and  C_20
REMARK    7  A    between atoms: C_27  and  C_28
REMARK                            x       y       z     vdW  Elec       q    Type
REMARK                         _______ _______ _______ _____ _____    ______ ____
ROOT
ATOM      1  C   UNL     1       3.679   6.084  18.201  0.00  0.00    +0.000 A 
ATOM      2  N   UNL     1       3.803   7.275  17.567  0.00  0.00    +0.000 NA
ATOM      3  C   UNL     1       3.000   8.308  17.914  0.00  0.00    +0.000 A 
ATOM      4  C   UNL     1       2.036   8.234  18.898  0.00  0.00    +0.000 A 
ATOM      5  C   UNL     1       1.867   7.012  19.542  0.00  0.00    +0.000 A 
ATOM      6  C   UNL     1       2.686   5.905  19.208  0.00  0.00    +0.000 A 
ENDROOT
BRANCH   1  11
ATOM      7  C   UNL     1       7.044   5.072  17.674  0.00  0.00    +0.000 C 
ATOM      8  C   UNL     1       6.944   4.341  16.331  0.00  0.00    +0.000 C 
ATOM      9  C   UNL     1       5.667   4.733  15.585  0.00  0.00    +0.000 C 
ATOM     10  C   UNL     1       4.419   4.524  16.443  0.00  0.00    +0.000 C 
ATOM     11  N   UNL     1       4.560   5.091  17.794  0.00  0.00    +0.000 N 
ATOM     12  C   UNL     1       5.814   4.831  18.513  0.00  0.00    +0.000 C 
BRANCH   7  14
ATOM     13  N   UNL     1       7.333   7.797  17.201  0.00  0.00    +0.000 NA
ATOM     14  C   UNL     1       7.203   6.562  17.415  0.00  0.00    +0.000 C 
ENDBRANCH   7  14
ENDBRANCH   1  11
BRANCH   6  15
ATOM     15  C   UNL     1       2.462   4.629  19.919  0.00  0.00    +0.000 A 
ATOM     16  C   UNL     1       2.613   4.467  21.288  0.00  0.00    +0.000 A 
ATOM     17  N   UNL     1       2.159   3.404  21.989  0.00  0.00    +0.000 NA
ATOM     18  C   UNL     1       1.598   2.427  21.265  0.00  0.00    +0.000 A 
ATOM     19  N   UNL     1       1.485   2.410  19.931  0.00  0.00    +0.000 NA
ATOM     20  C   UNL     1       1.926   3.514  19.291  0.00  0.00    +0.000 A 
ENDBRANCH   6  15
BRANCH   4  21
ATOM     21  C   UNL     1       1.169   9.414  19.131  0.00  0.00    +0.000 C 
ATOM     22  O   UNL     1       0.541   9.837  18.174  0.00  0.00    +0.000 OA
ATOM     23  N   UNL     1       1.191   9.962  20.409  0.00  0.00    +0.000 N 
ATOM     24  H   UNL     1       1.924   9.666  21.039  0.00  0.00    +0.000 HD
BRANCH  23  25
ATOM     25  C   UNL     1       0.390  11.048  20.839  0.00  0.00    +0.000 A 
ATOM     26  C   UNL     1       0.680  12.379  20.547  0.00  0.00    +0.000 A 
ATOM     27  C   UNL     1      -0.134  13.413  21.007  0.00  0.00    +0.000 A 
ATOM     28  C   UNL     1      -1.274  13.141  21.762  0.00  0.00    +0.000 A 
ATOM     29  C   UNL     1      -1.565  11.816  22.079  0.00  0.00    +0.000 A 
ATOM     30  C   UNL     1      -0.756  10.775  21.599  0.00  0.00    +0.000 A 
BRANCH  28  31
ATOM     31  O   UNL     1      -1.947  14.238  22.199  0.00  0.00    +0.000 OA
BRANCH  31  32
ATOM     32  C   UNL     1      -2.114  14.452  23.592  0.00  0.00    +0.000 C 
ATOM     33  F   UNL     1      -3.074  13.697  24.164  0.00  0.00    +0.000 F 
ATOM     34  F   UNL     1      -0.943  14.204  24.217  0.00  0.00    +0.000 F 
ATOM     35  F   UNL     1      -2.431  15.752  23.797  0.00  0.00    +0.000 F 
ENDBRANCH  31  32
ENDBRANCH  28  31
ENDBRANCH  23  25
ENDBRANCH   4  21
TORSDOF 7
ENDMDL
MODEL 9
REMARK VINA RESULT:      -8.2      1.750      4.156
REMARK  Name = 
REMARK  7 active torsions:
REMARK  status: ('A' for Active; 'I' for Inactive)
REMARK    1  A    between atoms: C_2  and  C_3
REMARK    2  A    between atoms: N_7  and  C_8
REMARK    3  A    between atoms: C_11  and  C_12
REMARK    4  A    between atoms: N_14  and  C_15
REMARK    5  A    between atoms: C_18  and  O_19
REMARK    6  A    between atoms: O_19  and  C_20
REMARK    7  A    between atoms: C_27  and  C_28
REMARK                            x       y       z     vdW  Elec       q    Type
REMARK                         _______ _______ _______ _____ _____    ______ ____
ROOT
ATOM      1  C   UNL     1       3.692   5.246  18.289  0.00  0.00    +0.000 A 
ATOM      2  N   UNL     1       2.709   5.551  19.171  0.00  0.00    +0.000 NA
ATOM      3  C   UNL     1       2.141   6.779  19.144  0.00  0.00    +0.000 A 
ATOM      4  C   UNL     1       2.499   7.773  18.257  0.00  0.00    +0.000 A 
ATOM      5  C   UNL     1       3.528   7.495  17.362  0.00  0.00    +0.000 A 
ATOM      6  C   UNL     1       4.151   6.222  17.357  0.00  0.00    +0.000 A 
ENDROOT
BRANCH   1  11
ATOM      7  C   UNL     1       3.089   1.751  18.078  0.00  0.00    +0.000 C 
ATOM      8  C   UNL     1       3.880   1.224  19.280  0.00  0.00    +0.000 C 
ATOM      9  C   UNL     1       4.170   2.344  20.282  0.00  0.00    +0.000 C 
ATOM     10  C   UNL     1       4.864   3.535  19.618  0.00  0.00    +0.000 C 
ATOM     11  N   UNL     1       4.199   3.956  18.375  0.00  0.00    +0.000 N 
ATOM     12  C   UNL     1       3.804   2.908  17.425  0.00  0.00    +0.000 C 
BRANCH   7  14
ATOM     13  N   UNL     1       0.575   2.571  18.939  0.00  0.00    +0.000 NA
ATOM     14  C   UNL     1       1.714   2.199  18.548  0.00  0.00    +0.000 C 
ENDBRANCH   7  14
ENDBRANCH   1  11
BRANCH   6  15
ATOM     15  C   UNL     1       5.241   5.980  16.388  0.00  0.00    +0.000 A 
ATOM     16  C   UNL     1       6.583   6.202  16.659  0.00  0.00    +0.000 A 
ATOM     17  N   UNL     1       7.604   5.740  15.904  0.00  0.00    +0.000 NA
ATOM     18  C   UNL     1       7.253   5.091  14.785  0.00  0.00    +0.000 A 
ATOM     19  N   UNL     1       6.000   4.901  14.354  0.00  0.00    +0.000 NA
ATOM     20  C   UNL     1       5.024   5.356  15.168  0.00  0.00    +0.000 A 
ENDBRANCH   6  15
BRANCH   4  21
ATOM     21  C   UNL     1       1.853   9.101  18.381  0.00  0.00    +0.000 C 
ATOM     22  O   UNL     1       2.178   9.954  17.571  0.00  0.00    +0.000 OA
ATOM     23  N   UNL     1       0.972   9.269  19.444  0.00  0.00    +0.000 N 
ATOM     24  H   UNL     1       0.970   8.569  20.173  0.00  0.00    +0.000 HD
BRANCH  23  25
ATOM     25  C   UNL     1       0.215  10.440  19.693  0.00  0.00    +0.000 A 
ATOM     26  C   UNL     1       0.599  11.423  20.603  0.00  0.00    +0.000 A 
ATOM     27  C   UNL     1      -0.190  12.552  20.821  0.00  0.00    +0.000 A 
ATOM     28  C   UNL     1      -1.381  12.736  20.122  0.00  0.00    +0.000 A 
ATOM     29  C   UNL     1      -1.788  11.751  19.224  0.00  0.00    +0.000 A 
ATOM     30  C   UNL     1      -0.984  10.625  18.991  0.00  0.00    +0.000 A 
BRANCH  28  31
ATOM     31  O   UNL     1      -2.085  13.845  20.470  0.00  0.00    +0.000 OA
BRANCH  31  32
ATOM     32  C   UNL     1      -3.327  13.707  21.144  0.00  0.00    +0.000 C 
ATOM     33  F   UNL     1      -3.409  12.631  21.953  0.00  0.00    +0.000 F 
ATOM     34  F   UNL     1      -3.550  14.817  21.882  0.00  0.00    +0.000 F 
ATOM     35  F   UNL     1      -4.313  13.612  20.222  0.00  0.00    +0.000 F 
ENDBRANCH  31  32
ENDBRANCH  28  31
ENDBRANCH  23  25
ENDBRANCH   4  21
TORSDOF 7
ENDMDL
