MODEL 1
REMARK VINA RESULT:      -8.1      0.000      0.000
REMARK  Name = 
REMARK  9 active torsions:
REMARK  status: ('A' for Active; 'I' for Inactive)
REMARK    1  A    between atoms: C_1  and  O_2
REMARK    2  A    between atoms: O_2  and  C_3
REMARK    3  A    between atoms: C_10  and  C_11
REMARK    4  A    between atoms: C_11  and  C_13
REMARK    5  A    between atoms: N_22  and  C_23
REMARK    6  A    between atoms: C_23  and  O_24
REMARK    7  A    between atoms: O_24  and  P_25
REMARK    8  A    between atoms: P_25  and  O_27
REMARK    9  A    between atoms: P_25  and  O_28
REMARK                            x       y       z     vdW  Elec       q    Type
REMARK                         _______ _______ _______ _____ _____    ______ ____
ROOT
ATOM      1  C   UNL     1       4.534   4.234  16.771  0.00  0.00    +0.000 C 
ATOM      2  O   UNL     1       3.576   3.608  17.209  0.00  0.00    +0.000 OA
ATOM      3  N   UNL     1       4.861   5.532  17.041  0.00  0.00    +0.000 N 
ATOM      4  C   UNL     1       3.947   6.368  17.639  0.00  0.00    +0.000 A 
ATOM      5  N   UNL     1       3.578   7.515  17.115  0.00  0.00    +0.000 NA
ATOM      6  C   UNL     1       2.670   8.055  17.992  0.00  0.00    +0.000 A 
ATOM      7  C   UNL     1       1.930   9.239  17.880  0.00  0.00    +0.000 A 
ATOM      8  C   UNL     1       1.077   9.609  18.934  0.00  0.00    +0.000 A 
ATOM      9  C   UNL     1       1.007   8.829  20.095  0.00  0.00    +0.000 A 
ATOM     10  C   UNL     1       1.739   7.637  20.217  0.00  0.00    +0.000 A 
ATOM     11  C   UNL     1       2.550   7.268  19.134  0.00  0.00    +0.000 A 
ATOM     12  N   UNL     1       3.392   6.193  18.893  0.00  0.00    +0.000 N 
ATOM     13  H   UNL     1       5.438   5.959  16.323  0.00  0.00    +0.000 HD
ENDROOT
BRANCH   1  15
ATOM     14  C   UNL     1       6.733   4.318  15.933  0.00  0.00    +0.000 C 
ATOM     15  O   UNL     1       5.427   3.735  15.868  0.00  0.00    +0.000 OA
ENDBRANCH   1  15
BRANCH   8  16
ATOM     16  C   UNL     1       0.263  10.854  18.860  0.00  0.00    +0.000 C 
ATOM     17  O   UNL     1       0.749  11.915  19.240  0.00  0.00    +0.000 OA
BRANCH  16  18
ATOM     18  C   UNL     1      -1.143  10.836  18.370  0.00  0.00    +0.000 A 
ATOM     19  C   UNL     1      -2.078  11.713  18.932  0.00  0.00    +0.000 A 
ATOM     20  C   UNL     1      -3.420  11.642  18.551  0.00  0.00    +0.000 A 
ATOM     21  C   UNL     1      -3.832  10.699  17.610  0.00  0.00    +0.000 A 
ATOM     22  C   UNL     1      -2.901   9.837  17.032  0.00  0.00    +0.000 A 
ATOM     23  C   UNL     1      -1.562   9.895  17.418  0.00  0.00    +0.000 A 
ENDBRANCH  16  18
ENDBRANCH   8  16
BRANCH  12  24
ATOM     24  C   UNL     1       3.751   5.184  19.864  0.00  0.00    +0.000 C 
BRANCH  24  25
ATOM     25  O   UNL     1       2.593   4.447  20.196  0.00  0.00    +0.000 OA
BRANCH  25  26
ATOM     26  P   UNL     1       2.849   2.921  20.574  0.00  0.00    +0.000 P 
ATOM     27  O   UNL     1       2.643   2.542  21.998  0.00  0.00    +0.000 OA
BRANCH  26  28
ATOM     28  O   UNL     1       1.931   2.186  19.498  0.00  0.00    +0.000 OA
ATOM     29  H   UNL     1       1.220   2.773  19.183  0.00  0.00    +0.000 HD
ENDBRANCH  26  28
BRANCH  26  30
ATOM     30  O   UNL     1       4.307   2.667  19.990  0.00  0.00    +0.000 OA
ATOM     31  H   UNL     1       4.874   3.451  20.104  0.00  0.00    +0.000 HD
ENDBRANCH  26  30
ENDBRANCH  25  26
ENDBRANCH  24  25
ENDBRANCH  12  24
TORSDOF 8
ENDMDL
MODEL 2
REMARK VINA RESULT:      -7.8      1.999      3.508
REMARK  Name = 
REMARK  9 active torsions:
REMARK  status: ('A' for Active; 'I' for Inactive)
REMARK    1  A    between atoms: C_1  and  O_2
REMARK    2  A    between atoms: O_2  and  C_3
REMARK    3  A    between atoms: C_10  and  C_11
REMARK    4  A    between atoms: C_11  and  C_13
REMARK    5  A    between atoms: N_22  and  C_23
REMARK    6  A    between atoms: C_23  and  O_24
REMARK    7  A    between atoms: O_24  and  P_25
REMARK    8  A    between atoms: P_25  and  O_27
REMARK    9  A    between atoms: P_25  and  O_28
REMARK                            x       y       z     vdW  Elec       q    Type
REMARK                         _______ _______ _______ _____ _____    ______ ____
ROOT
ATOM      1  C   UNL     1       4.835   3.314  19.540  0.00  0.00    +0.000 C 
ATOM      2  O   UNL     1       5.820   4.010  19.324  0.00  0.00    +0.000 OA
ATOM      3  N   UNL     1       3.527   3.658  19.351  0.00  0.00    +0.000 N 
ATOM      4  C   UNL     1       3.176   4.972  19.151  0.00  0.00    +0.000 A 
ATOM      5  N   UNL     1       2.295   5.598  19.897  0.00  0.00    +0.000 NA
ATOM      6  C   UNL     1       2.212   6.873  19.393  0.00  0.00    +0.000 A 
ATOM      7  C   UNL     1       1.463   7.961  19.861  0.00  0.00    +0.000 A 
ATOM      8  C   UNL     1       1.512   9.174  19.152  0.00  0.00    +0.000 A 
ATOM      9  C   UNL     1       2.262   9.274  17.973  0.00  0.00    +0.000 A 
ATOM     10  C   UNL     1       3.022   8.194  17.499  0.00  0.00    +0.000 A 
ATOM     11  C   UNL     1       2.990   7.008  18.247  0.00  0.00    +0.000 A 
ATOM     12  N   UNL     1       3.592   5.768  18.099  0.00  0.00    +0.000 N 
ATOM     13  H   UNL     1       2.883   3.116  19.919  0.00  0.00    +0.000 HD
ENDROOT
BRANCH   1  15
ATOM     14  C   UNL     1       4.200   1.057  19.322  0.00  0.00    +0.000 C 
ATOM     15  O   UNL     1       4.886   2.061  20.078  0.00  0.00    +0.000 OA
ENDBRANCH   1  15
BRANCH   8  16
ATOM     16  C   UNL     1       0.741  10.361  19.612  0.00  0.00    +0.000 C 
ATOM     17  O   UNL     1       1.189  11.054  20.522  0.00  0.00    +0.000 OA
BRANCH  16  18
ATOM     18  C   UNL     1      -0.580  10.709  19.020  0.00  0.00    +0.000 A 
ATOM     19  C   UNL     1      -1.366  11.697  19.624  0.00  0.00    +0.000 A 
ATOM     20  C   UNL     1      -2.647  11.967  19.137  0.00  0.00    +0.000 A 
ATOM     21  C   UNL     1      -3.145  11.253  18.047  0.00  0.00    +0.000 A 
ATOM     22  C   UNL     1      -2.358  10.282  17.429  0.00  0.00    +0.000 A 
ATOM     23  C   UNL     1      -1.084  10.001  17.919  0.00  0.00    +0.000 A 
ENDBRANCH  16  18
ENDBRANCH   8  16
BRANCH  12  24
ATOM     24  C   UNL     1       4.359   5.348  16.948  0.00  0.00    +0.000 C 
BRANCH  24  25
ATOM     25  O   UNL     1       5.652   5.908  17.042  0.00  0.00    +0.000 OA
BRANCH  25  26
ATOM     26  P   UNL     1       6.805   5.068  16.333  0.00  0.00    +0.000 P 
ATOM     27  O   UNL     1       7.356   5.625  15.069  0.00  0.00    +0.000 OA
BRANCH  26  28
ATOM     28  O   UNL     1       7.830   4.883  17.540  0.00  0.00    +0.000 OA
ATOM     29  H   UNL     1       8.745   4.800  17.214  0.00  0.00    +0.000 HD
ENDBRANCH  26  28
BRANCH  26  30
ATOM     30  O   UNL     1       6.155   3.619  16.230  0.00  0.00    +0.000 OA
ATOM     31  H   UNL     1       5.230   3.669  15.929  0.00  0.00    +0.000 HD
ENDBRANCH  26  30
ENDBRANCH  25  26
ENDBRANCH  24  25
ENDBRANCH  12  24
TORSDOF 8
ENDMDL
MODEL 3
REMARK VINA RESULT:      -7.7      0.538      1.379
REMARK  Name = 
REMARK  9 active torsions:
REMARK  status: ('A' for Active; 'I' for Inactive)
REMARK    1  A    between atoms: C_1  and  O_2
REMARK    2  A    between atoms: O_2  and  C_3
REMARK    3  A    between atoms: C_10  and  C_11
REMARK    4  A    between atoms: C_11  and  C_13
REMARK    5  A    between atoms: N_22  and  C_23
REMARK    6  A    between atoms: C_23  and  O_24
REMARK    7  A    between atoms: O_24  and  P_25
REMARK    8  A    between atoms: P_25  and  O_27
REMARK    9  A    between atoms: P_25  and  O_28
REMARK                            x       y       z     vdW  Elec       q    Type
REMARK                         _______ _______ _______ _____ _____    ______ ____
ROOT
ATOM      1  C   UNL     1       4.502   4.136  16.798  0.00  0.00    +0.000 C 
ATOM      2  O   UNL     1       3.484   3.550  17.149  0.00  0.00    +0.000 OA
ATOM      3  N   UNL     1       4.876   5.406  17.132  0.00  0.00    +0.000 N 
ATOM      4  C   UNL     1       3.968   6.273  17.695  0.00  0.00    +0.000 A 
ATOM      5  N   UNL     1       3.695   7.452  17.186  0.00  0.00    +0.000 NA
ATOM      6  C   UNL     1       2.759   8.014  18.017  0.00  0.00    +0.000 A 
ATOM      7  C   UNL     1       2.091   9.240  17.895  0.00  0.00    +0.000 A 
ATOM      8  C   UNL     1       1.187   9.624  18.901  0.00  0.00    +0.000 A 
ATOM      9  C   UNL     1       0.997   8.814  20.028  0.00  0.00    +0.000 A 
ATOM     10  C   UNL     1       1.655   7.582  20.158  0.00  0.00    +0.000 A 
ATOM     11  C   UNL     1       2.519   7.201  19.121  0.00  0.00    +0.000 A 
ATOM     12  N   UNL     1       3.318   6.090  18.902  0.00  0.00    +0.000 N 
ATOM     13  H   UNL     1       5.522   5.822  16.469  0.00  0.00    +0.000 HD
ENDROOT
BRANCH   1  15
ATOM     14  C   UNL     1       6.568   4.452  15.715  0.00  0.00    +0.000 C 
ATOM     15  O   UNL     1       5.427   3.617  15.941  0.00  0.00    +0.000 OA
ENDBRANCH   1  15
BRANCH   8  16
ATOM     16  C   UNL     1       0.446  10.913  18.813  0.00  0.00    +0.000 C 
ATOM     17  O   UNL     1       1.056  11.969  18.951  0.00  0.00    +0.000 OA
BRANCH  16  18
ATOM     18  C   UNL     1      -1.027  10.950  18.600  0.00  0.00    +0.000 A 
ATOM     19  C   UNL     1      -1.611  10.070  17.680  0.00  0.00    +0.000 A 
ATOM     20  C   UNL     1      -2.976  10.157  17.398  0.00  0.00    +0.000 A 
ATOM     21  C   UNL     1      -3.761  11.120  18.033  0.00  0.00    +0.000 A 
ATOM     22  C   UNL     1      -3.189  11.984  18.965  0.00  0.00    +0.000 A 
ATOM     23  C   UNL     1      -1.824  11.910  19.241  0.00  0.00    +0.000 A 
ENDBRANCH  16  18
ENDBRANCH   8  16
BRANCH  12  24
ATOM     24  C   UNL     1       3.556   5.035  19.861  0.00  0.00    +0.000 C 
BRANCH  24  25
ATOM     25  O   UNL     1       2.322   4.668  20.441  0.00  0.00    +0.000 OA
BRANCH  25  26
ATOM     26  P   UNL     1       2.159   3.115  20.753  0.00  0.00    +0.000 P 
ATOM     27  O   UNL     1       3.054   2.187  20.012  0.00  0.00    +0.000 OA
BRANCH  26  28
ATOM     28  O   UNL     1       2.283   3.111  22.343  0.00  0.00    +0.000 OA
ATOM     29  H   UNL     1       2.464   2.215  22.679  0.00  0.00    +0.000 HD
ENDBRANCH  26  28
BRANCH  26  30
ATOM     30  O   UNL     1       0.597   2.889  20.547  0.00  0.00    +0.000 OA
ATOM     31  H   UNL     1       0.269   2.162  21.107  0.00  0.00    +0.000 HD
ENDBRANCH  26  30
ENDBRANCH  25  26
ENDBRANCH  24  25
ENDBRANCH  12  24
TORSDOF 8
ENDMDL
MODEL 4
REMARK VINA RESULT:      -7.7      0.828      1.253
REMARK  Name = 
REMARK  9 active torsions:
REMARK  status: ('A' for Active; 'I' for Inactive)
REMARK    1  A    between atoms: C_1  and  O_2
REMARK    2  A    between atoms: O_2  and  C_3
REMARK    3  A    between atoms: C_10  and  C_11
REMARK    4  A    between atoms: C_11  and  C_13
REMARK    5  A    between atoms: N_22  and  C_23
REMARK    6  A    between atoms: C_23  and  O_24
REMARK    7  A    between atoms: O_24  and  P_25
REMARK    8  A    between atoms: P_25  and  O_27
REMARK    9  A    between atoms: P_25  and  O_28
REMARK                            x       y       z     vdW  Elec       q    Type
REMARK                         _______ _______ _______ _____ _____    ______ ____
ROOT
ATOM      1  C   UNL     1       3.834   4.194  17.295  0.00  0.00    +0.000 C 
ATOM      2  O   UNL     1       2.820   3.651  17.716  0.00  0.00    +0.000 OA
ATOM      3  N   UNL     1       4.269   5.457  17.581  0.00  0.00    +0.000 N 
ATOM      4  C   UNL     1       3.425   6.365  18.175  0.00  0.00    +0.000 A 
ATOM      5  N   UNL     1       3.164   7.543  17.657  0.00  0.00    +0.000 NA
ATOM      6  C   UNL     1       2.296   8.154  18.528  0.00  0.00    +0.000 A 
ATOM      7  C   UNL     1       1.664   9.399  18.418  0.00  0.00    +0.000 A 
ATOM      8  C   UNL     1       0.833   9.834  19.465  0.00  0.00    +0.000 A 
ATOM      9  C   UNL     1       0.680   9.054  20.618  0.00  0.00    +0.000 A 
ATOM     10  C   UNL     1       1.303   7.802  20.738  0.00  0.00    +0.000 A 
ATOM     11  C   UNL     1       2.093   7.371  19.662  0.00  0.00    +0.000 A 
ATOM     12  N   UNL     1       2.840   6.229  19.421  0.00  0.00    +0.000 N 
ATOM     13  H   UNL     1       4.891   5.837  16.874  0.00  0.00    +0.000 HD
ENDROOT
BRANCH   1  15
ATOM     14  C   UNL     1       5.887   4.375  16.158  0.00  0.00    +0.000 C 
ATOM     15  O   UNL     1       4.691   3.626  16.399  0.00  0.00    +0.000 OA
ENDBRANCH   1  15
BRANCH   8  16
ATOM     16  C   UNL     1       0.132  11.146  19.392  0.00  0.00    +0.000 C 
ATOM     17  O   UNL     1       0.758  12.177  19.620  0.00  0.00    +0.000 OA
BRANCH  16  18
ATOM     18  C   UNL     1      -1.322  11.235  19.085  0.00  0.00    +0.000 A 
ATOM     19  C   UNL     1      -1.857  10.448  18.059  0.00  0.00    +0.000 A 
ATOM     20  C   UNL     1      -3.198  10.590  17.695  0.00  0.00    +0.000 A 
ATOM     21  C   UNL     1      -4.008  11.514  18.355  0.00  0.00    +0.000 A 
ATOM     22  C   UNL     1      -3.485  12.286  19.391  0.00  0.00    +0.000 A 
ATOM     23  C   UNL     1      -2.144  12.157  19.750  0.00  0.00    +0.000 A 
ENDBRANCH  16  18
ENDBRANCH   8  16
BRANCH  12  24
ATOM     24  C   UNL     1       3.097   5.185  20.387  0.00  0.00    +0.000 C 
BRANCH  24  25
ATOM     25  O   UNL     1       1.865   4.605  20.761  0.00  0.00    +0.000 OA
BRANCH  25  26
ATOM     26  P   UNL     1       1.901   3.028  20.984  0.00  0.00    +0.000 P 
ATOM     27  O   UNL     1       1.537   2.537  22.340  0.00  0.00    +0.000 OA
BRANCH  26  28
ATOM     28  O   UNL     1       0.987   2.532  19.775  0.00  0.00    +0.000 OA
ATOM     29  H   UNL     1       0.524   1.705  20.002  0.00  0.00    +0.000 HD
ENDBRANCH  26  28
BRANCH  26  30
ATOM     30  O   UNL     1       3.358   2.646  20.472  0.00  0.00    +0.000 OA
ATOM     31  H   UNL     1       4.044   3.109  20.985  0.00  0.00    +0.000 HD
ENDBRANCH  26  30
ENDBRANCH  25  26
ENDBRANCH  24  25
ENDBRANCH  12  24
TORSDOF 8
ENDMDL
MODEL 5
REMARK VINA RESULT:      -7.6      3.393      8.324
REMARK  Name = 
REMARK  9 active torsions:
REMARK  status: ('A' for Active; 'I' for Inactive)
REMARK    1  A    between atoms: C_1  and  O_2
REMARK    2  A    between atoms: O_2  and  C_3
REMARK    3  A    between atoms: C_10  and  C_11
REMARK    4  A    between atoms: C_11  and  C_13
REMARK    5  A    between atoms: N_22  and  C_23
REMARK    6  A    between atoms: C_23  and  O_24
REMARK    7  A    between atoms: O_24  and  P_25
REMARK    8  A    between atoms: P_25  and  O_27
REMARK    9  A    between atoms: P_25  and  O_28
REMARK                            x       y       z     vdW  Elec       q    Type
REMARK                         _______ _______ _______ _____ _____    ______ ____
ROOT
ATOM      1  C   UNL     1       1.474  12.813  19.124  0.00  0.00    +0.000 C 
ATOM      2  O   UNL     1       2.257  12.718  20.062  0.00  0.00    +0.000 OA
ATOM      3  N   UNL     1       0.833  11.793  18.481  0.00  0.00    +0.000 N 
ATOM      4  C   UNL     1       1.243  10.493  18.660  0.00  0.00    +0.000 A 
ATOM      5  N   UNL     1       1.582   9.706  17.665  0.00  0.00    +0.000 NA
ATOM      6  C   UNL     1       1.924   8.504  18.233  0.00  0.00    +0.000 A 
ATOM      7  C   UNL     1       2.414   7.344  17.619  0.00  0.00    +0.000 A 
ATOM      8  C   UNL     1       2.664   6.210  18.411  0.00  0.00    +0.000 A 
ATOM      9  C   UNL     1       2.383   6.230  19.784  0.00  0.00    +0.000 A 
ATOM     10  C   UNL     1       1.899   7.388  20.411  0.00  0.00    +0.000 A 
ATOM     11  C   UNL     1       1.697   8.519  19.607  0.00  0.00    +0.000 A 
ATOM     12  N   UNL     1       1.246   9.805  19.860  0.00  0.00    +0.000 N 
ATOM     13  H   UNL     1       0.542  12.032  17.538  0.00  0.00    +0.000 HD
ENDROOT
BRANCH   1  15
ATOM     14  C   UNL     1      -0.108  14.545  18.919  0.00  0.00    +0.000 C 
ATOM     15  O   UNL     1       1.148  13.989  18.515  0.00  0.00    +0.000 OA
ENDBRANCH   1  15
BRANCH   8  16
ATOM     16  C   UNL     1       3.192   4.956  17.808  0.00  0.00    +0.000 C 
ATOM     17  O   UNL     1       2.419   4.036  17.557  0.00  0.00    +0.000 OA
BRANCH  16  18
ATOM     18  C   UNL     1       4.645   4.774  17.537  0.00  0.00    +0.000 A 
ATOM     19  C   UNL     1       5.574   5.074  18.540  0.00  0.00    +0.000 A 
ATOM     20  C   UNL     1       6.943   5.001  18.270  0.00  0.00    +0.000 A 
ATOM     21  C   UNL     1       7.387   4.627  17.002  0.00  0.00    +0.000 A 
ATOM     22  C   UNL     1       6.465   4.308  16.006  0.00  0.00    +0.000 A 
ATOM     23  C   UNL     1       5.098   4.391  16.266  0.00  0.00    +0.000 A 
ENDBRANCH  16  18
ENDBRANCH   8  16
BRANCH  12  24
ATOM     24  C   UNL     1       0.704  10.262  21.120  0.00  0.00    +0.000 C 
BRANCH  24  25
ATOM     25  O   UNL     1      -0.587  10.786  20.890  0.00  0.00    +0.000 OA
BRANCH  25  26
ATOM     26  P   UNL     1      -1.119  11.787  22.009  0.00  0.00    +0.000 P 
ATOM     27  O   UNL     1      -2.466  12.379  21.790  0.00  0.00    +0.000 OA
BRANCH  26  28
ATOM     28  O   UNL     1      -0.933  10.899  23.321  0.00  0.00    +0.000 OA
ATOM     29  H   UNL     1      -0.150  11.182  23.829  0.00  0.00    +0.000 HD
ENDBRANCH  26  28
BRANCH  26  30
ATOM     30  O   UNL     1       0.083  12.821  22.140  0.00  0.00    +0.000 OA
ATOM     31  H   UNL     1       0.628  12.831  21.332  0.00  0.00    +0.000 HD
ENDBRANCH  26  30
ENDBRANCH  25  26
ENDBRANCH  24  25
ENDBRANCH  12  24
TORSDOF 8
ENDMDL
MODEL 6
REMARK VINA RESULT:      -7.5      2.723      7.539
REMARK  Name = 
REMARK  9 active torsions:
REMARK  status: ('A' for Active; 'I' for Inactive)
REMARK    1  A    between atoms: C_1  and  O_2
REMARK    2  A    between atoms: O_2  and  C_3
REMARK    3  A    between atoms: C_10  and  C_11
REMARK    4  A    between atoms: C_11  and  C_13
REMARK    5  A    between atoms: N_22  and  C_23
REMARK    6  A    between atoms: C_23  and  O_24
REMARK    7  A    between atoms: O_24  and  P_25
REMARK    8  A    between atoms: P_25  and  O_27
REMARK    9  A    between atoms: P_25  and  O_28
REMARK                            x       y       z     vdW  Elec       q    Type
REMARK                         _______ _______ _______ _____ _____    ______ ____
ROOT
ATOM      1  C   UNL     1       1.408   8.452  20.642  0.00  0.00    +0.000 C 
ATOM      2  O   UNL     1       1.894   7.797  21.557  0.00  0.00    +0.000 OA
ATOM      3  N   UNL     1       1.496   8.187  19.305  0.00  0.00    +0.000 N 
ATOM      4  C   UNL     1       2.409   7.272  18.836  0.00  0.00    +0.000 A 
ATOM      5  N   UNL     1       3.305   7.561  17.920  0.00  0.00    +0.000 NA
ATOM      6  C   UNL     1       4.020   6.408  17.715  0.00  0.00    +0.000 A 
ATOM      7  C   UNL     1       5.127   6.191  16.884  0.00  0.00    +0.000 A 
ATOM      8  C   UNL     1       5.679   4.900  16.811  0.00  0.00    +0.000 A 
ATOM      9  C   UNL     1       5.101   3.842  17.524  0.00  0.00    +0.000 A 
ATOM     10  C   UNL     1       3.996   4.048  18.365  0.00  0.00    +0.000 A 
ATOM     11  C   UNL     1       3.490   5.353  18.453  0.00  0.00    +0.000 A 
ATOM     12  N   UNL     1       2.444   5.928  19.158  0.00  0.00    +0.000 N 
ATOM     13  H   UNL     1       1.363   9.008  18.723  0.00  0.00    +0.000 HD
ENDROOT
BRANCH   1  15
ATOM     14  C   UNL     1      -0.306   9.572  21.802  0.00  0.00    +0.000 C 
ATOM     15  O   UNL     1       0.728   9.621  20.814  0.00  0.00    +0.000 OA
ENDBRANCH   1  15
BRANCH   8  16
ATOM     16  C   UNL     1       6.860   4.619  15.949  0.00  0.00    +0.000 C 
ATOM     17  O   UNL     1       7.973   4.536  16.461  0.00  0.00    +0.000 OA
BRANCH  16  18
ATOM     18  C   UNL     1       6.729   4.474  14.473  0.00  0.00    +0.000 A 
ATOM     19  C   UNL     1       5.715   3.663  13.950  0.00  0.00    +0.000 A 
ATOM     20  C   UNL     1       5.638   3.440  12.573  0.00  0.00    +0.000 A 
ATOM     21  C   UNL     1       6.570   4.026  11.717  0.00  0.00    +0.000 A 
ATOM     22  C   UNL     1       7.570   4.851  12.231  0.00  0.00    +0.000 A 
ATOM     23  C   UNL     1       7.659   5.067  13.606  0.00  0.00    +0.000 A 
ENDBRANCH  16  18
ENDBRANCH   8  16
BRANCH  12  24
ATOM     24  C   UNL     1       1.466   5.199  19.935  0.00  0.00    +0.000 C 
BRANCH  24  25
ATOM     25  O   UNL     1       2.111   4.638  21.058  0.00  0.00    +0.000 OA
BRANCH  25  26
ATOM     26  P   UNL     1       1.871   3.077  21.266  0.00  0.00    +0.000 P 
ATOM     27  O   UNL     1       1.188   2.668  22.523  0.00  0.00    +0.000 OA
BRANCH  26  28
ATOM     28  O   UNL     1       1.140   2.700  19.900  0.00  0.00    +0.000 OA
ATOM     29  H   UNL     1       1.029   1.736  19.816  0.00  0.00    +0.000 HD
ENDBRANCH  26  28
BRANCH  26  30
ATOM     30  O   UNL     1       3.326   2.476  21.036  0.00  0.00    +0.000 OA
ATOM     31  H   UNL     1       3.797   2.952  20.328  0.00  0.00    +0.000 HD
ENDBRANCH  26  30
ENDBRANCH  25  26
ENDBRANCH  24  25
ENDBRANCH  12  24
TORSDOF 8
ENDMDL
MODEL 7
REMARK VINA RESULT:      -7.5      4.003      8.666
REMARK  Name = 
REMARK  9 active torsions:
REMARK  status: ('A' for Active; 'I' for Inactive)
REMARK    1  A    between atoms: C_1  and  O_2
REMARK    2  A    between atoms: O_2  and  C_3
REMARK    3  A    between atoms: C_10  and  C_11
REMARK    4  A    between atoms: C_11  and  C_13
REMARK    5  A    between atoms: N_22  and  C_23
REMARK    6  A    between atoms: C_23  and  O_24
REMARK    7  A    between atoms: O_24  and  P_25
REMARK    8  A    between atoms: P_25  and  O_27
REMARK    9  A    between atoms: P_25  and  O_28
REMARK                            x       y       z     vdW  Elec       q    Type
REMARK                         _______ _______ _______ _____ _____    ______ ____
ROOT
ATOM      1  C   UNL     1      -2.093  12.433  20.984  0.00  0.00    +0.000 C 
ATOM      2  O   UNL     1      -2.632  12.157  19.919  0.00  0.00    +0.000 OA
ATOM      3  N   UNL     1      -0.835  12.082  21.384  0.00  0.00    +0.000 N 
ATOM      4  C   UNL     1      -0.135  11.113  20.705  0.00  0.00    +0.000 A 
ATOM      5  N   UNL     1       0.356  10.044  21.289  0.00  0.00    +0.000 NA
ATOM      6  C   UNL     1       0.981   9.327  20.299  0.00  0.00    +0.000 A 
ATOM      7  C   UNL     1       1.615   8.079  20.377  0.00  0.00    +0.000 A 
ATOM      8  C   UNL     1       2.221   7.552  19.224  0.00  0.00    +0.000 A 
ATOM      9  C   UNL     1       2.230   8.287  18.031  0.00  0.00    +0.000 A 
ATOM     10  C   UNL     1       1.594   9.534  17.939  0.00  0.00    +0.000 A 
ATOM     11  C   UNL     1       0.959  10.018  19.091  0.00  0.00    +0.000 A 
ATOM     12  N   UNL     1       0.247  11.173  19.377  0.00  0.00    +0.000 N 
ATOM     13  H   UNL     1      -0.722  12.076  22.393  0.00  0.00    +0.000 HD
ENDROOT
BRANCH   1  15
ATOM     14  C   UNL     1      -2.599  12.482  23.283  0.00  0.00    +0.000 C 
ATOM     15  O   UNL     1      -2.705  13.108  21.999  0.00  0.00    +0.000 OA
ENDBRANCH   1  15
BRANCH   8  16
ATOM     16  C   UNL     1       2.900   6.227  19.253  0.00  0.00    +0.000 C 
ATOM     17  O   UNL     1       4.122   6.175  19.150  0.00  0.00    +0.000 OA
BRANCH  16  18
ATOM     18  C   UNL     1       2.127   4.960  19.367  0.00  0.00    +0.000 A 
ATOM     19  C   UNL     1       1.769   4.484  20.634  0.00  0.00    +0.000 A 
ATOM     20  C   UNL     1       1.129   3.250  20.763  0.00  0.00    +0.000 A 
ATOM     21  C   UNL     1       0.843   2.489  19.629  0.00  0.00    +0.000 A 
ATOM     22  C   UNL     1       1.179   2.967  18.364  0.00  0.00    +0.000 A 
ATOM     23  C   UNL     1       1.829   4.193  18.231  0.00  0.00    +0.000 A 
ENDBRANCH  16  18
ENDBRANCH   8  16
BRANCH  12  24
ATOM     24  C   UNL     1       0.106  12.304  18.488  0.00  0.00    +0.000 C 
BRANCH  24  25
ATOM     25  O   UNL     1       0.550  13.464  19.161  0.00  0.00    +0.000 OA
BRANCH  25  26
ATOM     26  P   UNL     1       1.965  14.019  18.686  0.00  0.00    +0.000 P 
ATOM     27  O   UNL     1       2.044  15.474  18.384  0.00  0.00    +0.000 OA
BRANCH  26  28
ATOM     28  O   UNL     1       2.909  13.478  19.852  0.00  0.00    +0.000 OA
ATOM     29  H   UNL     1       3.735  13.993  19.902  0.00  0.00    +0.000 HD
ENDBRANCH  26  28
BRANCH  26  30
ATOM     30  O   UNL     1       2.331  13.039  17.487  0.00  0.00    +0.000 OA
ATOM     31  H   UNL     1       2.673  13.533  16.720  0.00  0.00    +0.000 HD
ENDBRANCH  26  30
ENDBRANCH  25  26
ENDBRANCH  24  25
ENDBRANCH  12  24
TORSDOF 8
ENDMDL
MODEL 8
REMARK VINA RESULT:      -7.5      0.740      1.096
REMARK  Name = 
REMARK  9 active torsions:
REMARK  status: ('A' for Active; 'I' for Inactive)
REMARK    1  A    between atoms: C_1  and  O_2
REMARK    2  A    between atoms: O_2  and  C_3
REMARK    3  A    between atoms: C_10  and  C_11
REMARK    4  A    between atoms: C_11  and  C_13
REMARK    5  A    between atoms: N_22  and  C_23
REMARK    6  A    between atoms: C_23  and  O_24
REMARK    7  A    between atoms: O_24  and  P_25
REMARK    8  A    between atoms: P_25  and  O_27
REMARK    9  A    between atoms: P_25  and  O_28
REMARK                            x       y       z     vdW  Elec       q    Type
REMARK                         _______ _______ _______ _____ _____    ______ ____
ROOT
ATOM      1  C   UNL     1       4.809   4.277  16.551  0.00  0.00    +0.000 C 
ATOM      2  O   UNL     1       3.821   3.629  16.876  0.00  0.00    +0.000 OA
ATOM      3  N   UNL     1       5.124   5.547  16.940  0.00  0.00    +0.000 N 
ATOM      4  C   UNL     1       4.178   6.346  17.538  0.00  0.00    +0.000 A 
ATOM      5  N   UNL     1       3.849   7.532  17.080  0.00  0.00    +0.000 NA
ATOM      6  C   UNL     1       2.889   8.013  17.935  0.00  0.00    +0.000 A 
ATOM      7  C   UNL     1       2.164   9.211  17.865  0.00  0.00    +0.000 A 
ATOM      8  C   UNL     1       1.245   9.509  18.886  0.00  0.00    +0.000 A 
ATOM      9  C   UNL     1       1.095   8.644  19.977  0.00  0.00    +0.000 A 
ATOM     10  C   UNL     1       1.810   7.439  20.055  0.00  0.00    +0.000 A 
ATOM     11  C   UNL     1       2.689   7.144  19.003  0.00  0.00    +0.000 A 
ATOM     12  N   UNL     1       3.539   6.082  18.736  0.00  0.00    +0.000 N 
ATOM     13  H   UNL     1       5.749   6.021  16.296  0.00  0.00    +0.000 HD
ENDROOT
BRANCH   1  15
ATOM     14  C   UNL     1       5.551   4.248  14.317  0.00  0.00    +0.000 C 
ATOM     15  O   UNL     1       5.756   3.838  15.673  0.00  0.00    +0.000 OA
ENDBRANCH   1  15
BRANCH   8  16
ATOM     16  C   UNL     1       0.445  10.764  18.853  0.00  0.00    +0.000 C 
ATOM     17  O   UNL     1       0.947  11.809  19.257  0.00  0.00    +0.000 OA
BRANCH  16  18
ATOM     18  C   UNL     1      -0.966  10.775  18.377  0.00  0.00    +0.000 A 
ATOM     19  C   UNL     1      -1.887  11.642  18.976  0.00  0.00    +0.000 A 
ATOM     20  C   UNL     1      -3.233  11.597  18.607  0.00  0.00    +0.000 A 
ATOM     21  C   UNL     1      -3.663  10.688  17.640  0.00  0.00    +0.000 A 
ATOM     22  C   UNL     1      -2.746   9.836  17.026  0.00  0.00    +0.000 A 
ATOM     23  C   UNL     1      -1.403   9.869  17.399  0.00  0.00    +0.000 A 
ENDBRANCH  16  18
ENDBRANCH   8  16
BRANCH  12  24
ATOM     24  C   UNL     1       3.828   4.998  19.650  0.00  0.00    +0.000 C 
BRANCH  24  25
ATOM     25  O   UNL     1       2.760   4.075  19.604  0.00  0.00    +0.000 OA
BRANCH  25  26
ATOM     26  P   UNL     1       2.314   3.489  21.016  0.00  0.00    +0.000 P 
ATOM     27  O   UNL     1       3.101   2.341  21.541  0.00  0.00    +0.000 OA
BRANCH  26  28
ATOM     28  O   UNL     1       2.303   4.814  21.903  0.00  0.00    +0.000 OA
ATOM     29  H   UNL     1       3.042   4.817  22.538  0.00  0.00    +0.000 HD
ENDBRANCH  26  28
BRANCH  26  30
ATOM     30  O   UNL     1       0.760   3.227  20.800  0.00  0.00    +0.000 OA
ATOM     31  H   UNL     1       0.607   2.400  20.307  0.00  0.00    +0.000 HD
ENDBRANCH  26  30
ENDBRANCH  25  26
ENDBRANCH  24  25
ENDBRANCH  12  24
TORSDOF 8
ENDMDL
MODEL 9
REMARK VINA RESULT:      -7.5      4.066      8.861
REMARK  Name = 
REMARK  9 active torsions:
REMARK  status: ('A' for Active; 'I' for Inactive)
REMARK    1  A    between atoms: C_1  and  O_2
REMARK    2  A    between atoms: O_2  and  C_3
REMARK    3  A    between atoms: C_10  and  C_11
REMARK    4  A    between atoms: C_11  and  C_13
REMARK    5  A    between atoms: N_22  and  C_23
REMARK    6  A    between atoms: C_23  and  O_24
REMARK    7  A    between atoms: O_24  and  P_25
REMARK    8  A    between atoms: P_25  and  O_27
REMARK    9  A    between atoms: P_25  and  O_28
REMARK                            x       y       z     vdW  Elec       q    Type
REMARK                         _______ _______ _______ _____ _____    ______ ____
ROOT
ATOM      1  C   UNL     1      -1.892  12.254  21.107  0.00  0.00    +0.000 C 
ATOM      2  O   UNL     1      -2.398  12.104  20.001  0.00  0.00    +0.000 OA
ATOM      3  N   UNL     1      -0.656  11.837  21.509  0.00  0.00    +0.000 N 
ATOM      4  C   UNL     1       0.051  10.930  20.754  0.00  0.00    +0.000 A 
ATOM      5  N   UNL     1       0.502   9.795  21.238  0.00  0.00    +0.000 NA
ATOM      6  C   UNL     1       1.149   9.173  20.199  0.00  0.00    +0.000 A 
ATOM      7  C   UNL     1       1.758   7.912  20.166  0.00  0.00    +0.000 A 
ATOM      8  C   UNL     1       2.395   7.496  18.985  0.00  0.00    +0.000 A 
ATOM      9  C   UNL     1       2.459   8.351  17.877  0.00  0.00    +0.000 A 
ATOM     10  C   UNL     1       1.848   9.614  17.896  0.00  0.00    +0.000 A 
ATOM     11  C   UNL     1       1.182   9.988  19.071  0.00  0.00    +0.000 A 
ATOM     12  N   UNL     1       0.481  11.121  19.454  0.00  0.00    +0.000 N 
ATOM     13  H   UNL     1      -0.578  11.722  22.514  0.00  0.00    +0.000 HD
ENDROOT
BRANCH   1  15
ATOM     14  C   UNL     1      -1.669  13.192  23.254  0.00  0.00    +0.000 C 
ATOM     15  O   UNL     1      -2.527  12.832  22.167  0.00  0.00    +0.000 OA
ENDBRANCH   1  15
BRANCH   8  16
ATOM     16  C   UNL     1       3.049   6.161  18.896  0.00  0.00    +0.000 C 
ATOM     17  O   UNL     1       4.202   6.082  18.482  0.00  0.00    +0.000 OA
BRANCH  16  18
ATOM     18  C   UNL     1       2.324   4.913  19.262  0.00  0.00    +0.000 A 
ATOM     19  C   UNL     1       1.724   4.146  18.257  0.00  0.00    +0.000 A 
ATOM     20  C   UNL     1       0.960   3.027  18.593  0.00  0.00    +0.000 A 
ATOM     21  C   UNL     1       0.794   2.669  19.931  0.00  0.00    +0.000 A 
ATOM     22  C   UNL     1       1.407   3.418  20.935  0.00  0.00    +0.000 A 
ATOM     23  C   UNL     1       2.161   4.543  20.606  0.00  0.00    +0.000 A 
ENDBRANCH  16  18
ENDBRANCH   8  16
BRANCH  12  24
ATOM     24  C   UNL     1       0.390  12.342  18.685  0.00  0.00    +0.000 C 
BRANCH  24  25
ATOM     25  O   UNL     1       1.184  13.328  19.312  0.00  0.00    +0.000 OA
BRANCH  25  26
ATOM     26  P   UNL     1       0.549  14.789  19.339  0.00  0.00    +0.000 P 
ATOM     27  O   UNL     1       1.353  15.877  18.721  0.00  0.00    +0.000 OA
BRANCH  26  28
ATOM     28  O   UNL     1      -0.884  14.507  18.700  0.00  0.00    +0.000 OA
ATOM     29  H   UNL     1      -1.597  14.710  19.333  0.00  0.00    +0.000 HD
ENDBRANCH  26  28
BRANCH  26  30
ATOM     30  O   UNL     1       0.191  14.975  20.878  0.00  0.00    +0.000 OA
ATOM     31  H   UNL     1      -0.768  15.086  21.005  0.00  0.00    +0.000 HD
ENDBRANCH  26  30
ENDBRANCH  25  26
ENDBRANCH  24  25
ENDBRANCH  12  24
TORSDOF 8
ENDMDL
