MODEL 1
REMARK VINA RESULT:      -8.5      0.000      0.000
REMARK  Name = 
REMARK  7 active torsions:
REMARK  status: ('A' for Active; 'I' for Inactive)
REMARK    1  A    between atoms: C_1  and  C_2
REMARK    2  A    between atoms: C_2  and  N_3
REMARK    3  A    between atoms: N_8  and  C_9
REMARK    4  A    between atoms: C_12  and  N_13
REMARK    5  A    between atoms: C_16  and  O_17
REMARK    6  A    between atoms: O_17  and  C_18
REMARK    7  A    between atoms: C_18  and  C_19
REMARK                            x       y       z     vdW  Elec       q    Type
REMARK                         _______ _______ _______ _____ _____    ______ ____
ROOT
ATOM      1  N   UNL     1       6.153   5.005  17.755  0.00  0.00    +0.000 NA
ATOM      2  C   UNL     1       5.831   6.410  17.376  0.00  0.00    +0.000 C 
ATOM      3  C   UNL     1       4.410   6.656  16.833  0.00  0.00    +0.000 C 
ATOM      4  C   UNL     1       3.404   6.700  17.934  0.00  0.00    +0.000 A 
ATOM      5  C   UNL     1       3.181   5.654  18.807  0.00  0.00    +0.000 A 
ATOM      6  N   UNL     1       2.283   6.073  19.757  0.00  0.00    +0.000 N 
ATOM      7  C   UNL     1       1.773   5.315  20.879  0.00  0.00    +0.000 C 
ATOM      8  C   UNL     1       1.934   7.391  19.513  0.00  0.00    +0.000 A 
ATOM      9  C   UNL     1       1.103   8.266  20.230  0.00  0.00    +0.000 A 
ATOM     10  C   UNL     1       0.887   9.542  19.699  0.00  0.00    +0.000 A 
ATOM     11  C   UNL     1       1.510   9.941  18.512  0.00  0.00    +0.000 A 
ATOM     12  C   UNL     1       2.386   9.085  17.844  0.00  0.00    +0.000 A 
ATOM     13  C   UNL     1       2.589   7.787  18.344  0.00  0.00    +0.000 A 
ATOM     14  C   UNL     1       3.895   4.347  18.762  0.00  0.00    +0.000 C 
ATOM     15  C   UNL     1       5.409   4.550  18.956  0.00  0.00    +0.000 C 
ENDROOT
BRANCH  10  16
ATOM     16  N   UNL     1      -0.031  10.430  20.321  0.00  0.00    +0.000 N 
ATOM     17  C   UNL     1      -1.014  11.019  19.549  0.00  0.00    +0.000 A 
ATOM     18  C   UNL     1      -1.872  11.905  20.057  0.00  0.00    +0.000 A 
ATOM     19  C   UNL     1      -1.789  12.271  21.451  0.00  0.00    +0.000 A 
ATOM     20  C   UNL     1      -0.841  11.734  22.229  0.00  0.00    +0.000 A 
ATOM     21  C   UNL     1       0.110  10.720  21.688  0.00  0.00    +0.000 A 
ATOM     22  O   UNL     1       0.948  10.247  22.449  0.00  0.00    +0.000 OA
BRANCH  19  23
ATOM     23  O   UNL     1      -2.682  13.183  21.975  0.00  0.00    +0.000 OA
BRANCH  23  24
ATOM     24  C   UNL     1      -3.704  12.642  22.819  0.00  0.00    +0.000 C 
BRANCH  24  25
ATOM     25  C   UNL     1      -5.038  13.149  22.366  0.00  0.00    +0.000 A 
ATOM     26  C   UNL     1      -5.769  12.463  21.388  0.00  0.00    +0.000 A 
ATOM     27  C   UNL     1      -7.004  12.956  20.974  0.00  0.00    +0.000 A 
ATOM     28  C   UNL     1      -7.514  14.128  21.536  0.00  0.00    +0.000 A 
ATOM     29  C   UNL     1      -6.793  14.810  22.508  0.00  0.00    +0.000 A 
ATOM     30  C   UNL     1      -5.555  14.326  22.923  0.00  0.00    +0.000 A 
ENDBRANCH  24  25
ENDBRANCH  23  24
ENDBRANCH  19  23
ENDBRANCH  10  16
BRANCH   1  32
ATOM     31  C   UNL     1       8.136   5.750  19.131  0.00  0.00    +0.000 C 
ATOM     32  C   UNL     1       7.613   4.911  17.967  0.00  0.00    +0.000 C 
ENDBRANCH   1  32
TORSDOF 5
ENDMDL
MODEL 2
REMARK VINA RESULT:      -8.5      0.889      1.124
REMARK  Name = 
REMARK  7 active torsions:
REMARK  status: ('A' for Active; 'I' for Inactive)
REMARK    1  A    between atoms: C_1  and  C_2
REMARK    2  A    between atoms: C_2  and  N_3
REMARK    3  A    between atoms: N_8  and  C_9
REMARK    4  A    between atoms: C_12  and  N_13
REMARK    5  A    between atoms: C_16  and  O_17
REMARK    6  A    between atoms: O_17  and  C_18
REMARK    7  A    between atoms: C_18  and  C_19
REMARK                            x       y       z     vdW  Elec       q    Type
REMARK                         _______ _______ _______ _____ _____    ______ ____
ROOT
ATOM      1  N   UNL     1       6.225   4.874  17.779  0.00  0.00    +0.000 NA
ATOM      2  C   UNL     1       5.933   6.264  17.328  0.00  0.00    +0.000 C 
ATOM      3  C   UNL     1       4.526   6.507  16.750  0.00  0.00    +0.000 C 
ATOM      4  C   UNL     1       3.502   6.619  17.829  0.00  0.00    +0.000 A 
ATOM      5  C   UNL     1       3.247   5.619  18.746  0.00  0.00    +0.000 A 
ATOM      6  N   UNL     1       2.340   6.096  19.659  0.00  0.00    +0.000 N 
ATOM      7  C   UNL     1       1.799   5.401  20.807  0.00  0.00    +0.000 C 
ATOM      8  C   UNL     1       2.017   7.407  19.348  0.00  0.00    +0.000 A 
ATOM      9  C   UNL     1       1.189   8.328  20.008  0.00  0.00    +0.000 A 
ATOM     10  C   UNL     1       1.003   9.580  19.414  0.00  0.00    +0.000 A 
ATOM     11  C   UNL     1       1.653   9.914  18.221  0.00  0.00    +0.000 A 
ATOM     12  C   UNL     1       2.526   9.013  17.610  0.00  0.00    +0.000 A 
ATOM     13  C   UNL     1       2.699   7.736  18.173  0.00  0.00    +0.000 A 
ATOM     14  C   UNL     1       3.939   4.300  18.775  0.00  0.00    +0.000 C 
ATOM     15  C   UNL     1       5.453   4.488  18.986  0.00  0.00    +0.000 C 
ENDROOT
BRANCH  10  16
ATOM     16  N   UNL     1       0.090  10.512  19.977  0.00  0.00    +0.000 N 
ATOM     17  C   UNL     1      -0.905  11.038  19.174  0.00  0.00    +0.000 A 
ATOM     18  C   UNL     1      -1.760  11.958  19.623  0.00  0.00    +0.000 A 
ATOM     19  C   UNL     1      -1.661  12.429  20.984  0.00  0.00    +0.000 A 
ATOM     20  C   UNL     1      -0.702  11.956  21.790  0.00  0.00    +0.000 A 
ATOM     21  C   UNL     1       0.246  10.906  21.316  0.00  0.00    +0.000 A 
ATOM     22  O   UNL     1       1.094  10.494  22.101  0.00  0.00    +0.000 OA
BRANCH  19  23
ATOM     23  O   UNL     1      -2.551  13.377  21.448  0.00  0.00    +0.000 OA
BRANCH  23  24
ATOM     24  C   UNL     1      -2.606  13.539  22.868  0.00  0.00    +0.000 C 
BRANCH  24  25
ATOM     25  C   UNL     1      -4.032  13.462  23.319  0.00  0.00    +0.000 A 
ATOM     26  C   UNL     1      -4.449  12.459  24.203  0.00  0.00    +0.000 A 
ATOM     27  C   UNL     1      -5.783  12.400  24.603  0.00  0.00    +0.000 A 
ATOM     28  C   UNL     1      -6.698  13.341  24.128  0.00  0.00    +0.000 A 
ATOM     29  C   UNL     1      -6.288  14.339  23.253  0.00  0.00    +0.000 A 
ATOM     30  C   UNL     1      -4.957  14.401  22.845  0.00  0.00    +0.000 A 
ENDBRANCH  24  25
ENDBRANCH  23  24
ENDBRANCH  19  23
ENDBRANCH  10  16
BRANCH   1  32
ATOM     31  C   UNL     1       8.216   5.733  19.075  0.00  0.00    +0.000 C 
ATOM     32  C   UNL     1       7.680   4.767  18.021  0.00  0.00    +0.000 C 
ENDBRANCH   1  32
TORSDOF 5
ENDMDL
MODEL 3
REMARK VINA RESULT:      -8.3      1.351      1.787
REMARK  Name = 
REMARK  7 active torsions:
REMARK  status: ('A' for Active; 'I' for Inactive)
REMARK    1  A    between atoms: C_1  and  C_2
REMARK    2  A    between atoms: C_2  and  N_3
REMARK    3  A    between atoms: N_8  and  C_9
REMARK    4  A    between atoms: C_12  and  N_13
REMARK    5  A    between atoms: C_16  and  O_17
REMARK    6  A    between atoms: O_17  and  C_18
REMARK    7  A    between atoms: C_18  and  C_19
REMARK                            x       y       z     vdW  Elec       q    Type
REMARK                         _______ _______ _______ _____ _____    ______ ____
ROOT
ATOM      1  N   UNL     1       5.913   5.126  17.902  0.00  0.00    +0.000 NA
ATOM      2  C   UNL     1       5.691   6.509  17.393  0.00  0.00    +0.000 C 
ATOM      3  C   UNL     1       4.287   6.807  16.831  0.00  0.00    +0.000 C 
ATOM      4  C   UNL     1       3.295   7.026  17.923  0.00  0.00    +0.000 A 
ATOM      5  C   UNL     1       3.003   6.084  18.890  0.00  0.00    +0.000 A 
ATOM      6  N   UNL     1       2.145   6.654  19.797  0.00  0.00    +0.000 N 
ATOM      7  C   UNL     1       1.590   6.044  20.985  0.00  0.00    +0.000 C 
ATOM      8  C   UNL     1       1.891   7.966  19.432  0.00  0.00    +0.000 A 
ATOM      9  C   UNL     1       1.130   8.962  20.064  0.00  0.00    +0.000 A 
ATOM     10  C   UNL     1       1.003  10.195  19.416  0.00  0.00    +0.000 A 
ATOM     11  C   UNL     1       1.645  10.436  18.197  0.00  0.00    +0.000 A 
ATOM     12  C   UNL     1       2.452   9.460  17.612  0.00  0.00    +0.000 A 
ATOM     13  C   UNL     1       2.564   8.202  18.231  0.00  0.00    +0.000 A 
ATOM     14  C   UNL     1       3.620   4.731  18.967  0.00  0.00    +0.000 C 
ATOM     15  C   UNL     1       5.147   4.841  19.140  0.00  0.00    +0.000 C 
ENDROOT
BRANCH  10  16
ATOM     16  N   UNL     1       0.157  11.202  19.953  0.00  0.00    +0.000 N 
ATOM     17  C   UNL     1       0.682  12.094  20.870  0.00  0.00    +0.000 A 
ATOM     18  C   UNL     1      -0.070  13.028  21.454  0.00  0.00    +0.000 A 
ATOM     19  C   UNL     1      -1.473  13.128  21.132  0.00  0.00    +0.000 A 
ATOM     20  C   UNL     1      -2.024  12.274  20.260  0.00  0.00    +0.000 A 
ATOM     21  C   UNL     1      -1.195  11.241  19.574  0.00  0.00    +0.000 A 
ATOM     22  O   UNL     1      -1.746  10.495  18.771  0.00  0.00    +0.000 OA
BRANCH  19  23
ATOM     23  O   UNL     1      -2.247  14.100  21.734  0.00  0.00    +0.000 OA
BRANCH  23  24
ATOM     24  C   UNL     1      -2.343  14.027  23.159  0.00  0.00    +0.000 C 
BRANCH  24  25
ATOM     25  C   UNL     1      -3.736  13.631  23.541  0.00  0.00    +0.000 A 
ATOM     26  C   UNL     1      -3.961  12.572  24.428  0.00  0.00    +0.000 A 
ATOM     27  C   UNL     1      -5.266  12.214  24.762  0.00  0.00    +0.000 A 
ATOM     28  C   UNL     1      -6.344  12.913  24.218  0.00  0.00    +0.000 A 
ATOM     29  C   UNL     1      -6.126  13.967  23.340  0.00  0.00    +0.000 A 
ATOM     30  C   UNL     1      -4.824  14.326  22.997  0.00  0.00    +0.000 A 
ENDBRANCH  24  25
ENDBRANCH  23  24
ENDBRANCH  19  23
ENDBRANCH  10  16
BRANCH   1  32
ATOM     31  C   UNL     1       8.023   6.063  18.927  0.00  0.00    +0.000 C 
ATOM     32  C   UNL     1       7.364   4.946  18.122  0.00  0.00    +0.000 C 
ENDBRANCH   1  32
TORSDOF 5
ENDMDL
MODEL 4
REMARK VINA RESULT:      -8.2      1.571      2.299
REMARK  Name = 
REMARK  7 active torsions:
REMARK  status: ('A' for Active; 'I' for Inactive)
REMARK    1  A    between atoms: C_1  and  C_2
REMARK    2  A    between atoms: C_2  and  N_3
REMARK    3  A    between atoms: N_8  and  C_9
REMARK    4  A    between atoms: C_12  and  N_13
REMARK    5  A    between atoms: C_16  and  O_17
REMARK    6  A    between atoms: O_17  and  C_18
REMARK    7  A    between atoms: C_18  and  C_19
REMARK                            x       y       z     vdW  Elec       q    Type
REMARK                         _______ _______ _______ _____ _____    ______ ____
ROOT
ATOM      1  N   UNL     1       6.192   4.884  17.781  0.00  0.00    +0.000 NA
ATOM      2  C   UNL     1       5.897   6.265  17.302  0.00  0.00    +0.000 C 
ATOM      3  C   UNL     1       4.477   6.500  16.751  0.00  0.00    +0.000 C 
ATOM      4  C   UNL     1       3.480   6.645  17.852  0.00  0.00    +0.000 A 
ATOM      5  C   UNL     1       3.242   5.670  18.800  0.00  0.00    +0.000 A 
ATOM      6  N   UNL     1       2.360   6.176  19.723  0.00  0.00    +0.000 N 
ATOM      7  C   UNL     1       1.843   5.513  20.900  0.00  0.00    +0.000 C 
ATOM      8  C   UNL     1       2.037   7.480  19.386  0.00  0.00    +0.000 A 
ATOM      9  C   UNL     1       1.229   8.422  20.042  0.00  0.00    +0.000 A 
ATOM     10  C   UNL     1       1.035   9.660  19.421  0.00  0.00    +0.000 A 
ATOM     11  C   UNL     1       1.658   9.959  18.205  0.00  0.00    +0.000 A 
ATOM     12  C   UNL     1       2.511   9.038  17.596  0.00  0.00    +0.000 A 
ATOM     13  C   UNL     1       2.691   7.776  18.187  0.00  0.00    +0.000 A 
ATOM     14  C   UNL     1       3.929   4.349  18.846  0.00  0.00    +0.000 C 
ATOM     15  C   UNL     1       5.448   4.534  19.015  0.00  0.00    +0.000 C 
ENDROOT
BRANCH  10  16
ATOM     16  N   UNL     1       0.141  10.611  19.982  0.00  0.00    +0.000 N 
ATOM     17  C   UNL     1       0.498  11.249  21.155  0.00  0.00    +0.000 A 
ATOM     18  C   UNL     1      -0.318  12.110  21.765  0.00  0.00    +0.000 A 
ATOM     19  C   UNL     1      -1.614  12.399  21.199  0.00  0.00    +0.000 A 
ATOM     20  C   UNL     1      -2.003  11.791  20.071  0.00  0.00    +0.000 A 
ATOM     21  C   UNL     1      -1.095  10.846  19.358  0.00  0.00    +0.000 A 
ATOM     22  O   UNL     1      -1.496  10.330  18.320  0.00  0.00    +0.000 OA
BRANCH  19  23
ATOM     23  O   UNL     1      -2.453  13.295  21.829  0.00  0.00    +0.000 OA
BRANCH  23  24
ATOM     24  C   UNL     1      -2.629  13.102  23.236  0.00  0.00    +0.000 C 
BRANCH  24  25
ATOM     25  C   UNL     1      -3.178  14.357  23.842  0.00  0.00    +0.000 A 
ATOM     26  C   UNL     1      -2.377  15.166  24.657  0.00  0.00    +0.000 A 
ATOM     27  C   UNL     1      -2.910  16.325  25.218  0.00  0.00    +0.000 A 
ATOM     28  C   UNL     1      -4.236  16.679  24.965  0.00  0.00    +0.000 A 
ATOM     29  C   UNL     1      -5.033  15.880  24.155  0.00  0.00    +0.000 A 
ATOM     30  C   UNL     1      -4.509  14.718  23.595  0.00  0.00    +0.000 A 
ENDBRANCH  24  25
ENDBRANCH  23  24
ENDBRANCH  19  23
ENDBRANCH  10  16
BRANCH   1  32
ATOM     31  C   UNL     1       8.185   5.608  19.153  0.00  0.00    +0.000 C 
ATOM     32  C   UNL     1       7.652   4.775  17.990  0.00  0.00    +0.000 C 
ENDBRANCH   1  32
TORSDOF 5
ENDMDL
MODEL 5
REMARK VINA RESULT:      -8.2      0.999      1.325
REMARK  Name = 
REMARK  7 active torsions:
REMARK  status: ('A' for Active; 'I' for Inactive)
REMARK    1  A    between atoms: C_1  and  C_2
REMARK    2  A    between atoms: C_2  and  N_3
REMARK    3  A    between atoms: N_8  and  C_9
REMARK    4  A    between atoms: C_12  and  N_13
REMARK    5  A    between atoms: C_16  and  O_17
REMARK    6  A    between atoms: O_17  and  C_18
REMARK    7  A    between atoms: C_18  and  C_19
REMARK                            x       y       z     vdW  Elec       q    Type
REMARK                         _______ _______ _______ _____ _____    ______ ____
ROOT
ATOM      1  N   UNL     1       6.141   5.090  17.907  0.00  0.00    +0.000 NA
ATOM      2  C   UNL     1       5.845   6.480  17.457  0.00  0.00    +0.000 C 
ATOM      3  C   UNL     1       4.440   6.717  16.869  0.00  0.00    +0.000 C 
ATOM      4  C   UNL     1       3.408   6.820  17.941  0.00  0.00    +0.000 A 
ATOM      5  C   UNL     1       3.152   5.816  18.854  0.00  0.00    +0.000 A 
ATOM      6  N   UNL     1       2.236   6.286  19.762  0.00  0.00    +0.000 N 
ATOM      7  C   UNL     1       1.690   5.584  20.904  0.00  0.00    +0.000 C 
ATOM      8  C   UNL     1       1.908   7.595  19.452  0.00  0.00    +0.000 A 
ATOM      9  C   UNL     1       1.069   8.510  20.108  0.00  0.00    +0.000 A 
ATOM     10  C   UNL     1       0.880   9.763  19.516  0.00  0.00    +0.000 A 
ATOM     11  C   UNL     1       1.537  10.103  18.329  0.00  0.00    +0.000 A 
ATOM     12  C   UNL     1       2.420   9.209  17.722  0.00  0.00    +0.000 A 
ATOM     13  C   UNL     1       2.595   7.932  18.283  0.00  0.00    +0.000 A 
ATOM     14  C   UNL     1       3.851   4.501  18.885  0.00  0.00    +0.000 C 
ATOM     15  C   UNL     1       5.363   4.697  19.107  0.00  0.00    +0.000 C 
ENDROOT
BRANCH  10  16
ATOM     16  N   UNL     1      -0.042  10.688  20.075  0.00  0.00    +0.000 N 
ATOM     17  C   UNL     1       0.153  11.119  21.374  0.00  0.00    +0.000 A 
ATOM     18  C   UNL     1      -0.705  11.942  21.979  0.00  0.00    +0.000 A 
ATOM     19  C   UNL     1      -1.874  12.410  21.273  0.00  0.00    +0.000 A 
ATOM     20  C   UNL     1      -2.107  12.004  20.018  0.00  0.00    +0.000 A 
ATOM     21  C   UNL     1      -1.146  11.106  19.314  0.00  0.00    +0.000 A 
ATOM     22  O   UNL     1      -1.398  10.778  18.159  0.00  0.00    +0.000 OA
BRANCH  19  23
ATOM     23  O   UNL     1      -2.756  13.267  21.899  0.00  0.00    +0.000 OA
BRANCH  23  24
ATOM     24  C   UNL     1      -3.937  12.664  22.436  0.00  0.00    +0.000 C 
BRANCH  24  25
ATOM     25  C   UNL     1      -5.129  13.139  21.664  0.00  0.00    +0.000 A 
ATOM     26  C   UNL     1      -5.891  12.245  20.903  0.00  0.00    +0.000 A 
ATOM     27  C   UNL     1      -6.991  12.710  20.184  0.00  0.00    +0.000 A 
ATOM     28  C   UNL     1      -7.334  14.062  20.227  0.00  0.00    +0.000 A 
ATOM     29  C   UNL     1      -6.582  14.952  20.983  0.00  0.00    +0.000 A 
ATOM     30  C   UNL     1      -5.478  14.496  21.700  0.00  0.00    +0.000 A 
ENDBRANCH  24  25
ENDBRANCH  23  24
ENDBRANCH  19  23
ENDBRANCH  10  16
BRANCH   1  32
ATOM     31  C   UNL     1       8.119   5.964  19.212  0.00  0.00    +0.000 C 
ATOM     32  C   UNL     1       7.594   4.991  18.159  0.00  0.00    +0.000 C 
ENDBRANCH   1  32
TORSDOF 5
ENDMDL
MODEL 6
REMARK VINA RESULT:      -8.2      1.307      1.936
REMARK  Name = 
REMARK  7 active torsions:
REMARK  status: ('A' for Active; 'I' for Inactive)
REMARK    1  A    between atoms: C_1  and  C_2
REMARK    2  A    between atoms: C_2  and  N_3
REMARK    3  A    between atoms: N_8  and  C_9
REMARK    4  A    between atoms: C_12  and  N_13
REMARK    5  A    between atoms: C_16  and  O_17
REMARK    6  A    between atoms: O_17  and  C_18
REMARK    7  A    between atoms: C_18  and  C_19
REMARK                            x       y       z     vdW  Elec       q    Type
REMARK                         _______ _______ _______ _____ _____    ______ ____
ROOT
ATOM      1  N   UNL     1       6.197   4.968  17.974  0.00  0.00    +0.000 NA
ATOM      2  C   UNL     1       5.893   6.329  17.448  0.00  0.00    +0.000 C 
ATOM      3  C   UNL     1       4.489   6.522  16.841  0.00  0.00    +0.000 C 
ATOM      4  C   UNL     1       3.451   6.675  17.901  0.00  0.00    +0.000 A 
ATOM      5  C   UNL     1       3.197   5.721  18.865  0.00  0.00    +0.000 A 
ATOM      6  N   UNL     1       2.273   6.233  19.742  0.00  0.00    +0.000 N 
ATOM      7  C   UNL     1       1.726   5.591  20.917  0.00  0.00    +0.000 C 
ATOM      8  C   UNL     1       1.937   7.521  19.359  0.00  0.00    +0.000 A 
ATOM      9  C   UNL     1       1.088   8.463  19.960  0.00  0.00    +0.000 A 
ATOM     10  C   UNL     1       0.893   9.681  19.300  0.00  0.00    +0.000 A 
ATOM     11  C   UNL     1       1.554   9.961  18.099  0.00  0.00    +0.000 A 
ATOM     12  C   UNL     1       2.447   9.042  17.546  0.00  0.00    +0.000 A 
ATOM     13  C   UNL     1       2.629   7.799  18.177  0.00  0.00    +0.000 A 
ATOM     14  C   UNL     1       3.906   4.416  18.972  0.00  0.00    +0.000 C 
ATOM     15  C   UNL     1       5.415   4.635  19.190  0.00  0.00    +0.000 C 
ENDROOT
BRANCH  10  16
ATOM     16  N   UNL     1      -0.039  10.628  19.803  0.00  0.00    +0.000 N 
ATOM     17  C   UNL     1      -1.233  10.808  19.131  0.00  0.00    +0.000 A 
ATOM     18  C   UNL     1      -2.128  11.719  19.516  0.00  0.00    +0.000 A 
ATOM     19  C   UNL     1      -1.860  12.549  20.667  0.00  0.00    +0.000 A 
ATOM     20  C   UNL     1      -0.708  12.416  21.336  0.00  0.00    +0.000 A 
ATOM     21  C   UNL     1       0.293  11.384  20.939  0.00  0.00    +0.000 A 
ATOM     22  O   UNL     1       1.324  11.293  21.597  0.00  0.00    +0.000 OA
BRANCH  19  23
ATOM     23  O   UNL     1      -2.791  13.487  21.067  0.00  0.00    +0.000 OA
BRANCH  23  24
ATOM     24  C   UNL     1      -3.602  13.122  22.187  0.00  0.00    +0.000 C 
BRANCH  24  25
ATOM     25  C   UNL     1      -3.593  14.237  23.187  0.00  0.00    +0.000 A 
ATOM     26  C   UNL     1      -4.196  15.465  22.893  0.00  0.00    +0.000 A 
ATOM     27  C   UNL     1      -4.169  16.492  23.835  0.00  0.00    +0.000 A 
ATOM     28  C   UNL     1      -3.546  16.295  25.068  0.00  0.00    +0.000 A 
ATOM     29  C   UNL     1      -2.948  15.077  25.364  0.00  0.00    +0.000 A 
ATOM     30  C   UNL     1      -2.967  14.047  24.426  0.00  0.00    +0.000 A 
ENDBRANCH  24  25
ENDBRANCH  23  24
ENDBRANCH  19  23
ENDBRANCH  10  16
BRANCH   1  32
ATOM     31  C   UNL     1       8.169   5.954  19.206  0.00  0.00    +0.000 C 
ATOM     32  C   UNL     1       7.649   4.893  18.239  0.00  0.00    +0.000 C 
ENDBRANCH   1  32
TORSDOF 5
ENDMDL
MODEL 7
REMARK VINA RESULT:      -8.1      1.879      2.328
REMARK  Name = 
REMARK  7 active torsions:
REMARK  status: ('A' for Active; 'I' for Inactive)
REMARK    1  A    between atoms: C_1  and  C_2
REMARK    2  A    between atoms: C_2  and  N_3
REMARK    3  A    between atoms: N_8  and  C_9
REMARK    4  A    between atoms: C_12  and  N_13
REMARK    5  A    between atoms: C_16  and  O_17
REMARK    6  A    between atoms: O_17  and  C_18
REMARK    7  A    between atoms: C_18  and  C_19
REMARK                            x       y       z     vdW  Elec       q    Type
REMARK                         _______ _______ _______ _____ _____    ______ ____
ROOT
ATOM      1  N   UNL     1       6.193   4.864  17.677  0.00  0.00    +0.000 NA
ATOM      2  C   UNL     1       5.865   6.266  17.293  0.00  0.00    +0.000 C 
ATOM      3  C   UNL     1       4.433   6.510  16.776  0.00  0.00    +0.000 C 
ATOM      4  C   UNL     1       3.449   6.563  17.896  0.00  0.00    +0.000 A 
ATOM      5  C   UNL     1       3.242   5.524  18.781  0.00  0.00    +0.000 A 
ATOM      6  N   UNL     1       2.364   5.951  19.745  0.00  0.00    +0.000 N 
ATOM      7  C   UNL     1       1.875   5.203  20.883  0.00  0.00    +0.000 C 
ATOM      8  C   UNL     1       2.011   7.268  19.499  0.00  0.00    +0.000 A 
ATOM      9  C   UNL     1       1.195   8.149  20.224  0.00  0.00    +0.000 A 
ATOM     10  C   UNL     1       0.969   9.421  19.688  0.00  0.00    +0.000 A 
ATOM     11  C   UNL     1       1.570   9.811  18.487  0.00  0.00    +0.000 A 
ATOM     12  C   UNL     1       2.432   8.949  17.808  0.00  0.00    +0.000 A 
ATOM     13  C   UNL     1       2.644   7.654  18.314  0.00  0.00    +0.000 A 
ATOM     14  C   UNL     1       3.954   4.217  18.732  0.00  0.00    +0.000 C 
ATOM     15  C   UNL     1       5.472   4.419  18.895  0.00  0.00    +0.000 C 
ENDROOT
BRANCH  10  16
ATOM     16  N   UNL     1       0.065  10.316  20.321  0.00  0.00    +0.000 N 
ATOM     17  C   UNL     1      -0.918  10.918  19.559  0.00  0.00    +0.000 A 
ATOM     18  C   UNL     1      -1.764  11.810  20.078  0.00  0.00    +0.000 A 
ATOM     19  C   UNL     1      -1.667  12.167  21.473  0.00  0.00    +0.000 A 
ATOM     20  C   UNL     1      -0.719  11.617  22.242  0.00  0.00    +0.000 A 
ATOM     21  C   UNL     1       0.218  10.597  21.689  0.00  0.00    +0.000 A 
ATOM     22  O   UNL     1       1.057  10.111  22.441  0.00  0.00    +0.000 OA
BRANCH  19  23
ATOM     23  O   UNL     1      -2.548  13.085  22.008  0.00  0.00    +0.000 OA
BRANCH  23  24
ATOM     24  C   UNL     1      -2.465  13.278  23.423  0.00  0.00    +0.000 C 
BRANCH  24  25
ATOM     25  C   UNL     1      -2.500  14.745  23.725  0.00  0.00    +0.000 A 
ATOM     26  C   UNL     1      -2.909  15.206  24.982  0.00  0.00    +0.000 A 
ATOM     27  C   UNL     1      -2.943  16.575  25.238  0.00  0.00    +0.000 A 
ATOM     28  C   UNL     1      -2.566  17.483  24.247  0.00  0.00    +0.000 A 
ATOM     29  C   UNL     1      -2.157  17.029  23.000  0.00  0.00    +0.000 A 
ATOM     30  C   UNL     1      -2.126  15.662  22.734  0.00  0.00    +0.000 A 
ENDBRANCH  24  25
ENDBRANCH  23  24
ENDBRANCH  19  23
ENDBRANCH  10  16
BRANCH   1  32
ATOM     31  C   UNL     1       8.195   5.569  19.045  0.00  0.00    +0.000 C 
ATOM     32  C   UNL     1       7.657   4.770  17.861  0.00  0.00    +0.000 C 
ENDBRANCH   1  32
TORSDOF 5
ENDMDL
MODEL 8
REMARK VINA RESULT:      -8.1      2.795     10.661
REMARK  Name = 
REMARK  7 active torsions:
REMARK  status: ('A' for Active; 'I' for Inactive)
REMARK    1  A    between atoms: C_1  and  C_2
REMARK    2  A    between atoms: C_2  and  N_3
REMARK    3  A    between atoms: N_8  and  C_9
REMARK    4  A    between atoms: C_12  and  N_13
REMARK    5  A    between atoms: C_16  and  O_17
REMARK    6  A    between atoms: O_17  and  C_18
REMARK    7  A    between atoms: C_18  and  C_19
REMARK                            x       y       z     vdW  Elec       q    Type
REMARK                         _______ _______ _______ _____ _____    ______ ____
ROOT
ATOM      1  N   UNL     1      -1.847  15.210  22.763  0.00  0.00    +0.000 NA
ATOM      2  C   UNL     1      -0.991  14.154  23.376  0.00  0.00    +0.000 C 
ATOM      3  C   UNL     1      -1.525  12.712  23.283  0.00  0.00    +0.000 C 
ATOM      4  C   UNL     1      -1.306  12.133  21.926  0.00  0.00    +0.000 A 
ATOM      5  C   UNL     1      -1.819  12.684  20.769  0.00  0.00    +0.000 A 
ATOM      6  N   UNL     1      -1.329  11.972  19.702  0.00  0.00    +0.000 N 
ATOM      7  C   UNL     1      -1.585  12.206  18.297  0.00  0.00    +0.000 C 
ATOM      8  C   UNL     1      -0.489  10.972  20.161  0.00  0.00    +0.000 A 
ATOM      9  C   UNL     1       0.284  10.032  19.461  0.00  0.00    +0.000 A 
ATOM     10  C   UNL     1       0.999   9.089  20.207  0.00  0.00    +0.000 A 
ATOM     11  C   UNL     1       0.972   9.109  21.606  0.00  0.00    +0.000 A 
ATOM     12  C   UNL     1       0.252  10.090  22.290  0.00  0.00    +0.000 A 
ATOM     13  C   UNL     1      -0.500  11.025  21.557  0.00  0.00    +0.000 A 
ATOM     14  C   UNL     1      -2.664  13.909  20.717  0.00  0.00    +0.000 C 
ATOM     15  C   UNL     1      -1.898  15.119  21.283  0.00  0.00    +0.000 C 
ENDROOT
BRANCH  10  16
ATOM     16  N   UNL     1       1.709   8.046  19.554  0.00  0.00    +0.000 N 
ATOM     17  C   UNL     1       1.961   6.877  20.246  0.00  0.00    +0.000 A 
ATOM     18  C   UNL     1       2.670   5.881  19.712  0.00  0.00    +0.000 A 
ATOM     19  C   UNL     1       3.196   6.008  18.374  0.00  0.00    +0.000 A 
ATOM     20  C   UNL     1       2.986   7.131  17.675  0.00  0.00    +0.000 A 
ATOM     21  C   UNL     1       2.172   8.245  18.243  0.00  0.00    +0.000 A 
ATOM     22  O   UNL     1       1.996   9.244  17.553  0.00  0.00    +0.000 OA
BRANCH  19  23
ATOM     23  O   UNL     1       3.923   4.974  17.822  0.00  0.00    +0.000 OA
BRANCH  23  24
ATOM     24  C   UNL     1       4.881   5.346  16.826  0.00  0.00    +0.000 C 
BRANCH  24  25
ATOM     25  C   UNL     1       6.077   5.953  17.494  0.00  0.00    +0.000 A 
ATOM     26  C   UNL     1       6.569   7.198  17.083  0.00  0.00    +0.000 A 
ATOM     27  C   UNL     1       7.688   7.740  17.712  0.00  0.00    +0.000 A 
ATOM     28  C   UNL     1       8.313   7.047  18.750  0.00  0.00    +0.000 A 
ATOM     29  C   UNL     1       7.826   5.813  19.162  0.00  0.00    +0.000 A 
ATOM     30  C   UNL     1       6.711   5.262  18.535  0.00  0.00    +0.000 A 
ENDBRANCH  24  25
ENDBRANCH  23  24
ENDBRANCH  19  23
ENDBRANCH  10  16
BRANCH   1  32
ATOM     31  C   UNL     1      -0.189  17.069  22.345  0.00  0.00    +0.000 C 
ATOM     32  C   UNL     1      -1.333  16.526  23.198  0.00  0.00    +0.000 C 
ENDBRANCH   1  32
TORSDOF 5
ENDMDL
MODEL 9
REMARK VINA RESULT:      -8.0      3.057     11.074
REMARK  Name = 
REMARK  7 active torsions:
REMARK  status: ('A' for Active; 'I' for Inactive)
REMARK    1  A    between atoms: C_1  and  C_2
REMARK    2  A    between atoms: C_2  and  N_3
REMARK    3  A    between atoms: N_8  and  C_9
REMARK    4  A    between atoms: C_12  and  N_13
REMARK    5  A    between atoms: C_16  and  O_17
REMARK    6  A    between atoms: O_17  and  C_18
REMARK    7  A    between atoms: C_18  and  C_19
REMARK                            x       y       z     vdW  Elec       q    Type
REMARK                         _______ _______ _______ _____ _____    ______ ____
ROOT
ATOM      1  N   UNL     1      -2.719  13.136  21.272  0.00  0.00    +0.000 NA
ATOM      2  C   UNL     1      -2.182  12.878  19.906  0.00  0.00    +0.000 C 
ATOM      3  C   UNL     1      -0.649  12.926  19.761  0.00  0.00    +0.000 C 
ATOM      4  C   UNL     1      -0.011  11.678  20.272  0.00  0.00    +0.000 A 
ATOM      5  C   UNL     1      -0.144  11.229  21.571  0.00  0.00    +0.000 A 
ATOM      6  N   UNL     1       0.467  10.003  21.664  0.00  0.00    +0.000 N 
ATOM      7  C   UNL     1       0.558   9.153  22.832  0.00  0.00    +0.000 C 
ATOM      8  C   UNL     1       0.982   9.648  20.429  0.00  0.00    +0.000 A 
ATOM      9  C   UNL     1       1.637   8.479  20.011  0.00  0.00    +0.000 A 
ATOM     10  C   UNL     1       2.107   8.429  18.694  0.00  0.00    +0.000 A 
ATOM     11  C   UNL     1       1.896   9.497  17.815  0.00  0.00    +0.000 A 
ATOM     12  C   UNL     1       1.186  10.626  18.224  0.00  0.00    +0.000 A 
ATOM     13  C   UNL     1       0.736  10.709  19.553  0.00  0.00    +0.000 A 
ATOM     14  C   UNL     1      -0.921  11.927  22.632  0.00  0.00    +0.000 C 
ATOM     15  C   UNL     1      -2.402  12.047  22.229  0.00  0.00    +0.000 C 
ENDROOT
BRANCH  10  16
ATOM     16  N   UNL     1       2.873   7.319  18.248  0.00  0.00    +0.000 N 
ATOM     17  C   UNL     1       3.882   7.533  17.329  0.00  0.00    +0.000 A 
ATOM     18  C   UNL     1       4.602   6.529  16.826  0.00  0.00    +0.000 A 
ATOM     19  C   UNL     1       4.336   5.173  17.244  0.00  0.00    +0.000 A 
ATOM     20  C   UNL     1       3.357   4.922  18.122  0.00  0.00    +0.000 A 
ATOM     21  C   UNL     1       2.559   6.033  18.717  0.00  0.00    +0.000 A 
ATOM     22  O   UNL     1       1.685   5.749  19.530  0.00  0.00    +0.000 OA
BRANCH  19  23
ATOM     23  O   UNL     1       5.087   4.136  16.727  0.00  0.00    +0.000 OA
BRANCH  23  24
ATOM     24  C   UNL     1       6.434   4.459  16.372  0.00  0.00    +0.000 C 
BRANCH  24  25
ATOM     25  C   UNL     1       6.585   4.383  14.884  0.00  0.00    +0.000 A 
ATOM     26  C   UNL     1       5.754   3.551  14.123  0.00  0.00    +0.000 A 
ATOM     27  C   UNL     1       5.917   3.488  12.741  0.00  0.00    +0.000 A 
ATOM     28  C   UNL     1       6.901   4.256  12.116  0.00  0.00    +0.000 A 
ATOM     29  C   UNL     1       7.726   5.084  12.867  0.00  0.00    +0.000 A 
ATOM     30  C   UNL     1       7.572   5.148  14.250  0.00  0.00    +0.000 A 
ENDBRANCH  24  25
ENDBRANCH  23  24
ENDBRANCH  19  23
ENDBRANCH  10  16
BRANCH   1  32
ATOM     31  C   UNL     1      -4.885  12.334  20.251  0.00  0.00    +0.000 C 
ATOM     32  C   UNL     1      -4.180  13.337  21.160  0.00  0.00    +0.000 C 
ENDBRANCH   1  32
TORSDOF 5
ENDMDL
