MODEL 1
REMARK VINA RESULT:      -7.4      0.000      0.000
REMARK  Name = 
REMARK  5 active torsions:
REMARK  status: ('A' for Active; 'I' for Inactive)
REMARK    1  A    between atoms: S_2  and  C_4
REMARK    2  A    between atoms: S_2  and  N_11
REMARK    3  A    between atoms: C_4  and  C_5
REMARK    4  A    between atoms: N_11  and  C_12
REMARK    5  A    between atoms: C_12  and  C_13
REMARK                            x       y       z     vdW  Elec       q    Type
REMARK                         _______ _______ _______ _____ _____    ______ ____
ROOT
ATOM      1  O   UNL     1       7.099   5.664  19.145  0.00  0.00    +0.000 OA
ATOM      2  S   UNL     1       6.011   4.822  18.694  0.00  0.00    +0.000 S 
ATOM      3  O   UNL     1       5.607   3.641  19.430  0.00  0.00    +0.000 OA
ENDROOT
BRANCH   2   4
ATOM      4  N   UNL     1       6.423   4.305  17.139  0.00  0.00    +0.000 NA
ATOM      5  H   UNL     1       5.674   3.835  16.623  0.00  0.00    +0.000 HD
BRANCH   4   6
ATOM      6  C   UNL     1       7.010   5.348  16.263  0.00  0.00    +0.000 C 
BRANCH   6   7
ATOM      7  C   UNL     1       7.000   4.882  14.819  0.00  0.00    +0.000 A 
ATOM      8  C   UNL     1       6.128   3.882  14.400  0.00  0.00    +0.000 A 
ATOM      9  C   UNL     1       6.127   3.513  13.057  0.00  0.00    +0.000 A 
ATOM     10  C   UNL     1       6.997   4.143  12.175  0.00  0.00    +0.000 A 
ATOM     11  C   UNL     1       7.840   5.121  12.674  0.00  0.00    +0.000 A 
ATOM     12  N   UNL     1       7.862   5.508  13.970  0.00  0.00    +0.000 NA
ENDBRANCH   6   7
ENDBRANCH   4   6
ENDBRANCH   2   4
BRANCH   2  13
ATOM     13  C   UNL     1       4.571   5.840  18.334  0.00  0.00    +0.000 C 
BRANCH  13  14
ATOM     14  C   UNL     1       3.314   5.175  18.832  0.00  0.00    +0.000 A 
ATOM     15  C   UNL     1       2.593   4.312  17.992  0.00  0.00    +0.000 A 
ATOM     16  C   UNL     1       1.445   3.666  18.452  0.00  0.00    +0.000 A 
ATOM     17  C   UNL     1       1.002   3.874  19.754  0.00  0.00    +0.000 A 
ATOM     18  C   UNL     1       1.706   4.731  20.598  0.00  0.00    +0.000 A 
ATOM     19  C   UNL     1       2.856   5.382  20.141  0.00  0.00    +0.000 A 
ENDBRANCH  13  14
ENDBRANCH   2  13
TORSDOF 5
ENDMDL
MODEL 2
REMARK VINA RESULT:      -7.1      1.441      1.617
REMARK  Name = 
REMARK  5 active torsions:
REMARK  status: ('A' for Active; 'I' for Inactive)
REMARK    1  A    between atoms: S_2  and  C_4
REMARK    2  A    between atoms: S_2  and  N_11
REMARK    3  A    between atoms: C_4  and  C_5
REMARK    4  A    between atoms: N_11  and  C_12
REMARK    5  A    between atoms: C_12  and  C_13
REMARK                            x       y       z     vdW  Elec       q    Type
REMARK                         _______ _______ _______ _____ _____    ______ ____
ROOT
ATOM      1  O   UNL     1       3.903   6.122  18.528  0.00  0.00    +0.000 OA
ATOM      2  S   UNL     1       4.912   5.144  18.177  0.00  0.00    +0.000 S 
ATOM      3  O   UNL     1       6.161   5.043  18.907  0.00  0.00    +0.000 OA
ENDROOT
BRANCH   2   4
ATOM      4  N   UNL     1       5.318   5.437  16.564  0.00  0.00    +0.000 NA
ATOM      5  H   UNL     1       5.071   6.366  16.212  0.00  0.00    +0.000 HD
BRANCH   4   6
ATOM      6  C   UNL     1       6.734   5.166  16.212  0.00  0.00    +0.000 C 
BRANCH   6   7
ATOM      7  C   UNL     1       6.844   4.797  14.744  0.00  0.00    +0.000 A 
ATOM      8  C   UNL     1       5.990   3.853  14.182  0.00  0.00    +0.000 A 
ATOM      9  C   UNL     1       6.102   3.574  12.821  0.00  0.00    +0.000 A 
ATOM     10  C   UNL     1       7.063   4.235  12.066  0.00  0.00    +0.000 A 
ATOM     11  C   UNL     1       7.880   5.152  12.704  0.00  0.00    +0.000 A 
ATOM     12  N   UNL     1       7.794   5.452  14.019  0.00  0.00    +0.000 NA
ENDBRANCH   6   7
ENDBRANCH   4   6
ENDBRANCH   2   4
BRANCH   2  13
ATOM     13  C   UNL     1       4.153   3.518  18.038  0.00  0.00    +0.000 C 
BRANCH  13  14
ATOM     14  C   UNL     1       3.136   3.313  19.131  0.00  0.00    +0.000 A 
ATOM     15  C   UNL     1       1.770   3.500  18.867  0.00  0.00    +0.000 A 
ATOM     16  C   UNL     1       0.816   3.284  19.863  0.00  0.00    +0.000 A 
ATOM     17  C   UNL     1       1.215   2.881  21.133  0.00  0.00    +0.000 A 
ATOM     18  C   UNL     1       2.568   2.696  21.411  0.00  0.00    +0.000 A 
ATOM     19  C   UNL     1       3.526   2.913  20.417  0.00  0.00    +0.000 A 
ENDBRANCH  13  14
ENDBRANCH   2  13
TORSDOF 5
ENDMDL
MODEL 3
REMARK VINA RESULT:      -7.1      1.922      6.401
REMARK  Name = 
REMARK  5 active torsions:
REMARK  status: ('A' for Active; 'I' for Inactive)
REMARK    1  A    between atoms: S_2  and  C_4
REMARK    2  A    between atoms: S_2  and  N_11
REMARK    3  A    between atoms: C_4  and  C_5
REMARK    4  A    between atoms: N_11  and  C_12
REMARK    5  A    between atoms: C_12  and  C_13
REMARK                            x       y       z     vdW  Elec       q    Type
REMARK                         _______ _______ _______ _____ _____    ______ ____
ROOT
ATOM      1  O   UNL     1       8.022   4.227  16.836  0.00  0.00    +0.000 OA
ATOM      2  S   UNL     1       6.778   4.895  17.156  0.00  0.00    +0.000 S 
ATOM      3  O   UNL     1       6.738   6.298  17.517  0.00  0.00    +0.000 OA
ENDROOT
BRANCH   2   4
ATOM      4  N   UNL     1       6.098   4.044  18.447  0.00  0.00    +0.000 NA
ATOM      5  H   UNL     1       6.769   3.653  19.114  0.00  0.00    +0.000 HD
BRANCH   4   6
ATOM      6  C   UNL     1       5.059   4.780  19.208  0.00  0.00    +0.000 C 
BRANCH   6   7
ATOM      7  C   UNL     1       3.700   4.146  18.980  0.00  0.00    +0.000 A 
ATOM      8  C   UNL     1       2.728   4.796  18.226  0.00  0.00    +0.000 A 
ATOM      9  C   UNL     1       1.509   4.158  18.010  0.00  0.00    +0.000 A 
ATOM     10  C   UNL     1       1.291   2.899  18.557  0.00  0.00    +0.000 A 
ATOM     11  C   UNL     1       2.305   2.325  19.304  0.00  0.00    +0.000 A 
ATOM     12  N   UNL     1       3.502   2.913  19.527  0.00  0.00    +0.000 NA
ENDBRANCH   6   7
ENDBRANCH   4   6
ENDBRANCH   2   4
BRANCH   2  13
ATOM     13  C   UNL     1       5.567   4.562  15.866  0.00  0.00    +0.000 C 
BRANCH  13  14
ATOM     14  C   UNL     1       6.237   4.488  14.517  0.00  0.00    +0.000 A 
ATOM     15  C   UNL     1       5.823   3.532  13.577  0.00  0.00    +0.000 A 
ATOM     16  C   UNL     1       6.414   3.473  12.314  0.00  0.00    +0.000 A 
ATOM     17  C   UNL     1       7.425   4.367  11.976  0.00  0.00    +0.000 A 
ATOM     18  C   UNL     1       7.848   5.319  12.902  0.00  0.00    +0.000 A 
ATOM     19  C   UNL     1       7.260   5.379  14.168  0.00  0.00    +0.000 A 
ENDBRANCH  13  14
ENDBRANCH   2  13
TORSDOF 5
ENDMDL
MODEL 4
REMARK VINA RESULT:      -7.0      1.511      1.770
REMARK  Name = 
REMARK  5 active torsions:
REMARK  status: ('A' for Active; 'I' for Inactive)
REMARK    1  A    between atoms: S_2  and  C_4
REMARK    2  A    between atoms: S_2  and  N_11
REMARK    3  A    between atoms: C_4  and  C_5
REMARK    4  A    between atoms: N_11  and  C_12
REMARK    5  A    between atoms: C_12  and  C_13
REMARK                            x       y       z     vdW  Elec       q    Type
REMARK                         _______ _______ _______ _____ _____    ______ ____
ROOT
ATOM      1  O   UNL     1       3.488   4.298  16.909  0.00  0.00    +0.000 OA
ATOM      2  S   UNL     1       4.604   5.116  17.338  0.00  0.00    +0.000 S 
ATOM      3  O   UNL     1       4.815   6.450  16.814  0.00  0.00    +0.000 OA
ENDROOT
BRANCH   2   4
ATOM      4  N   UNL     1       6.002   4.234  16.992  0.00  0.00    +0.000 NA
ATOM      5  H   UNL     1       5.854   3.368  16.466  0.00  0.00    +0.000 HD
BRANCH   4   6
ATOM      6  C   UNL     1       7.084   5.003  16.329  0.00  0.00    +0.000 C 
BRANCH   6   7
ATOM      7  C   UNL     1       7.079   4.728  14.837  0.00  0.00    +0.000 A 
ATOM      8  C   UNL     1       6.210   3.789  14.289  0.00  0.00    +0.000 A 
ATOM      9  C   UNL     1       6.214   3.598  12.909  0.00  0.00    +0.000 A 
ATOM     10  C   UNL     1       7.086   4.338  12.120  0.00  0.00    +0.000 A 
ATOM     11  C   UNL     1       7.926   5.244  12.744  0.00  0.00    +0.000 A 
ATOM     12  N   UNL     1       7.943   5.460  14.079  0.00  0.00    +0.000 NA
ENDBRANCH   6   7
ENDBRANCH   4   6
ENDBRANCH   2   4
BRANCH   2  13
ATOM     13  C   UNL     1       4.670   5.148  19.137  0.00  0.00    +0.000 C 
BRANCH  13  14
ATOM     14  C   UNL     1       3.438   4.507  19.724  0.00  0.00    +0.000 A 
ATOM     15  C   UNL     1       3.403   3.121  19.943  0.00  0.00    +0.000 A 
ATOM     16  C   UNL     1       2.281   2.519  20.514  0.00  0.00    +0.000 A 
ATOM     17  C   UNL     1       1.181   3.293  20.871  0.00  0.00    +0.000 A 
ATOM     18  C   UNL     1       1.201   4.670  20.655  0.00  0.00    +0.000 A 
ATOM     19  C   UNL     1       2.323   5.276  20.082  0.00  0.00    +0.000 A 
ENDBRANCH  13  14
ENDBRANCH   2  13
TORSDOF 5
ENDMDL
MODEL 5
REMARK VINA RESULT:      -6.9      1.701      2.206
REMARK  Name = 
REMARK  5 active torsions:
REMARK  status: ('A' for Active; 'I' for Inactive)
REMARK    1  A    between atoms: S_2  and  C_4
REMARK    2  A    between atoms: S_2  and  N_11
REMARK    3  A    between atoms: C_4  and  C_5
REMARK    4  A    between atoms: N_11  and  C_12
REMARK    5  A    between atoms: C_12  and  C_13
REMARK                            x       y       z     vdW  Elec       q    Type
REMARK                         _______ _______ _______ _____ _____    ______ ____
ROOT
ATOM      1  O   UNL     1       3.551   4.835  17.249  0.00  0.00    +0.000 OA
ATOM      2  S   UNL     1       4.632   4.001  17.730  0.00  0.00    +0.000 S 
ATOM      3  O   UNL     1       5.584   4.481  18.712  0.00  0.00    +0.000 OA
ENDROOT
BRANCH   2   4
ATOM      4  N   UNL     1       5.527   3.550  16.370  0.00  0.00    +0.000 NA
ATOM      5  H   UNL     1       4.985   3.430  15.510  0.00  0.00    +0.000 HD
BRANCH   4   6
ATOM      6  C   UNL     1       6.693   4.416  16.068  0.00  0.00    +0.000 C 
BRANCH   6   7
ATOM      7  C   UNL     1       6.929   4.468  14.570  0.00  0.00    +0.000 A 
ATOM      8  C   UNL     1       6.202   3.654  13.706  0.00  0.00    +0.000 A 
ATOM      9  C   UNL     1       6.424   3.765  12.336  0.00  0.00    +0.000 A 
ATOM     10  C   UNL     1       7.366   4.673  11.868  0.00  0.00    +0.000 A 
ATOM     11  C   UNL     1       8.054   5.438  12.794  0.00  0.00    +0.000 A 
ATOM     12  N   UNL     1       7.859   5.362  14.129  0.00  0.00    +0.000 NA
ENDBRANCH   6   7
ENDBRANCH   4   6
ENDBRANCH   2   4
BRANCH   2  13
ATOM     13  C   UNL     1       3.979   2.404  18.242  0.00  0.00    +0.000 C 
BRANCH  13  14
ATOM     14  C   UNL     1       2.982   2.572  19.360  0.00  0.00    +0.000 A 
ATOM     15  C   UNL     1       3.418   2.595  20.693  0.00  0.00    +0.000 A 
ATOM     16  C   UNL     1       2.509   2.781  21.736  0.00  0.00    +0.000 A 
ATOM     17  C   UNL     1       1.155   2.946  21.459  0.00  0.00    +0.000 A 
ATOM     18  C   UNL     1       0.708   2.921  20.139  0.00  0.00    +0.000 A 
ATOM     19  C   UNL     1       1.616   2.732  19.093  0.00  0.00    +0.000 A 
ENDBRANCH  13  14
ENDBRANCH   2  13
TORSDOF 5
ENDMDL
MODEL 6
REMARK VINA RESULT:      -6.9      1.351      1.813
REMARK  Name = 
REMARK  5 active torsions:
REMARK  status: ('A' for Active; 'I' for Inactive)
REMARK    1  A    between atoms: S_2  and  C_4
REMARK    2  A    between atoms: S_2  and  N_11
REMARK    3  A    between atoms: C_4  and  C_5
REMARK    4  A    between atoms: N_11  and  C_12
REMARK    5  A    between atoms: C_12  and  C_13
REMARK                            x       y       z     vdW  Elec       q    Type
REMARK                         _______ _______ _______ _____ _____    ______ ____
ROOT
ATOM      1  O   UNL     1       4.263   5.852  19.581  0.00  0.00    +0.000 OA
ATOM      2  S   UNL     1       5.352   5.097  18.997  0.00  0.00    +0.000 S 
ATOM      3  O   UNL     1       6.697   5.163  19.533  0.00  0.00    +0.000 OA
ENDROOT
BRANCH   2   4
ATOM      4  N   UNL     1       5.452   5.576  17.380  0.00  0.00    +0.000 NA
ATOM      5  H   UNL     1       5.029   6.483  17.167  0.00  0.00    +0.000 HD
BRANCH   4   6
ATOM      6  C   UNL     1       6.817   5.549  16.799  0.00  0.00    +0.000 C 
BRANCH   6   7
ATOM      7  C   UNL     1       6.766   5.016  15.379  0.00  0.00    +0.000 A 
ATOM      8  C   UNL     1       5.749   4.157  14.976  0.00  0.00    +0.000 A 
ATOM      9  C   UNL     1       5.721   3.724  13.652  0.00  0.00    +0.000 A 
ATOM     10  C   UNL     1       6.709   4.153  12.774  0.00  0.00    +0.000 A 
ATOM     11  C   UNL     1       7.692   4.999  13.256  0.00  0.00    +0.000 A 
ATOM     12  N   UNL     1       7.745   5.444  14.532  0.00  0.00    +0.000 NA
ENDBRANCH   6   7
ENDBRANCH   4   6
ENDBRANCH   2   4
BRANCH   2  13
ATOM     13  C   UNL     1       4.857   3.377  18.803  0.00  0.00    +0.000 C 
BRANCH  13  14
ATOM     14  C   UNL     1       3.398   3.205  19.139  0.00  0.00    +0.000 A 
ATOM     15  C   UNL     1       3.009   2.910  20.455  0.00  0.00    +0.000 A 
ATOM     16  C   UNL     1       1.660   2.779  20.786  0.00  0.00    +0.000 A 
ATOM     17  C   UNL     1       0.684   2.938  19.807  0.00  0.00    +0.000 A 
ATOM     18  C   UNL     1       1.056   3.227  18.495  0.00  0.00    +0.000 A 
ATOM     19  C   UNL     1       2.407   3.357  18.160  0.00  0.00    +0.000 A 
ENDBRANCH  13  14
ENDBRANCH   2  13
TORSDOF 5
ENDMDL
MODEL 7
REMARK VINA RESULT:      -6.8      1.036      1.380
REMARK  Name = 
REMARK  5 active torsions:
REMARK  status: ('A' for Active; 'I' for Inactive)
REMARK    1  A    between atoms: S_2  and  C_4
REMARK    2  A    between atoms: S_2  and  N_11
REMARK    3  A    between atoms: C_4  and  C_5
REMARK    4  A    between atoms: N_11  and  C_12
REMARK    5  A    between atoms: C_12  and  C_13
REMARK                            x       y       z     vdW  Elec       q    Type
REMARK                         _______ _______ _______ _____ _____    ______ ____
ROOT
ATOM      1  O   UNL     1       6.384   5.657  19.113  0.00  0.00    +0.000 OA
ATOM      2  S   UNL     1       5.558   4.598  18.570  0.00  0.00    +0.000 S 
ATOM      3  O   UNL     1       5.326   3.365  19.295  0.00  0.00    +0.000 OA
ENDROOT
BRANCH   2   4
ATOM      4  N   UNL     1       6.249   4.166  17.091  0.00  0.00    +0.000 NA
ATOM      5  H   UNL     1       6.865   3.349  17.118  0.00  0.00    +0.000 HD
BRANCH   4   6
ATOM      6  C   UNL     1       5.288   3.989  15.974  0.00  0.00    +0.000 C 
BRANCH   6   7
ATOM      7  C   UNL     1       5.998   4.165  14.645  0.00  0.00    +0.000 A 
ATOM      8  C   UNL     1       7.107   4.998  14.533  0.00  0.00    +0.000 A 
ATOM      9  C   UNL     1       7.749   5.098  13.301  0.00  0.00    +0.000 A 
ATOM     10  C   UNL     1       7.265   4.374  12.219  0.00  0.00    +0.000 A 
ATOM     11  C   UNL     1       6.150   3.576  12.410  0.00  0.00    +0.000 A 
ATOM     12  N   UNL     1       5.507   3.451  13.593  0.00  0.00    +0.000 NA
ENDBRANCH   6   7
ENDBRANCH   4   6
ENDBRANCH   2   4
BRANCH   2  13
ATOM     13  C   UNL     1       3.989   5.284  18.015  0.00  0.00    +0.000 C 
BRANCH  13  14
ATOM     14  C   UNL     1       2.837   4.597  18.702  0.00  0.00    +0.000 A 
ATOM     15  C   UNL     1       2.166   3.541  18.066  0.00  0.00    +0.000 A 
ATOM     16  C   UNL     1       1.118   2.877  18.705  0.00  0.00    +0.000 A 
ATOM     17  C   UNL     1       0.728   3.259  19.985  0.00  0.00    +0.000 A 
ATOM     18  C   UNL     1       1.383   4.309  20.626  0.00  0.00    +0.000 A 
ATOM     19  C   UNL     1       2.431   4.978  19.989  0.00  0.00    +0.000 A 
ENDBRANCH  13  14
ENDBRANCH   2  13
TORSDOF 5
ENDMDL
MODEL 8
REMARK VINA RESULT:      -6.8      1.797      6.684
REMARK  Name = 
REMARK  5 active torsions:
REMARK  status: ('A' for Active; 'I' for Inactive)
REMARK    1  A    between atoms: S_2  and  C_4
REMARK    2  A    between atoms: S_2  and  N_11
REMARK    3  A    between atoms: C_4  and  C_5
REMARK    4  A    between atoms: N_11  and  C_12
REMARK    5  A    between atoms: C_12  and  C_13
REMARK                            x       y       z     vdW  Elec       q    Type
REMARK                         _______ _______ _______ _____ _____    ______ ____
ROOT
ATOM      1  O   UNL     1       7.922   4.172  16.911  0.00  0.00    +0.000 OA
ATOM      2  S   UNL     1       6.607   4.765  17.031  0.00  0.00    +0.000 S 
ATOM      3  O   UNL     1       6.425   6.200  17.127  0.00  0.00    +0.000 OA
ENDROOT
BRANCH   2   4
ATOM      4  N   UNL     1       5.906   4.096  18.414  0.00  0.00    +0.000 NA
ATOM      5  H   UNL     1       6.552   3.607  19.039  0.00  0.00    +0.000 HD
BRANCH   4   6
ATOM      6  C   UNL     1       5.092   5.034  19.225  0.00  0.00    +0.000 C 
BRANCH   6   7
ATOM      7  C   UNL     1       3.658   4.547  19.302  0.00  0.00    +0.000 A 
ATOM      8  C   UNL     1       3.070   3.889  18.226  0.00  0.00    +0.000 A 
ATOM      9  C   UNL     1       1.763   3.425  18.356  0.00  0.00    +0.000 A 
ATOM     10  C   UNL     1       1.079   3.637  19.547  0.00  0.00    +0.000 A 
ATOM     11  C   UNL     1       1.731   4.310  20.565  0.00  0.00    +0.000 A 
ATOM     12  N   UNL     1       3.000   4.767  20.475  0.00  0.00    +0.000 NA
ENDBRANCH   6   7
ENDBRANCH   4   6
ENDBRANCH   2   4
BRANCH   2  13
ATOM     13  C   UNL     1       5.526   4.097  15.755  0.00  0.00    +0.000 C 
BRANCH  13  14
ATOM     14  C   UNL     1       6.169   4.224  14.397  0.00  0.00    +0.000 A 
ATOM     15  C   UNL     1       7.195   5.158  14.188  0.00  0.00    +0.000 A 
ATOM     16  C   UNL     1       7.819   5.265  12.944  0.00  0.00    +0.000 A 
ATOM     17  C   UNL     1       7.424   4.440  11.895  0.00  0.00    +0.000 A 
ATOM     18  C   UNL     1       6.404   3.511  12.087  0.00  0.00    +0.000 A 
ATOM     19  C   UNL     1       5.775   3.404  13.331  0.00  0.00    +0.000 A 
ENDBRANCH  13  14
ENDBRANCH   2  13
TORSDOF 5
ENDMDL
MODEL 9
REMARK VINA RESULT:      -6.7      2.109      6.335
REMARK  Name = 
REMARK  5 active torsions:
REMARK  status: ('A' for Active; 'I' for Inactive)
REMARK    1  A    between atoms: S_2  and  C_4
REMARK    2  A    between atoms: S_2  and  N_11
REMARK    3  A    between atoms: C_4  and  C_5
REMARK    4  A    between atoms: N_11  and  C_12
REMARK    5  A    between atoms: C_12  and  C_13
REMARK                            x       y       z     vdW  Elec       q    Type
REMARK                         _______ _______ _______ _____ _____    ______ ____
ROOT
ATOM      1  O   UNL     1       7.568   6.624  16.617  0.00  0.00    +0.000 OA
ATOM      2  S   UNL     1       6.227   6.094  16.483  0.00  0.00    +0.000 S 
ATOM      3  O   UNL     1       5.198   6.803  15.750  0.00  0.00    +0.000 OA
ENDROOT
BRANCH   2   4
ATOM      4  N   UNL     1       5.640   5.879  18.052  0.00  0.00    +0.000 NA
ATOM      5  H   UNL     1       6.150   6.383  18.782  0.00  0.00    +0.000 HD
BRANCH   4   6
ATOM      6  C   UNL     1       4.191   6.146  18.225  0.00  0.00    +0.000 C 
BRANCH   6   7
ATOM      7  C   UNL     1       3.429   4.838  18.317  0.00  0.00    +0.000 A 
ATOM      8  C   UNL     1       2.107   4.752  17.889  0.00  0.00    +0.000 A 
ATOM      9  C   UNL     1       1.459   3.521  17.956  0.00  0.00    +0.000 A 
ATOM     10  C   UNL     1       2.141   2.417  18.453  0.00  0.00    +0.000 A 
ATOM     11  C   UNL     1       3.450   2.588  18.868  0.00  0.00    +0.000 A 
ATOM     12  N   UNL     1       4.111   3.766  18.811  0.00  0.00    +0.000 NA
ENDBRANCH   6   7
ENDBRANCH   4   6
ENDBRANCH   2   4
BRANCH   2  13
ATOM     13  C   UNL     1       6.308   4.385  15.922  0.00  0.00    +0.000 C 
BRANCH  13  14
ATOM     14  C   UNL     1       6.576   4.326  14.440  0.00  0.00    +0.000 A 
ATOM     15  C   UNL     1       5.841   3.450  13.627  0.00  0.00    +0.000 A 
ATOM     16  C   UNL     1       6.059   3.408  12.248  0.00  0.00    +0.000 A 
ATOM     17  C   UNL     1       7.012   4.239  11.668  0.00  0.00    +0.000 A 
ATOM     18  C   UNL     1       7.751   5.111  12.465  0.00  0.00    +0.000 A 
ATOM     19  C   UNL     1       7.538   5.154  13.845  0.00  0.00    +0.000 A 
ENDBRANCH  13  14
ENDBRANCH   2  13
TORSDOF 5
ENDMDL
