MODEL 1
REMARK VINA RESULT:      -7.4      0.000      0.000
REMARK  Name = 
REMARK  7 active torsions:
REMARK  status: ('A' for Active; 'I' for Inactive)
REMARK    1  A    between atoms: S_2  and  C_4
REMARK    2  A    between atoms: S_2  and  C_19
REMARK    3  A    between atoms: C_4  and  C_5
REMARK    4  A    between atoms: C_5  and  C_6
REMARK    5  A    between atoms: C_6  and  N_7
REMARK    6  A    between atoms: C_11  and  C_12
REMARK    7  A    between atoms: C_12  and  N_13
REMARK                            x       y       z     vdW  Elec       q    Type
REMARK                         _______ _______ _______ _____ _____    ______ ____
ROOT
ATOM      1  C   UNL     1       4.357   3.453  17.911  0.00  0.00    +0.000 C 
ENDROOT
BRANCH   1   2
ATOM      2  N   UNL     1       3.088   3.896  18.522  0.00  0.00    +0.000 NA
ATOM      3  C   UNL     1       2.683   2.990  19.609  0.00  0.00    +0.000 C 
ATOM      4  C   UNL     1       1.345   3.410  20.201  0.00  0.00    +0.000 C 
ATOM      5  C   UNL     1       1.403   4.833  20.729  0.00  0.00    +0.000 C 
ATOM      6  C   UNL     1       1.905   5.800  19.649  0.00  0.00    +0.000 C 
ATOM      7  C   UNL     1       3.217   5.278  19.022  0.00  0.00    +0.000 C 
BRANCH   6   8
ATOM      8  C   UNL     1       2.132   7.215  20.212  0.00  0.00    +0.000 C 
BRANCH   8   9
ATOM      9  N   UNL     1       1.882   8.276  19.260  0.00  0.00    +0.000 N 
ATOM     10  C   UNL     1       2.375   8.399  18.000  0.00  0.00    +0.000 A 
ATOM     11  N   UNL     1       1.930   9.513  17.461  0.00  0.00    +0.000 NA
ATOM     12  C   UNL     1       1.166  10.049  18.459  0.00  0.00    +0.000 A 
ATOM     13  N   UNL     1       1.120   9.334  19.588  0.00  0.00    +0.000 NA
ENDBRANCH   8   9
ENDBRANCH   6   8
ENDBRANCH   1   2
BRANCH   1  14
ATOM     14  C   UNL     1       4.496   3.824  16.429  0.00  0.00    +0.000 C 
BRANCH  14  15
ATOM     15  C   UNL     1       5.937   3.768  15.933  0.00  0.00    +0.000 C 
BRANCH  15  17
ATOM     16  O   UNL     1       7.553   5.231  14.457  0.00  0.00    +0.000 OA
ATOM     17  S   UNL     1       6.483   5.390  15.427  0.00  0.00    +0.000 S 
ATOM     18  O   UNL     1       5.318   6.194  15.117  0.00  0.00    +0.000 OA
BRANCH  17  19
ATOM     19  C   UNL     1       7.210   6.045  16.909  0.00  0.00    +0.000 A 
ATOM     20  C   UNL     1       7.493   7.411  16.987  0.00  0.00    +0.000 A 
ATOM     21  C   UNL     1       8.085   7.923  18.140  0.00  0.00    +0.000 A 
ATOM     22  C   UNL     1       8.376   7.075  19.209  0.00  0.00    +0.000 A 
ATOM     23  C   UNL     1       8.062   5.716  19.138  0.00  0.00    +0.000 A 
ATOM     24  C   UNL     1       7.471   5.196  17.986  0.00  0.00    +0.000 A 
ENDBRANCH  17  19
ENDBRANCH  15  17
ENDBRANCH  14  15
ENDBRANCH   1  14
TORSDOF 7
ENDMDL
MODEL 2
REMARK VINA RESULT:      -7.4      1.893      3.273
REMARK  Name = 
REMARK  7 active torsions:
REMARK  status: ('A' for Active; 'I' for Inactive)
REMARK    1  A    between atoms: S_2  and  C_4
REMARK    2  A    between atoms: S_2  and  C_19
REMARK    3  A    between atoms: C_4  and  C_5
REMARK    4  A    between atoms: C_5  and  C_6
REMARK    5  A    between atoms: C_6  and  N_7
REMARK    6  A    between atoms: C_11  and  C_12
REMARK    7  A    between atoms: C_12  and  N_13
REMARK                            x       y       z     vdW  Elec       q    Type
REMARK                         _______ _______ _______ _____ _____    ______ ____
ROOT
ATOM      1  C   UNL     1       4.892   3.612  19.054  0.00  0.00    +0.000 C 
ENDROOT
BRANCH   1   2
ATOM      2  N   UNL     1       3.465   3.970  19.180  0.00  0.00    +0.000 NA
ATOM      3  C   UNL     1       2.744   2.981  19.997  0.00  0.00    +0.000 C 
ATOM      4  C   UNL     1       1.262   3.315  20.080  0.00  0.00    +0.000 C 
ATOM      5  C   UNL     1       1.044   4.701  20.661  0.00  0.00    +0.000 C 
ATOM      6  C   UNL     1       1.850   5.754  19.889  0.00  0.00    +0.000 C 
ATOM      7  C   UNL     1       3.326   5.319  19.759  0.00  0.00    +0.000 C 
BRANCH   6   8
ATOM      8  C   UNL     1       1.777   7.136  20.564  0.00  0.00    +0.000 C 
BRANCH   8   9
ATOM      9  N   UNL     1       1.654   8.240  19.637  0.00  0.00    +0.000 N 
ATOM     10  C   UNL     1       1.033   9.431  19.836  0.00  0.00    +0.000 A 
ATOM     11  N   UNL     1       1.122  10.161  18.746  0.00  0.00    +0.000 NA
ATOM     12  C   UNL     1       1.809   9.346  17.891  0.00  0.00    +0.000 A 
ATOM     13  N   UNL     1       2.142   8.150  18.387  0.00  0.00    +0.000 NA
ENDBRANCH   8   9
ENDBRANCH   6   8
ENDBRANCH   1   2
BRANCH   1  14
ATOM     14  C   UNL     1       5.794   4.786  18.651  0.00  0.00    +0.000 C 
BRANCH  14  15
ATOM     15  C   UNL     1       5.665   5.159  17.179  0.00  0.00    +0.000 C 
BRANCH  15  17
ATOM     16  O   UNL     1       7.682   6.652  16.383  0.00  0.00    +0.000 OA
ATOM     17  S   UNL     1       7.277   5.256  16.420  0.00  0.00    +0.000 S 
ATOM     18  O   UNL     1       8.133   4.254  17.021  0.00  0.00    +0.000 OA
BRANCH  17  19
ATOM     19  C   UNL     1       6.959   4.758  14.745  0.00  0.00    +0.000 A 
ATOM     20  C   UNL     1       5.850   3.956  14.468  0.00  0.00    +0.000 A 
ATOM     21  C   UNL     1       5.612   3.545  13.158  0.00  0.00    +0.000 A 
ATOM     22  C   UNL     1       6.471   3.947  12.134  0.00  0.00    +0.000 A 
ATOM     23  C   UNL     1       7.561   4.775  12.413  0.00  0.00    +0.000 A 
ATOM     24  C   UNL     1       7.807   5.190  13.722  0.00  0.00    +0.000 A 
ENDBRANCH  17  19
ENDBRANCH  15  17
ENDBRANCH  14  15
ENDBRANCH   1  14
TORSDOF 7
ENDMDL
MODEL 3
REMARK VINA RESULT:      -7.1      3.910      7.364
REMARK  Name = 
REMARK  7 active torsions:
REMARK  status: ('A' for Active; 'I' for Inactive)
REMARK    1  A    between atoms: S_2  and  C_4
REMARK    2  A    between atoms: S_2  and  C_19
REMARK    3  A    between atoms: C_4  and  C_5
REMARK    4  A    between atoms: C_5  and  C_6
REMARK    5  A    between atoms: C_6  and  N_7
REMARK    6  A    between atoms: C_11  and  C_12
REMARK    7  A    between atoms: C_12  and  N_13
REMARK                            x       y       z     vdW  Elec       q    Type
REMARK                         _______ _______ _______ _____ _____    ______ ____
ROOT
ATOM      1  C   UNL     1       2.342   7.661  18.742  0.00  0.00    +0.000 C 
ENDROOT
BRANCH   1   2
ATOM      2  N   UNL     1       2.749   6.547  17.863  0.00  0.00    +0.000 NA
ATOM      3  C   UNL     1       4.211   6.514  17.698  0.00  0.00    +0.000 C 
ATOM      4  C   UNL     1       4.629   5.402  16.746  0.00  0.00    +0.000 C 
ATOM      5  C   UNL     1       4.149   4.049  17.240  0.00  0.00    +0.000 C 
ATOM      6  C   UNL     1       2.637   4.066  17.509  0.00  0.00    +0.000 C 
ATOM      7  C   UNL     1       2.260   5.265  18.406  0.00  0.00    +0.000 C 
BRANCH   6   8
ATOM      8  C   UNL     1       2.161   2.759  18.169  0.00  0.00    +0.000 C 
BRANCH   8   9
ATOM      9  N   UNL     1       2.166   2.793  19.615  0.00  0.00    +0.000 N 
ATOM     10  C   UNL     1       3.227   2.636  20.450  0.00  0.00    +0.000 A 
ATOM     11  N   UNL     1       2.819   2.713  21.697  0.00  0.00    +0.000 NA
ATOM     12  C   UNL     1       1.473   2.907  21.565  0.00  0.00    +0.000 A 
ATOM     13  N   UNL     1       1.023   2.946  20.307  0.00  0.00    +0.000 NA
ENDBRANCH   8   9
ENDBRANCH   6   8
ENDBRANCH   1   2
BRANCH   1  14
ATOM     14  C   UNL     1       1.988   8.950  17.988  0.00  0.00    +0.000 C 
BRANCH  14  15
ATOM     15  C   UNL     1       0.525   9.350  18.145  0.00  0.00    +0.000 C 
BRANCH  15  17
ATOM     16  O   UNL     1       1.730  11.561  18.912  0.00  0.00    +0.000 OA
ATOM     17  S   UNL     1       0.401  10.976  18.872  0.00  0.00    +0.000 S 
ATOM     18  O   UNL     1      -0.698  11.680  18.243  0.00  0.00    +0.000 OA
BRANCH  17  19
ATOM     19  C   UNL     1      -0.070  10.627  20.548  0.00  0.00    +0.000 A 
ATOM     20  C   UNL     1      -0.570  11.658  21.347  0.00  0.00    +0.000 A 
ATOM     21  C   UNL     1      -0.918  11.391  22.670  0.00  0.00    +0.000 A 
ATOM     22  C   UNL     1      -0.780  10.100  23.180  0.00  0.00    +0.000 A 
ATOM     23  C   UNL     1      -0.310   9.067  22.367  0.00  0.00    +0.000 A 
ATOM     24  C   UNL     1       0.043   9.326  21.043  0.00  0.00    +0.000 A 
ENDBRANCH  17  19
ENDBRANCH  15  17
ENDBRANCH  14  15
ENDBRANCH   1  14
TORSDOF 7
ENDMDL
MODEL 4
REMARK VINA RESULT:      -7.0      0.613      1.157
REMARK  Name = 
REMARK  7 active torsions:
REMARK  status: ('A' for Active; 'I' for Inactive)
REMARK    1  A    between atoms: S_2  and  C_4
REMARK    2  A    between atoms: S_2  and  C_19
REMARK    3  A    between atoms: C_4  and  C_5
REMARK    4  A    between atoms: C_5  and  C_6
REMARK    5  A    between atoms: C_6  and  N_7
REMARK    6  A    between atoms: C_11  and  C_12
REMARK    7  A    between atoms: C_12  and  N_13
REMARK                            x       y       z     vdW  Elec       q    Type
REMARK                         _______ _______ _______ _____ _____    ______ ____
ROOT
ATOM      1  C   UNL     1       3.005   3.577  16.944  0.00  0.00    +0.000 C 
ENDROOT
BRANCH   1   2
ATOM      2  N   UNL     1       2.145   4.011  18.063  0.00  0.00    +0.000 NA
ATOM      3  C   UNL     1       2.188   3.040  19.167  0.00  0.00    +0.000 C 
ATOM      4  C   UNL     1       1.257   3.455  20.298  0.00  0.00    +0.000 C 
ATOM      5  C   UNL     1       1.617   4.833  20.826  0.00  0.00    +0.000 C 
ATOM      6  C   UNL     1       1.669   5.862  19.688  0.00  0.00    +0.000 C 
ATOM      7  C   UNL     1       2.555   5.348  18.533  0.00  0.00    +0.000 C 
BRANCH   6   8
ATOM      8  C   UNL     1       2.196   7.224  20.176  0.00  0.00    +0.000 C 
BRANCH   8   9
ATOM      9  N   UNL     1       1.880   8.327  19.295  0.00  0.00    +0.000 N 
ATOM     10  C   UNL     1       2.348   8.553  18.039  0.00  0.00    +0.000 A 
ATOM     11  N   UNL     1       1.841   9.674  17.577  0.00  0.00    +0.000 NA
ATOM     12  C   UNL     1       1.068  10.109  18.615  0.00  0.00    +0.000 A 
ATOM     13  N   UNL     1       1.073   9.325  19.698  0.00  0.00    +0.000 NA
ENDBRANCH   8   9
ENDBRANCH   6   8
ENDBRANCH   1   2
BRANCH   1  14
ATOM     14  C   UNL     1       4.415   4.181  16.974  0.00  0.00    +0.000 C 
BRANCH  14  15
ATOM     15  C   UNL     1       5.155   4.034  15.649  0.00  0.00    +0.000 C 
BRANCH  15  17
ATOM     16  O   UNL     1       7.041   5.225  14.251  0.00  0.00    +0.000 OA
ATOM     17  S   UNL     1       6.051   5.531  15.270  0.00  0.00    +0.000 S 
ATOM     18  O   UNL     1       5.098   6.604  15.076  0.00  0.00    +0.000 OA
BRANCH  17  19
ATOM     19  C   UNL     1       6.932   5.859  16.776  0.00  0.00    +0.000 A 
ATOM     20  C   UNL     1       7.346   4.790  17.575  0.00  0.00    +0.000 A 
ATOM     21  C   UNL     1       8.017   5.046  18.769  0.00  0.00    +0.000 A 
ATOM     22  C   UNL     1       8.282   6.362  19.151  0.00  0.00    +0.000 A 
ATOM     23  C   UNL     1       7.893   7.426  18.333  0.00  0.00    +0.000 A 
ATOM     24  C   UNL     1       7.219   7.177  17.137  0.00  0.00    +0.000 A 
ENDBRANCH  17  19
ENDBRANCH  15  17
ENDBRANCH  14  15
ENDBRANCH   1  14
TORSDOF 7
ENDMDL
MODEL 5
REMARK VINA RESULT:      -6.9      4.315      8.174
REMARK  Name = 
REMARK  7 active torsions:
REMARK  status: ('A' for Active; 'I' for Inactive)
REMARK    1  A    between atoms: S_2  and  C_4
REMARK    2  A    between atoms: S_2  and  C_19
REMARK    3  A    between atoms: C_4  and  C_5
REMARK    4  A    between atoms: C_5  and  C_6
REMARK    5  A    between atoms: C_6  and  N_7
REMARK    6  A    between atoms: C_11  and  C_12
REMARK    7  A    between atoms: C_12  and  N_13
REMARK                            x       y       z     vdW  Elec       q    Type
REMARK                         _______ _______ _______ _____ _____    ______ ____
ROOT
ATOM      1  C   UNL     1       2.785   8.090  17.961  0.00  0.00    +0.000 C 
ENDROOT
BRANCH   1   2
ATOM      2  N   UNL     1       3.319   6.861  18.581  0.00  0.00    +0.000 NA
ATOM      3  C   UNL     1       2.320   6.242  19.467  0.00  0.00    +0.000 C 
ATOM      4  C   UNL     1       2.888   5.008  20.153  0.00  0.00    +0.000 C 
ATOM      5  C   UNL     1       3.359   3.984  19.135  0.00  0.00    +0.000 C 
ATOM      6  C   UNL     1       4.340   4.613  18.135  0.00  0.00    +0.000 C 
ATOM      7  C   UNL     1       3.748   5.909  17.539  0.00  0.00    +0.000 C 
BRANCH   6   8
ATOM      8  C   UNL     1       4.697   3.639  16.998  0.00  0.00    +0.000 C 
BRANCH   8   9
ATOM      9  N   UNL     1       5.739   4.119  16.116  0.00  0.00    +0.000 N 
ATOM     10  C   UNL     1       6.992   4.525  16.449  0.00  0.00    +0.000 A 
ATOM     11  N   UNL     1       7.631   4.908  15.366  0.00  0.00    +0.000 NA
ATOM     12  C   UNL     1       6.700   4.727  14.383  0.00  0.00    +0.000 A 
ATOM     13  N   UNL     1       5.518   4.261  14.797  0.00  0.00    +0.000 NA
ENDBRANCH   8   9
ENDBRANCH   6   8
ENDBRANCH   1   2
BRANCH   1  14
ATOM     14  C   UNL     1       1.745   8.819  18.822  0.00  0.00    +0.000 C 
BRANCH  14  15
ATOM     15  C   UNL     1       0.729   9.600  17.996  0.00  0.00    +0.000 C 
BRANCH  15  17
ATOM     16  O   UNL     1      -0.624   9.787  20.247  0.00  0.00    +0.000 OA
ATOM     17  S   UNL     1      -0.321  10.572  19.063  0.00  0.00    +0.000 S 
ATOM     18  O   UNL     1       0.243  11.901  19.181  0.00  0.00    +0.000 OA
BRANCH  17  19
ATOM     19  C   UNL     1      -1.823  10.708  18.125  0.00  0.00    +0.000 A 
ATOM     20  C   UNL     1      -2.833  11.566  18.568  0.00  0.00    +0.000 A 
ATOM     21  C   UNL     1      -4.021  11.656  17.846  0.00  0.00    +0.000 A 
ATOM     22  C   UNL     1      -4.189  10.903  16.683  0.00  0.00    +0.000 A 
ATOM     23  C   UNL     1      -3.164  10.071  16.227  0.00  0.00    +0.000 A 
ATOM     24  C   UNL     1      -1.972   9.974  16.945  0.00  0.00    +0.000 A 
ENDBRANCH  17  19
ENDBRANCH  15  17
ENDBRANCH  14  15
ENDBRANCH   1  14
TORSDOF 7
ENDMDL
MODEL 6
REMARK VINA RESULT:      -6.9      3.822      7.280
REMARK  Name = 
REMARK  7 active torsions:
REMARK  status: ('A' for Active; 'I' for Inactive)
REMARK    1  A    between atoms: S_2  and  C_4
REMARK    2  A    between atoms: S_2  and  C_19
REMARK    3  A    between atoms: C_4  and  C_5
REMARK    4  A    between atoms: C_5  and  C_6
REMARK    5  A    between atoms: C_6  and  N_7
REMARK    6  A    between atoms: C_11  and  C_12
REMARK    7  A    between atoms: C_12  and  N_13
REMARK                            x       y       z     vdW  Elec       q    Type
REMARK                         _______ _______ _______ _____ _____    ______ ____
ROOT
ATOM      1  C   UNL     1       3.771   7.677  17.869  0.00  0.00    +0.000 C 
ENDROOT
BRANCH   1   2
ATOM      2  N   UNL     1       3.940   6.453  17.061  0.00  0.00    +0.000 NA
ATOM      3  C   UNL     1       5.238   6.455  16.367  0.00  0.00    +0.000 C 
ATOM      4  C   UNL     1       5.390   5.223  15.486  0.00  0.00    +0.000 C 
ATOM      5  C   UNL     1       5.259   3.948  16.301  0.00  0.00    +0.000 C 
ATOM      6  C   UNL     1       3.954   3.944  17.110  0.00  0.00    +0.000 C 
ATOM      7  C   UNL     1       3.811   5.256  17.913  0.00  0.00    +0.000 C 
BRANCH   6   8
ATOM      8  C   UNL     1       3.882   2.743  18.069  0.00  0.00    +0.000 C 
BRANCH   8   9
ATOM      9  N   UNL     1       2.694   2.716  18.893  0.00  0.00    +0.000 N 
ATOM     10  C   UNL     1       1.397   2.692  18.487  0.00  0.00    +0.000 A 
ATOM     11  N   UNL     1       0.608   2.694  19.539  0.00  0.00    +0.000 NA
ATOM     12  C   UNL     1       1.490   2.735  20.581  0.00  0.00    +0.000 A 
ATOM     13  N   UNL     1       2.781   2.767  20.235  0.00  0.00    +0.000 NA
ENDBRANCH   8   9
ENDBRANCH   6   8
ENDBRANCH   1   2
BRANCH   1  14
ATOM     14  C   UNL     1       2.410   8.360  17.686  0.00  0.00    +0.000 C 
BRANCH  14  15
ATOM     15  C   UNL     1       1.681   8.600  19.003  0.00  0.00    +0.000 C 
BRANCH  15  17
ATOM     16  O   UNL     1       1.668  11.220  18.745  0.00  0.00    +0.000 OA
ATOM     17  S   UNL     1       0.741  10.116  18.925  0.00  0.00    +0.000 S 
ATOM     18  O   UNL     1      -0.368   9.925  18.013  0.00  0.00    +0.000 OA
BRANCH  17  19
ATOM     19  C   UNL     1       0.073  10.254  20.564  0.00  0.00    +0.000 A 
ATOM     20  C   UNL     1      -0.537  11.447  20.957  0.00  0.00    +0.000 A 
ATOM     21  C   UNL     1      -1.042  11.565  22.251  0.00  0.00    +0.000 A 
ATOM     22  C   UNL     1      -0.947  10.491  23.137  0.00  0.00    +0.000 A 
ATOM     23  C   UNL     1      -0.363   9.290  22.728  0.00  0.00    +0.000 A 
ATOM     24  C   UNL     1       0.145   9.164  21.436  0.00  0.00    +0.000 A 
ENDBRANCH  17  19
ENDBRANCH  15  17
ENDBRANCH  14  15
ENDBRANCH   1  14
TORSDOF 7
ENDMDL
MODEL 7
REMARK VINA RESULT:      -6.9      1.885      3.242
REMARK  Name = 
REMARK  7 active torsions:
REMARK  status: ('A' for Active; 'I' for Inactive)
REMARK    1  A    between atoms: S_2  and  C_4
REMARK    2  A    between atoms: S_2  and  C_19
REMARK    3  A    between atoms: C_4  and  C_5
REMARK    4  A    between atoms: C_5  and  C_6
REMARK    5  A    between atoms: C_6  and  N_7
REMARK    6  A    between atoms: C_11  and  C_12
REMARK    7  A    between atoms: C_12  and  N_13
REMARK                            x       y       z     vdW  Elec       q    Type
REMARK                         _______ _______ _______ _____ _____    ______ ____
ROOT
ATOM      1  C   UNL     1       4.030   3.011  17.890  0.00  0.00    +0.000 C 
ENDROOT
BRANCH   1   2
ATOM      2  N   UNL     1       2.803   3.517  18.535  0.00  0.00    +0.000 NA
ATOM      3  C   UNL     1       2.331   2.586  19.573  0.00  0.00    +0.000 C 
ATOM      4  C   UNL     1       1.034   3.076  20.199  0.00  0.00    +0.000 C 
ATOM      5  C   UNL     1       1.206   4.457  20.805  0.00  0.00    +0.000 C 
ATOM      6  C   UNL     1       1.780   5.442  19.777  0.00  0.00    +0.000 C 
ATOM      7  C   UNL     1       3.043   4.854  19.110  0.00  0.00    +0.000 C 
BRANCH   6   8
ATOM      8  C   UNL     1       2.120   6.800  20.416  0.00  0.00    +0.000 C 
BRANCH   8   9
ATOM      9  N   UNL     1       1.906   7.934  19.543  0.00  0.00    +0.000 N 
ATOM     10  C   UNL     1       1.232   9.082  19.815  0.00  0.00    +0.000 A 
ATOM     11  N   UNL     1       1.242   9.859  18.755  0.00  0.00    +0.000 NA
ATOM     12  C   UNL     1       1.936   9.117  17.841  0.00  0.00    +0.000 A 
ATOM     13  N   UNL     1       2.349   7.921  18.273  0.00  0.00    +0.000 NA
ENDBRANCH   8   9
ENDBRANCH   6   8
ENDBRANCH   1   2
BRANCH   1  14
ATOM     14  C   UNL     1       4.526   3.881  16.728  0.00  0.00    +0.000 C 
BRANCH  14  15
ATOM     15  C   UNL     1       6.001   4.249  16.845  0.00  0.00    +0.000 C 
BRANCH  15  17
ATOM     16  O   UNL     1       5.201   6.482  15.702  0.00  0.00    +0.000 OA
ATOM     17  S   UNL     1       6.380   5.637  15.788  0.00  0.00    +0.000 S 
ATOM     18  O   UNL     1       7.658   6.189  16.191  0.00  0.00    +0.000 OA
BRANCH  17  19
ATOM     19  C   UNL     1       6.599   4.877  14.198  0.00  0.00    +0.000 A 
ATOM     20  C   UNL     1       7.618   5.330  13.357  0.00  0.00    +0.000 A 
ATOM     21  C   UNL     1       7.777   4.751  12.100  0.00  0.00    +0.000 A 
ATOM     22  C   UNL     1       6.930   3.718  11.696  0.00  0.00    +0.000 A 
ATOM     23  C   UNL     1       5.932   3.248  12.554  0.00  0.00    +0.000 A 
ATOM     24  C   UNL     1       5.766   3.824  13.813  0.00  0.00    +0.000 A 
ENDBRANCH  17  19
ENDBRANCH  15  17
ENDBRANCH  14  15
ENDBRANCH   1  14
TORSDOF 7
ENDMDL
MODEL 8
REMARK VINA RESULT:      -6.9      3.188      5.843
REMARK  Name = 
REMARK  7 active torsions:
REMARK  status: ('A' for Active; 'I' for Inactive)
REMARK    1  A    between atoms: S_2  and  C_4
REMARK    2  A    between atoms: S_2  and  C_19
REMARK    3  A    between atoms: C_4  and  C_5
REMARK    4  A    between atoms: C_5  and  C_6
REMARK    5  A    between atoms: C_6  and  N_7
REMARK    6  A    between atoms: C_11  and  C_12
REMARK    7  A    between atoms: C_12  and  N_13
REMARK                            x       y       z     vdW  Elec       q    Type
REMARK                         _______ _______ _______ _____ _____    ______ ____
ROOT
ATOM      1  C   UNL     1       2.220   8.365  17.992  0.00  0.00    +0.000 C 
ENDROOT
BRANCH   1   2
ATOM      2  N   UNL     1       1.022   8.777  18.751  0.00  0.00    +0.000 NA
ATOM      3  C   UNL     1       1.367   9.090  20.147  0.00  0.00    +0.000 C 
ATOM      4  C   UNL     1       0.126   9.457  20.948  0.00  0.00    +0.000 C 
ATOM      5  C   UNL     1      -0.594  10.644  20.330  0.00  0.00    +0.000 C 
ATOM      6  C   UNL     1      -0.895  10.392  18.846  0.00  0.00    +0.000 C 
ATOM      7  C   UNL     1       0.381   9.936  18.104  0.00  0.00    +0.000 C 
BRANCH   6   8
ATOM      8  C   UNL     1      -1.470  11.645  18.161  0.00  0.00    +0.000 C 
BRANCH   8   9
ATOM      9  N   UNL     1      -2.608  11.382  17.309  0.00  0.00    +0.000 N 
ATOM     10  C   UNL     1      -2.604  10.942  16.023  0.00  0.00    +0.000 A 
ATOM     11  N   UNL     1      -3.841  10.846  15.588  0.00  0.00    +0.000 NA
ATOM     12  C   UNL     1      -4.575  11.260  16.663  0.00  0.00    +0.000 A 
ATOM     13  N   UNL     1      -3.862  11.615  17.737  0.00  0.00    +0.000 NA
ENDBRANCH   8   9
ENDBRANCH   6   8
ENDBRANCH   1   2
BRANCH   1  14
ATOM     14  C   UNL     1       2.940   7.145  18.580  0.00  0.00    +0.000 C 
BRANCH  14  15
ATOM     15  C   UNL     1       3.939   6.519  17.613  0.00  0.00    +0.000 C 
BRANCH  15  17
ATOM     16  O   UNL     1       4.939   4.131  17.134  0.00  0.00    +0.000 OA
ATOM     17  S   UNL     1       4.530   4.962  18.254  0.00  0.00    +0.000 S 
ATOM     18  O   UNL     1       5.442   5.228  19.349  0.00  0.00    +0.000 OA
BRANCH  17  19
ATOM     19  C   UNL     1       3.064   4.232  18.941  0.00  0.00    +0.000 A 
ATOM     20  C   UNL     1       2.152   3.600  18.092  0.00  0.00    +0.000 A 
ATOM     21  C   UNL     1       0.989   3.047  18.626  0.00  0.00    +0.000 A 
ATOM     22  C   UNL     1       0.752   3.116  20.000  0.00  0.00    +0.000 A 
ATOM     23  C   UNL     1       1.683   3.721  20.847  0.00  0.00    +0.000 A 
ATOM     24  C   UNL     1       2.848   4.278  20.320  0.00  0.00    +0.000 A 
ENDBRANCH  17  19
ENDBRANCH  15  17
ENDBRANCH  14  15
ENDBRANCH   1  14
TORSDOF 7
ENDMDL
MODEL 9
REMARK VINA RESULT:      -6.9      2.694      4.211
REMARK  Name = 
REMARK  7 active torsions:
REMARK  status: ('A' for Active; 'I' for Inactive)
REMARK    1  A    between atoms: S_2  and  C_4
REMARK    2  A    between atoms: S_2  and  C_19
REMARK    3  A    between atoms: C_4  and  C_5
REMARK    4  A    between atoms: C_5  and  C_6
REMARK    5  A    between atoms: C_6  and  N_7
REMARK    6  A    between atoms: C_11  and  C_12
REMARK    7  A    between atoms: C_12  and  N_13
REMARK                            x       y       z     vdW  Elec       q    Type
REMARK                         _______ _______ _______ _____ _____    ______ ____
ROOT
ATOM      1  C   UNL     1       1.878   5.229  20.702  0.00  0.00    +0.000 C 
ENDROOT
BRANCH   1   2
ATOM      2  N   UNL     1       2.187   6.518  20.051  0.00  0.00    +0.000 NA
ATOM      3  C   UNL     1       2.221   6.373  18.587  0.00  0.00    +0.000 C 
ATOM      4  C   UNL     1       2.597   7.686  17.916  0.00  0.00    +0.000 C 
ATOM      5  C   UNL     1       1.624   8.790  18.288  0.00  0.00    +0.000 C 
ATOM      6  C   UNL     1       1.493   8.917  19.813  0.00  0.00    +0.000 C 
ATOM      7  C   UNL     1       1.200   7.540  20.447  0.00  0.00    +0.000 C 
BRANCH   6   8
ATOM      8  C   UNL     1       0.388   9.913  20.209  0.00  0.00    +0.000 C 
BRANCH   8   9
ATOM      9  N   UNL     1       0.802  11.299  20.173  0.00  0.00    +0.000 N 
ATOM     10  C   UNL     1       0.861  12.124  19.095  0.00  0.00    +0.000 A 
ATOM     11  N   UNL     1       1.307  13.303  19.468  0.00  0.00    +0.000 NA
ATOM     12  C   UNL     1       1.523  13.136  20.807  0.00  0.00    +0.000 A 
ATOM     13  N   UNL     1       1.244  11.918  21.282  0.00  0.00    +0.000 NA
ENDBRANCH   8   9
ENDBRANCH   6   8
ENDBRANCH   1   2
BRANCH   1  14
ATOM     14  C   UNL     1       1.511   4.109  19.720  0.00  0.00    +0.000 C 
BRANCH  14  15
ATOM     15  C   UNL     1       2.377   2.865  19.884  0.00  0.00    +0.000 C 
BRANCH  15  17
ATOM     16  O   UNL     1       3.800   1.140  18.495  0.00  0.00    +0.000 OA
ATOM     17  S   UNL     1       3.102   2.402  18.320  0.00  0.00    +0.000 S 
ATOM     18  O   UNL     1       2.101   2.556  17.283  0.00  0.00    +0.000 OA
BRANCH  17  19
ATOM     19  C   UNL     1       4.336   3.654  18.068  0.00  0.00    +0.000 A 
ATOM     20  C   UNL     1       5.063   4.129  19.161  0.00  0.00    +0.000 A 
ATOM     21  C   UNL     1       6.016   5.128  18.968  0.00  0.00    +0.000 A 
ATOM     22  C   UNL     1       6.245   5.635  17.688  0.00  0.00    +0.000 A 
ATOM     23  C   UNL     1       5.537   5.133  16.594  0.00  0.00    +0.000 A 
ATOM     24  C   UNL     1       4.581   4.134  16.779  0.00  0.00    +0.000 A 
ENDBRANCH  17  19
ENDBRANCH  15  17
ENDBRANCH  14  15
ENDBRANCH   1  14
TORSDOF 7
ENDMDL
