MODEL 1
REMARK VINA RESULT:      -7.5      0.000      0.000
REMARK  Name = 
REMARK  7 active torsions:
REMARK  status: ('A' for Active; 'I' for Inactive)
REMARK    1  A    between atoms: C_1  and  C_2
REMARK    2  A    between atoms: C_7  and  C_9
REMARK    3  A    between atoms: C_9  and  S_10
REMARK    4  A    between atoms: S_10  and  C_11
REMARK    5  A    between atoms: C_15  and  N_16
REMARK    6  A    between atoms: C_17  and  C_19
REMARK    7  A    between atoms: C_24  and  O_25
REMARK                            x       y       z     vdW  Elec       q    Type
REMARK                         _______ _______ _______ _____ _____    ______ ____
ROOT
ATOM      1  C   UNL     1       2.441   6.947  18.998  0.00  0.00    +0.000 A 
ATOM      2  N   UNL     1       1.994   7.122  20.252  0.00  0.00    +0.000 NA
ATOM      3  C   UNL     1       1.439   8.308  20.531  0.00  0.00    +0.000 A 
ATOM      4  N   UNL     1       0.949   8.487  21.840  0.00  0.00    +0.000 N 
ATOM      5  C   UNL     1       1.299   9.329  19.599  0.00  0.00    +0.000 A 
ATOM      6  C   UNL     1       1.793   9.033  18.341  0.00  0.00    +0.000 A 
ATOM      7  N   UNL     1       2.375   7.860  18.020  0.00  0.00    +0.000 NA
ATOM      8  H   UNL     1       1.100   7.606  22.333  0.00  0.00    +0.000 HD
ATOM      9  H   UNL     1      -0.043   8.712  21.824  0.00  0.00    +0.000 HD
ENDROOT
BRANCH   5  10
ATOM     10  N   UNL     1       0.730  10.550  20.040  0.00  0.00    +0.000 N 
ATOM     11  C   UNL     1      -0.560  10.980  19.798  0.00  0.00    +0.000 C 
ATOM     12  O   UNL     1      -1.321  10.337  19.076  0.00  0.00    +0.000 OA
ATOM     13  H   UNL     1       1.214  10.986  20.822  0.00  0.00    +0.000 HD
BRANCH  11  14
ATOM     14  C   UNL     1      -0.954  12.201  20.491  0.00  0.00    +0.000 A 
ATOM     15  C   UNL     1      -1.521  13.340  19.942  0.00  0.00    +0.000 A 
ATOM     16  C   UNL     1      -1.721  14.375  20.903  0.00  0.00    +0.000 A 
ATOM     17  C   UNL     1      -1.310  13.996  22.156  0.00  0.00    +0.000 A 
ATOM     18  S   UNL     1      -0.720  12.395  22.183  0.00  0.00    +0.000 S 
ENDBRANCH  11  14
ENDBRANCH   5  10
BRANCH   6  19
ATOM     19  O   UNL     1       1.838   9.954  17.333  0.00  0.00    +0.000 OA
ATOM     20  H   UNL     1       2.374   9.568  16.616  0.00  0.00    +0.000 HD
ENDBRANCH   6  19
BRANCH   1  21
ATOM     21  S   UNL     1       3.045   5.328  18.580  0.00  0.00    +0.000 S 
BRANCH  21  22
ATOM     22  C   UNL     1       4.718   5.460  19.282  0.00  0.00    +0.000 C 
BRANCH  22  29
ATOM     23  C   UNL     1       7.284   4.236  12.293  0.00  0.00    +0.000 C 
ATOM     24  C   UNL     1       6.989   4.714  13.667  0.00  0.00    +0.000 A 
ATOM     25  N   UNL     1       7.806   5.445  14.397  0.00  0.00    +0.000 NA
ATOM     26  N   UNL     1       7.302   5.684  15.664  0.00  0.00    +0.000 NA
ATOM     27  C   UNL     1       6.129   5.127  15.833  0.00  0.00    +0.000 A 
ATOM     28  N   UNL     1       5.322   5.097  16.948  0.00  0.00    +0.000 N 
ATOM     29  C   UNL     1       5.758   5.557  18.173  0.00  0.00    +0.000 C 
ATOM     30  O   UNL     1       6.859   6.050  18.401  0.00  0.00    +0.000 OA
ATOM     31  S   UNL     1       5.516   4.310  14.466  0.00  0.00    +0.000 S 
ATOM     32  H   UNL     1       4.437   4.613  16.867  0.00  0.00    +0.000 HD
ENDBRANCH  22  29
ENDBRANCH  21  22
ENDBRANCH   1  21
TORSDOF 6
ENDMDL
MODEL 2
REMARK VINA RESULT:      -7.4      1.137      1.268
REMARK  Name = 
REMARK  7 active torsions:
REMARK  status: ('A' for Active; 'I' for Inactive)
REMARK    1  A    between atoms: C_1  and  C_2
REMARK    2  A    between atoms: C_7  and  C_9
REMARK    3  A    between atoms: C_9  and  S_10
REMARK    4  A    between atoms: S_10  and  C_11
REMARK    5  A    between atoms: C_15  and  N_16
REMARK    6  A    between atoms: C_17  and  C_19
REMARK    7  A    between atoms: C_24  and  O_25
REMARK                            x       y       z     vdW  Elec       q    Type
REMARK                         _______ _______ _______ _____ _____    ______ ____
ROOT
ATOM      1  C   UNL     1       3.069   6.096  19.049  0.00  0.00    +0.000 A 
ATOM      2  N   UNL     1       2.476   6.340  20.228  0.00  0.00    +0.000 NA
ATOM      3  C   UNL     1       1.850   7.518  20.352  0.00  0.00    +0.000 A 
ATOM      4  N   UNL     1       1.208   7.768  21.581  0.00  0.00    +0.000 N 
ATOM      5  C   UNL     1       1.782   8.463  19.335  0.00  0.00    +0.000 A 
ATOM      6  C   UNL     1       2.427   8.099  18.166  0.00  0.00    +0.000 A 
ATOM      7  N   UNL     1       3.083   6.932  18.003  0.00  0.00    +0.000 NA
ATOM      8  H   UNL     1       1.333   6.933  22.154  0.00  0.00    +0.000 HD
ATOM      9  H   UNL     1       0.217   7.949  21.437  0.00  0.00    +0.000 HD
ENDROOT
BRANCH   5  10
ATOM     10  N   UNL     1       1.124   9.686  19.616  0.00  0.00    +0.000 N 
ATOM     11  C   UNL     1       0.070  10.223  18.903  0.00  0.00    +0.000 C 
ATOM     12  O   UNL     1      -0.341   9.690  17.873  0.00  0.00    +0.000 OA
ATOM     13  H   UNL     1       1.251  10.028  20.565  0.00  0.00    +0.000 HD
BRANCH  11  14
ATOM     14  C   UNL     1      -0.535  11.416  19.485  0.00  0.00    +0.000 A 
ATOM     15  C   UNL     1       0.005  12.254  20.447  0.00  0.00    +0.000 A 
ATOM     16  C   UNL     1      -0.889  13.296  20.835  0.00  0.00    +0.000 A 
ATOM     17  C   UNL     1      -2.078  13.230  20.154  0.00  0.00    +0.000 A 
ATOM     18  S   UNL     1      -2.107  11.944  19.032  0.00  0.00    +0.000 S 
ENDBRANCH  11  14
ENDBRANCH   5  10
BRANCH   6  19
ATOM     19  O   UNL     1       2.555   8.946  17.102  0.00  0.00    +0.000 OA
ATOM     20  H   UNL     1       2.601   8.394  16.300  0.00  0.00    +0.000 HD
ENDBRANCH   6  19
BRANCH   1  21
ATOM     21  S   UNL     1       3.774   4.479  18.826  0.00  0.00    +0.000 S 
BRANCH  21  22
ATOM     22  C   UNL     1       5.486   4.847  19.315  0.00  0.00    +0.000 C 
BRANCH  22  29
ATOM     23  C   UNL     1       7.231   4.307  11.994  0.00  0.00    +0.000 C 
ATOM     24  C   UNL     1       7.059   4.680  13.420  0.00  0.00    +0.000 A 
ATOM     25  N   UNL     1       7.851   5.498  14.081  0.00  0.00    +0.000 NA
ATOM     26  N   UNL     1       7.494   5.607  15.415  0.00  0.00    +0.000 NA
ATOM     27  C   UNL     1       6.450   4.870  15.699  0.00  0.00    +0.000 A 
ATOM     28  N   UNL     1       5.814   4.672  16.905  0.00  0.00    +0.000 N 
ATOM     29  C   UNL     1       6.341   5.145  18.088  0.00  0.00    +0.000 C 
ATOM     30  O   UNL     1       7.378   5.792  18.203  0.00  0.00    +0.000 OA
ATOM     31  S   UNL     1       5.783   4.022  14.376  0.00  0.00    +0.000 S 
ATOM     32  H   UNL     1       5.008   4.062  16.909  0.00  0.00    +0.000 HD
ENDBRANCH  22  29
ENDBRANCH  21  22
ENDBRANCH   1  21
TORSDOF 6
ENDMDL
MODEL 3
REMARK VINA RESULT:      -7.2      1.416      1.487
REMARK  Name = 
REMARK  7 active torsions:
REMARK  status: ('A' for Active; 'I' for Inactive)
REMARK    1  A    between atoms: C_1  and  C_2
REMARK    2  A    between atoms: C_7  and  C_9
REMARK    3  A    between atoms: C_9  and  S_10
REMARK    4  A    between atoms: S_10  and  C_11
REMARK    5  A    between atoms: C_15  and  N_16
REMARK    6  A    between atoms: C_17  and  C_19
REMARK    7  A    between atoms: C_24  and  O_25
REMARK                            x       y       z     vdW  Elec       q    Type
REMARK                         _______ _______ _______ _____ _____    ______ ____
ROOT
ATOM      1  C   UNL     1       2.735   5.687  19.078  0.00  0.00    +0.000 A 
ATOM      2  N   UNL     1       2.176   6.137  20.212  0.00  0.00    +0.000 NA
ATOM      3  C   UNL     1       1.811   7.425  20.231  0.00  0.00    +0.000 A 
ATOM      4  N   UNL     1       1.204   7.895  21.413  0.00  0.00    +0.000 N 
ATOM      5  C   UNL     1       1.972   8.286  19.152  0.00  0.00    +0.000 A 
ATOM      6  C   UNL     1       2.555   7.709  18.037  0.00  0.00    +0.000 A 
ATOM      7  N   UNL     1       2.954   6.422  17.979  0.00  0.00    +0.000 NA
ATOM      8  H   UNL     1       1.134   7.097  22.045  0.00  0.00    +0.000 HD
ATOM      9  H   UNL     1       0.278   8.268  21.217  0.00  0.00    +0.000 HD
ENDROOT
BRANCH   5  10
ATOM     10  N   UNL     1       1.580   9.637  19.322  0.00  0.00    +0.000 N 
ATOM     11  C   UNL     1       0.578  10.286  18.628  0.00  0.00    +0.000 C 
ATOM     12  O   UNL     1      -0.022   9.732  17.709  0.00  0.00    +0.000 OA
ATOM     13  H   UNL     1       1.861  10.051  20.208  0.00  0.00    +0.000 HD
BRANCH  11  14
ATOM     14  C   UNL     1       0.263  11.632  19.097  0.00  0.00    +0.000 A 
ATOM     15  C   UNL     1      -0.879  12.372  18.834  0.00  0.00    +0.000 A 
ATOM     16  C   UNL     1      -0.829  13.680  19.401  0.00  0.00    +0.000 A 
ATOM     17  C   UNL     1       0.340  13.898  20.085  0.00  0.00    +0.000 A 
ATOM     18  S   UNL     1       1.356  12.527  20.075  0.00  0.00    +0.000 S 
ENDBRANCH  11  14
ENDBRANCH   5  10
BRANCH   6  19
ATOM     19  O   UNL     1       2.888   8.430  16.926  0.00  0.00    +0.000 OA
ATOM     20  H   UNL     1       2.382   8.057  16.180  0.00  0.00    +0.000 HD
ENDBRANCH   6  19
BRANCH   1  21
ATOM     21  S   UNL     1       3.087   3.946  18.992  0.00  0.00    +0.000 S 
BRANCH  21  22
ATOM     22  C   UNL     1       4.779   3.967  19.657  0.00  0.00    +0.000 C 
BRANCH  22  29
ATOM     23  C   UNL     1       7.086   4.563  12.498  0.00  0.00    +0.000 C 
ATOM     24  C   UNL     1       6.841   4.679  13.957  0.00  0.00    +0.000 A 
ATOM     25  N   UNL     1       7.681   5.217  14.817  0.00  0.00    +0.000 NA
ATOM     26  N   UNL     1       7.223   5.124  16.121  0.00  0.00    +0.000 NA
ATOM     27  C   UNL     1       6.061   4.525  16.186  0.00  0.00    +0.000 A 
ATOM     28  N   UNL     1       5.297   4.206  17.286  0.00  0.00    +0.000 N 
ATOM     29  C   UNL     1       5.777   4.352  18.571  0.00  0.00    +0.000 C 
ATOM     30  O   UNL     1       6.883   4.789  18.876  0.00  0.00    +0.000 OA
ATOM     31  S   UNL     1       5.401   4.066  14.681  0.00  0.00    +0.000 S 
ATOM     32  H   UNL     1       4.413   3.745  17.118  0.00  0.00    +0.000 HD
ENDBRANCH  22  29
ENDBRANCH  21  22
ENDBRANCH   1  21
TORSDOF 6
ENDMDL
MODEL 4
REMARK VINA RESULT:      -7.2      3.237      8.993
REMARK  Name = 
REMARK  7 active torsions:
REMARK  status: ('A' for Active; 'I' for Inactive)
REMARK    1  A    between atoms: C_1  and  C_2
REMARK    2  A    between atoms: C_7  and  C_9
REMARK    3  A    between atoms: C_9  and  S_10
REMARK    4  A    between atoms: S_10  and  C_11
REMARK    5  A    between atoms: C_15  and  N_16
REMARK    6  A    between atoms: C_17  and  C_19
REMARK    7  A    between atoms: C_24  and  O_25
REMARK                            x       y       z     vdW  Elec       q    Type
REMARK                         _______ _______ _______ _____ _____    ______ ____
ROOT
ATOM      1  C   UNL     1       0.684   8.870  20.790  0.00  0.00    +0.000 A 
ATOM      2  N   UNL     1       1.092   9.379  19.617  0.00  0.00    +0.000 NA
ATOM      3  C   UNL     1       1.949   8.635  18.907  0.00  0.00    +0.000 A 
ATOM      4  N   UNL     1       2.363   9.156  17.664  0.00  0.00    +0.000 N 
ATOM      5  C   UNL     1       2.409   7.389  19.317  0.00  0.00    +0.000 A 
ATOM      6  C   UNL     1       1.917   6.967  20.540  0.00  0.00    +0.000 A 
ATOM      7  N   UNL     1       1.067   7.690  21.297  0.00  0.00    +0.000 NA
ATOM      8  H   UNL     1       1.869  10.040  17.538  0.00  0.00    +0.000 HD
ATOM      9  H   UNL     1       2.130   8.514  16.911  0.00  0.00    +0.000 HD
ENDROOT
BRANCH   5  10
ATOM     10  N   UNL     1       3.347   6.727  18.487  0.00  0.00    +0.000 N 
ATOM     11  C   UNL     1       3.171   5.500  17.879  0.00  0.00    +0.000 C 
ATOM     12  O   UNL     1       2.166   4.822  18.091  0.00  0.00    +0.000 OA
ATOM     13  H   UNL     1       4.063   7.331  18.090  0.00  0.00    +0.000 HD
BRANCH  11  14
ATOM     14  C   UNL     1       4.222   5.105  16.948  0.00  0.00    +0.000 A 
ATOM     15  C   UNL     1       4.636   3.820  16.636  0.00  0.00    +0.000 A 
ATOM     16  C   UNL     1       5.737   3.800  15.730  0.00  0.00    +0.000 A 
ATOM     17  C   UNL     1       6.126   5.066  15.370  0.00  0.00    +0.000 A 
ATOM     18  S   UNL     1       5.152   6.268  16.091  0.00  0.00    +0.000 S 
ENDBRANCH  11  14
ENDBRANCH   5  10
BRANCH   6  19
ATOM     19  O   UNL     1       2.343   5.821  21.148  0.00  0.00    +0.000 OA
ATOM     20  H   UNL     1       2.638   6.065  22.045  0.00  0.00    +0.000 HD
ENDBRANCH   6  19
BRANCH   1  21
ATOM     21  S   UNL     1      -0.565   9.782  21.669  0.00  0.00    +0.000 S 
BRANCH  21  22
ATOM     22  C   UNL     1      -0.347  11.401  20.870  0.00  0.00    +0.000 C 
BRANCH  22  29
ATOM     23  C   UNL     1      -3.925  10.142  14.348  0.00  0.00    +0.000 C 
ATOM     24  C   UNL     1      -3.503  10.502  15.725  0.00  0.00    +0.000 A 
ATOM     25  N   UNL     1      -4.124  11.370  16.496  0.00  0.00    +0.000 NA
ATOM     26  N   UNL     1      -3.468  11.563  17.700  0.00  0.00    +0.000 NA
ATOM     27  C   UNL     1      -2.385  10.831  17.784  0.00  0.00    +0.000 A 
ATOM     28  N   UNL     1      -1.446  10.763  18.790  0.00  0.00    +0.000 N 
ATOM     29  C   UNL     1      -1.451  11.646  19.848  0.00  0.00    +0.000 C 
ATOM     30  O   UNL     1      -2.271  12.543  20.029  0.00  0.00    +0.000 OA
ATOM     31  S   UNL     1      -2.093   9.818  16.443  0.00  0.00    +0.000 S 
ATOM     32  H   UNL     1      -0.678  10.118  18.663  0.00  0.00    +0.000 HD
ENDBRANCH  22  29
ENDBRANCH  21  22
ENDBRANCH   1  21
TORSDOF 6
ENDMDL
MODEL 5
REMARK VINA RESULT:      -7.1      3.748     10.792
REMARK  Name = 
REMARK  7 active torsions:
REMARK  status: ('A' for Active; 'I' for Inactive)
REMARK    1  A    between atoms: C_1  and  C_2
REMARK    2  A    between atoms: C_7  and  C_9
REMARK    3  A    between atoms: C_9  and  S_10
REMARK    4  A    between atoms: S_10  and  C_11
REMARK    5  A    between atoms: C_15  and  N_16
REMARK    6  A    between atoms: C_17  and  C_19
REMARK    7  A    between atoms: C_24  and  O_25
REMARK                            x       y       z     vdW  Elec       q    Type
REMARK                         _______ _______ _______ _____ _____    ______ ____
ROOT
ATOM      1  C   UNL     1       0.294  10.709  19.931  0.00  0.00    +0.000 A 
ATOM      2  N   UNL     1       0.740  10.250  18.751  0.00  0.00    +0.000 NA
ATOM      3  C   UNL     1       1.464   9.124  18.780  0.00  0.00    +0.000 A 
ATOM      4  N   UNL     1       1.915   8.628  17.540  0.00  0.00    +0.000 N 
ATOM      5  C   UNL     1       1.753   8.425  19.946  0.00  0.00    +0.000 A 
ATOM      6  C   UNL     1       1.238   8.992  21.099  0.00  0.00    +0.000 A 
ATOM      7  N   UNL     1       0.519  10.132  21.120  0.00  0.00    +0.000 NA
ATOM      8  H   UNL     1       1.548   9.253  16.823  0.00  0.00    +0.000 HD
ATOM      9  H   UNL     1       1.575   7.682  17.388  0.00  0.00    +0.000 HD
ENDROOT
BRANCH   5  10
ATOM     10  N   UNL     1       2.566   7.270  19.838  0.00  0.00    +0.000 N 
ATOM     11  C   UNL     1       2.209   5.988  20.206  0.00  0.00    +0.000 C 
ATOM     12  O   UNL     1       1.133   5.759  20.757  0.00  0.00    +0.000 OA
ATOM     13  H   UNL     1       3.339   7.355  19.183  0.00  0.00    +0.000 HD
BRANCH  11  14
ATOM     14  C   UNL     1       3.165   4.945  19.851  0.00  0.00    +0.000 A 
ATOM     15  C   UNL     1       4.442   5.109  19.338  0.00  0.00    +0.000 A 
ATOM     16  C   UNL     1       5.081   3.868  19.044  0.00  0.00    +0.000 A 
ATOM     17  C   UNL     1       4.281   2.796  19.347  0.00  0.00    +0.000 A 
ATOM     18  S   UNL     1       2.784   3.277  20.012  0.00  0.00    +0.000 S 
ENDBRANCH  11  14
ENDBRANCH   5  10
BRANCH   6  19
ATOM     19  O   UNL     1       1.513   8.503  22.345  0.00  0.00    +0.000 OA
ATOM     20  H   UNL     1       0.950   7.717  22.475  0.00  0.00    +0.000 HD
ENDBRANCH   6  19
BRANCH   1  21
ATOM     21  S   UNL     1      -0.788  12.119  19.887  0.00  0.00    +0.000 S 
BRANCH  21  22
ATOM     22  C   UNL     1      -0.382  12.838  21.507  0.00  0.00    +0.000 C 
BRANCH  22  29
ATOM     23  C   UNL     1      -7.409  13.295  24.219  0.00  0.00    +0.000 C 
ATOM     24  C   UNL     1      -6.014  12.939  23.857  0.00  0.00    +0.000 A 
ATOM     25  N   UNL     1      -5.241  12.133  24.556  0.00  0.00    +0.000 NA
ATOM     26  N   UNL     1      -3.967  12.039  24.023  0.00  0.00    +0.000 NA
ATOM     27  C   UNL     1      -3.835  12.774  22.948  0.00  0.00    +0.000 A 
ATOM     28  N   UNL     1      -2.728  12.983  22.156  0.00  0.00    +0.000 N 
ATOM     29  C   UNL     1      -1.479  12.529  22.520  0.00  0.00    +0.000 C 
ATOM     30  O   UNL     1      -1.217  11.889  23.535  0.00  0.00    +0.000 OA
ATOM     31  S   UNL     1      -5.247  13.601  22.463  0.00  0.00    +0.000 S 
ATOM     32  H   UNL     1      -2.841  13.589  21.354  0.00  0.00    +0.000 HD
ENDBRANCH  22  29
ENDBRANCH  21  22
ENDBRANCH   1  21
TORSDOF 6
ENDMDL
MODEL 6
REMARK VINA RESULT:      -7.1      3.643      8.954
REMARK  Name = 
REMARK  7 active torsions:
REMARK  status: ('A' for Active; 'I' for Inactive)
REMARK    1  A    between atoms: C_1  and  C_2
REMARK    2  A    between atoms: C_7  and  C_9
REMARK    3  A    between atoms: C_9  and  S_10
REMARK    4  A    between atoms: S_10  and  C_11
REMARK    5  A    between atoms: C_15  and  N_16
REMARK    6  A    between atoms: C_17  and  C_19
REMARK    7  A    between atoms: C_24  and  O_25
REMARK                            x       y       z     vdW  Elec       q    Type
REMARK                         _______ _______ _______ _____ _____    ______ ____
ROOT
ATOM      1  C   UNL     1       0.569  11.414  20.701  0.00  0.00    +0.000 A 
ATOM      2  N   UNL     1       0.709  11.187  19.385  0.00  0.00    +0.000 NA
ATOM      3  C   UNL     1       1.237  10.008  19.033  0.00  0.00    +0.000 A 
ATOM      4  N   UNL     1       1.364   9.757  17.652  0.00  0.00    +0.000 N 
ATOM      5  C   UNL     1       1.622   9.034  19.946  0.00  0.00    +0.000 A 
ATOM      6  C   UNL     1       1.428   9.379  21.272  0.00  0.00    +0.000 A 
ATOM      7  N   UNL     1       0.916  10.561  21.674  0.00  0.00    +0.000 NA
ATOM      8  H   UNL     1       0.975  10.568  17.169  0.00  0.00    +0.000 HD
ATOM      9  H   UNL     1       0.854   8.917  17.391  0.00  0.00    +0.000 HD
ENDROOT
BRANCH   5  10
ATOM     10  N   UNL     1       2.206   7.847  19.438  0.00  0.00    +0.000 N 
ATOM     11  C   UNL     1       1.951   6.563  19.878  0.00  0.00    +0.000 C 
ATOM     12  O   UNL     1       1.222   6.355  20.847  0.00  0.00    +0.000 OA
ATOM     13  H   UNL     1       2.606   7.937  18.507  0.00  0.00    +0.000 HD
BRANCH  11  14
ATOM     14  C   UNL     1       2.560   5.499  19.088  0.00  0.00    +0.000 A 
ATOM     15  C   UNL     1       1.928   4.626  18.217  0.00  0.00    +0.000 A 
ATOM     16  C   UNL     1       2.821   3.664  17.657  0.00  0.00    +0.000 A 
ATOM     17  C   UNL     1       4.105   3.834  18.109  0.00  0.00    +0.000 A 
ATOM     18  S   UNL     1       4.243   5.162  19.172  0.00  0.00    +0.000 S 
ENDBRANCH  11  14
ENDBRANCH   5  10
BRANCH   6  19
ATOM     19  O   UNL     1       1.847   8.592  22.306  0.00  0.00    +0.000 OA
ATOM     20  H   UNL     1       1.057   8.156  22.674  0.00  0.00    +0.000 HD
ENDBRANCH   6  19
BRANCH   1  21
ATOM     21  S   UNL     1      -0.264  12.913  21.173  0.00  0.00    +0.000 S 
BRANCH  21  22
ATOM     22  C   UNL     1      -1.926  12.233  21.461  0.00  0.00    +0.000 C 
BRANCH  22  29
ATOM     23  C   UNL     1      -3.476  10.114  14.388  0.00  0.00    +0.000 C 
ATOM     24  C   UNL     1      -3.479  10.605  15.789  0.00  0.00    +0.000 A 
ATOM     25  N   UNL     1      -4.387  11.412  16.297  0.00  0.00    +0.000 NA
ATOM     26  N   UNL     1      -4.100  11.763  17.606  0.00  0.00    +0.000 NA
ATOM     27  C   UNL     1      -2.993  11.205  18.025  0.00  0.00    +0.000 A 
ATOM     28  N   UNL     1      -2.349  11.330  19.237  0.00  0.00    +0.000 N 
ATOM     29  C   UNL     1      -2.745  12.258  20.176  0.00  0.00    +0.000 C 
ATOM     30  O   UNL     1      -3.691  13.033  20.064  0.00  0.00    +0.000 OA
ATOM     31  S   UNL     1      -2.231  10.176  16.898  0.00  0.00    +0.000 S 
ATOM     32  H   UNL     1      -1.498  10.799  19.366  0.00  0.00    +0.000 HD
ENDBRANCH  22  29
ENDBRANCH  21  22
ENDBRANCH   1  21
TORSDOF 6
ENDMDL
MODEL 7
REMARK VINA RESULT:      -7.0      1.142      1.786
REMARK  Name = 
REMARK  7 active torsions:
REMARK  status: ('A' for Active; 'I' for Inactive)
REMARK    1  A    between atoms: C_1  and  C_2
REMARK    2  A    between atoms: C_7  and  C_9
REMARK    3  A    between atoms: C_9  and  S_10
REMARK    4  A    between atoms: S_10  and  C_11
REMARK    5  A    between atoms: C_15  and  N_16
REMARK    6  A    between atoms: C_17  and  C_19
REMARK    7  A    between atoms: C_24  and  O_25
REMARK                            x       y       z     vdW  Elec       q    Type
REMARK                         _______ _______ _______ _____ _____    ______ ____
ROOT
ATOM      1  C   UNL     1       2.405   6.711  19.103  0.00  0.00    +0.000 A 
ATOM      2  N   UNL     1       2.381   7.644  18.139  0.00  0.00    +0.000 NA
ATOM      3  C   UNL     1       1.863   8.834  18.469  0.00  0.00    +0.000 A 
ATOM      4  N   UNL     1       1.857   9.824  17.465  0.00  0.00    +0.000 N 
ATOM      5  C   UNL     1       1.375   9.136  19.735  0.00  0.00    +0.000 A 
ATOM      6  C   UNL     1       1.454   8.097  20.646  0.00  0.00    +0.000 A 
ATOM      7  N   UNL     1       1.952   6.878  20.353  0.00  0.00    +0.000 NA
ATOM      8  H   UNL     1       2.306   9.413  16.646  0.00  0.00    +0.000 HD
ATOM      9  H   UNL     1       2.370  10.647  17.771  0.00  0.00    +0.000 HD
ENDROOT
BRANCH   5  10
ATOM     10  N   UNL     1       0.815  10.422  19.936  0.00  0.00    +0.000 N 
ATOM     11  C   UNL     1      -0.451  10.825  19.557  0.00  0.00    +0.000 C 
ATOM     12  O   UNL     1      -1.190  10.082  18.913  0.00  0.00    +0.000 OA
ATOM     13  H   UNL     1       1.270  10.974  20.659  0.00  0.00    +0.000 HD
BRANCH  11  14
ATOM     14  C   UNL     1      -0.849  12.151  20.016  0.00  0.00    +0.000 A 
ATOM     15  C   UNL     1      -1.756  12.462  21.017  0.00  0.00    +0.000 A 
ATOM     16  C   UNL     1      -1.955  13.867  21.163  0.00  0.00    +0.000 A 
ATOM     17  C   UNL     1      -1.192  14.586  20.279  0.00  0.00    +0.000 A 
ATOM     18  S   UNL     1      -0.216  13.581  19.304  0.00  0.00    +0.000 S 
ENDBRANCH  11  14
ENDBRANCH   5  10
BRANCH   6  19
ATOM     19  O   UNL     1       0.925   8.178  21.902  0.00  0.00    +0.000 OA
ATOM     20  H   UNL     1       0.186   7.544  21.944  0.00  0.00    +0.000 HD
ENDBRANCH   6  19
BRANCH   1  21
ATOM     21  S   UNL     1       3.223   5.180  18.718  0.00  0.00    +0.000 S 
BRANCH  21  22
ATOM     22  C   UNL     1       4.886   5.585  19.334  0.00  0.00    +0.000 C 
BRANCH  22  29
ATOM     23  C   UNL     1       7.195   4.169  12.292  0.00  0.00    +0.000 C 
ATOM     24  C   UNL     1       6.947   4.688  13.661  0.00  0.00    +0.000 A 
ATOM     25  N   UNL     1       7.781   5.454  14.334  0.00  0.00    +0.000 NA
ATOM     26  N   UNL     1       7.323   5.727  15.612  0.00  0.00    +0.000 NA
ATOM     27  C   UNL     1       6.166   5.159  15.844  0.00  0.00    +0.000 A 
ATOM     28  N   UNL     1       5.403   5.154  16.991  0.00  0.00    +0.000 N 
ATOM     29  C   UNL     1       5.880   5.659  18.182  0.00  0.00    +0.000 C 
ATOM     30  O   UNL     1       6.982   6.175  18.351  0.00  0.00    +0.000 OA
ATOM     31  S   UNL     1       5.513   4.289  14.530  0.00  0.00    +0.000 S 
ATOM     32  H   UNL     1       4.524   4.656  16.960  0.00  0.00    +0.000 HD
ENDBRANCH  22  29
ENDBRANCH  21  22
ENDBRANCH   1  21
TORSDOF 6
ENDMDL
MODEL 8
REMARK VINA RESULT:      -7.0      1.729      2.016
REMARK  Name = 
REMARK  7 active torsions:
REMARK  status: ('A' for Active; 'I' for Inactive)
REMARK    1  A    between atoms: C_1  and  C_2
REMARK    2  A    between atoms: C_7  and  C_9
REMARK    3  A    between atoms: C_9  and  S_10
REMARK    4  A    between atoms: S_10  and  C_11
REMARK    5  A    between atoms: C_15  and  N_16
REMARK    6  A    between atoms: C_17  and  C_19
REMARK    7  A    between atoms: C_24  and  O_25
REMARK                            x       y       z     vdW  Elec       q    Type
REMARK                         _______ _______ _______ _____ _____    ______ ____
ROOT
ATOM      1  C   UNL     1       3.736   5.766  19.096  0.00  0.00    +0.000 A 
ATOM      2  N   UNL     1       3.016   6.027  20.199  0.00  0.00    +0.000 NA
ATOM      3  C   UNL     1       2.191   7.080  20.141  0.00  0.00    +0.000 A 
ATOM      4  N   UNL     1       1.417   7.343  21.289  0.00  0.00    +0.000 N 
ATOM      5  C   UNL     1       2.046   7.882  19.015  0.00  0.00    +0.000 A 
ATOM      6  C   UNL     1       2.836   7.515  17.940  0.00  0.00    +0.000 A 
ATOM      7  N   UNL     1       3.693   6.474  17.959  0.00  0.00    +0.000 NA
ATOM      8  H   UNL     1       1.636   6.610  21.964  0.00  0.00    +0.000 HD
ATOM      9  H   UNL     1       0.426   7.326  21.064  0.00  0.00    +0.000 HD
ENDROOT
BRANCH   5  10
ATOM     10  N   UNL     1       1.168   8.990  19.105  0.00  0.00    +0.000 N 
ATOM     11  C   UNL     1       1.414  10.262  18.625  0.00  0.00    +0.000 C 
ATOM     12  O   UNL     1       2.501  10.558  18.133  0.00  0.00    +0.000 OA
ATOM     13  H   UNL     1       0.194   8.748  19.269  0.00  0.00    +0.000 HD
BRANCH  11  14
ATOM     14  C   UNL     1       0.289  11.188  18.702  0.00  0.00    +0.000 A 
ATOM     15  C   UNL     1      -1.043  10.925  18.421  0.00  0.00    +0.000 A 
ATOM     16  C   UNL     1      -1.869  12.082  18.540  0.00  0.00    +0.000 A 
ATOM     17  C   UNL     1      -1.150  13.189  18.914  0.00  0.00    +0.000 A 
ATOM     18  S   UNL     1       0.502  12.832  19.155  0.00  0.00    +0.000 S 
ENDBRANCH  11  14
ENDBRANCH   5  10
BRANCH   6  19
ATOM     19  O   UNL     1       2.904   8.251  16.792  0.00  0.00    +0.000 OA
ATOM     20  H   UNL     1       3.835   8.246  16.502  0.00  0.00    +0.000 HD
ENDBRANCH   6  19
BRANCH   1  21
ATOM     21  S   UNL     1       4.723   4.287  19.113  0.00  0.00    +0.000 S 
BRANCH  21  22
ATOM     22  C   UNL     1       6.366   5.045  19.292  0.00  0.00    +0.000 C 
BRANCH  22  29
ATOM     23  C   UNL     1       6.990   4.044  11.839  0.00  0.00    +0.000 C 
ATOM     24  C   UNL     1       7.006   4.519  13.245  0.00  0.00    +0.000 A 
ATOM     25  N   UNL     1       7.804   5.459  13.709  0.00  0.00    +0.000 NA
ATOM     26  N   UNL     1       7.651   5.648  15.072  0.00  0.00    +0.000 NA
ATOM     27  C   UNL     1       6.744   4.847  15.574  0.00  0.00    +0.000 A 
ATOM     28  N   UNL     1       6.329   4.697  16.879  0.00  0.00    +0.000 N 
ATOM     29  C   UNL     1       6.984   5.313  17.924  0.00  0.00    +0.000 C 
ATOM     30  O   UNL     1       7.955   6.058  17.822  0.00  0.00    +0.000 OA
ATOM     31  S   UNL     1       5.969   3.834  14.441  0.00  0.00    +0.000 S 
ATOM     32  H   UNL     1       5.600   4.019  17.057  0.00  0.00    +0.000 HD
ENDBRANCH  22  29
ENDBRANCH  21  22
ENDBRANCH   1  21
TORSDOF 6
ENDMDL
MODEL 9
REMARK VINA RESULT:      -7.0      3.038      8.829
REMARK  Name = 
REMARK  7 active torsions:
REMARK  status: ('A' for Active; 'I' for Inactive)
REMARK    1  A    between atoms: C_1  and  C_2
REMARK    2  A    between atoms: C_7  and  C_9
REMARK    3  A    between atoms: C_9  and  S_10
REMARK    4  A    between atoms: S_10  and  C_11
REMARK    5  A    between atoms: C_15  and  N_16
REMARK    6  A    between atoms: C_17  and  C_19
REMARK    7  A    between atoms: C_24  and  O_25
REMARK                            x       y       z     vdW  Elec       q    Type
REMARK                         _______ _______ _______ _____ _____    ______ ____
ROOT
ATOM      1  C   UNL     1       0.850  10.840  20.316  0.00  0.00    +0.000 A 
ATOM      2  N   UNL     1       0.923   9.757  21.105  0.00  0.00    +0.000 NA
ATOM      3  C   UNL     1       1.322   8.618  20.525  0.00  0.00    +0.000 A 
ATOM      4  N   UNL     1       1.421   7.484  21.356  0.00  0.00    +0.000 N 
ATOM      5  C   UNL     1       1.667   8.519  19.182  0.00  0.00    +0.000 A 
ATOM      6  C   UNL     1       1.556   9.700  18.470  0.00  0.00    +0.000 A 
ATOM      7  N   UNL     1       1.142  10.865  19.008  0.00  0.00    +0.000 NA
ATOM      8  H   UNL     1       1.180   7.789  22.299  0.00  0.00    +0.000 HD
ATOM      9  H   UNL     1       2.366   7.109  21.340  0.00  0.00    +0.000 HD
ENDROOT
BRANCH   5  10
ATOM     10  N   UNL     1       2.033   7.242  18.688  0.00  0.00    +0.000 N 
ATOM     11  C   UNL     1       3.204   6.932  18.025  0.00  0.00    +0.000 C 
ATOM     12  O   UNL     1       4.019   7.805  17.730  0.00  0.00    +0.000 OA
ATOM     13  H   UNL     1       1.531   6.464  19.110  0.00  0.00    +0.000 HD
BRANCH  11  14
ATOM     14  C   UNL     1       3.415   5.514  17.756  0.00  0.00    +0.000 A 
ATOM     15  C   UNL     1       2.509   4.479  17.924  0.00  0.00    +0.000 A 
ATOM     16  C   UNL     1       3.071   3.202  17.623  0.00  0.00    +0.000 A 
ATOM     17  C   UNL     1       4.381   3.299  17.227  0.00  0.00    +0.000 A 
ATOM     18  S   UNL     1       4.922   4.917  17.185  0.00  0.00    +0.000 S 
ENDBRANCH  11  14
ENDBRANCH   5  10
BRANCH   6  19
ATOM     19  O   UNL     1       1.748   9.766  17.120  0.00  0.00    +0.000 OA
ATOM     20  H   UNL     1       2.382  10.488  16.955  0.00  0.00    +0.000 HD
ENDBRANCH   6  19
BRANCH   1  21
ATOM     21  S   UNL     1       0.462  12.385  21.107  0.00  0.00    +0.000 S 
BRANCH  21  22
ATOM     22  C   UNL     1      -1.268  12.047  21.554  0.00  0.00    +0.000 C 
BRANCH  22  29
ATOM     23  C   UNL     1      -3.413  10.141  14.576  0.00  0.00    +0.000 C 
ATOM     24  C   UNL     1      -3.292  10.609  15.980  0.00  0.00    +0.000 A 
ATOM     25  N   UNL     1      -4.111  11.464  16.557  0.00  0.00    +0.000 NA
ATOM     26  N   UNL     1      -3.717  11.776  17.847  0.00  0.00    +0.000 NA
ATOM     27  C   UNL     1      -2.622  11.142  18.185  0.00  0.00    +0.000 A 
ATOM     28  N   UNL     1      -1.894  11.207  19.353  0.00  0.00    +0.000 N 
ATOM     29  C   UNL     1      -2.167  12.144  20.327  0.00  0.00    +0.000 C 
ATOM     30  O   UNL     1      -3.067  12.978  20.286  0.00  0.00    +0.000 OA
ATOM     31  S   UNL     1      -2.004  10.084  16.998  0.00  0.00    +0.000 S 
ATOM     32  H   UNL     1      -1.072  10.622  19.419  0.00  0.00    +0.000 HD
ENDBRANCH  22  29
ENDBRANCH  21  22
ENDBRANCH   1  21
TORSDOF 6
ENDMDL
