MODEL 1
REMARK VINA RESULT:      -8.6      0.000      0.000
REMARK  Name = 
REMARK  3 active torsions:
REMARK  status: ('A' for Active; 'I' for Inactive)
REMARK    1  A    between atoms: C_2  and  C_3
REMARK    2  A    between atoms: C_5  and  C_6
REMARK    3  A    between atoms: C_11  and  C_12
REMARK                            x       y       z     vdW  Elec       q    Type
REMARK                         _______ _______ _______ _____ _____    ______ ____
ROOT
ATOM      1  C   UNL     1       3.912   5.089  19.657  0.00  0.00    +0.000 A 
ATOM      2  N   UNL     1       3.744   3.780  20.093  0.00  0.00    +0.000 NA
ATOM      3  C   UNL     1       2.527   3.690  20.592  0.00  0.00    +0.000 A 
ATOM      4  N   UNL     1       1.884   4.894  20.464  0.00  0.00    +0.000 N 
ATOM      5  C   UNL     1       2.722   5.793  19.837  0.00  0.00    +0.000 A 
ATOM      6  H   UNL     1       0.937   5.088  20.767  0.00  0.00    +0.000 HD
ENDROOT
BRANCH   1   8
ATOM      7  O   UNL     1       6.099   5.975  19.734  0.00  0.00    +0.000 OA
ATOM      8  C   UNL     1       5.161   5.582  19.042  0.00  0.00    +0.000 C 
ATOM      9  N   UNL     1       5.261   5.557  17.650  0.00  0.00    +0.000 N 
ATOM     10  C   UNL     1       6.526   5.943  17.006  0.00  0.00    +0.000 C 
ATOM     11  C   UNL     1       7.150   4.770  16.214  0.00  0.00    +0.000 C 
ATOM     12  N   UNL     1       6.147   4.128  15.362  0.00  0.00    +0.000 N 
ATOM     13  C   UNL     1       6.285   4.043  14.001  0.00  0.00    +0.000 A 
ATOM     14  N   UNL     1       7.405   4.502  13.425  0.00  0.00    +0.000 NA
ATOM     15  C   UNL     1       7.525   4.361  12.091  0.00  0.00    +0.000 A 
ATOM     16  C   UNL     1       6.569   3.780  11.297  0.00  0.00    +0.000 A 
ATOM     17  C   UNL     1       5.454   3.351  11.961  0.00  0.00    +0.000 A 
ATOM     18  N   UNL     1       5.293   3.476  13.291  0.00  0.00    +0.000 NA
ATOM     19  C   UNL     1       4.890   3.751  15.995  0.00  0.00    +0.000 C 
ATOM     20  C   UNL     1       4.288   4.960  16.723  0.00  0.00    +0.000 C 
ENDBRANCH   1   8
BRANCH   5  21
ATOM     21  C   UNL     1       2.300   7.147  19.477  0.00  0.00    +0.000 A 
ATOM     22  C   UNL     1       2.462   7.646  18.178  0.00  0.00    +0.000 A 
ATOM     23  C   UNL     1       1.948   8.896  17.824  0.00  0.00    +0.000 A 
ATOM     24  C   UNL     1       1.291   9.675  18.773  0.00  0.00    +0.000 A 
ATOM     25  C   UNL     1       1.157   9.210  20.077  0.00  0.00    +0.000 A 
ATOM     26  C   UNL     1       1.660   7.954  20.428  0.00  0.00    +0.000 A 
ENDBRANCH   5  21
BRANCH   3  27
ATOM     27  C   UNL     1       1.849   2.516  21.213  0.00  0.00    +0.000 C 
ATOM     28  F   UNL     1       0.763   2.850  21.952  0.00  0.00    +0.000 F 
ATOM     29  F   UNL     1       1.431   1.630  20.270  0.00  0.00    +0.000 F 
ATOM     30  F   UNL     1       2.694   1.832  22.030  0.00  0.00    +0.000 F 
ENDBRANCH   3  27
TORSDOF 3
ENDMDL
MODEL 2
REMARK VINA RESULT:      -8.3      3.329      7.913
REMARK  Name = 
REMARK  3 active torsions:
REMARK  status: ('A' for Active; 'I' for Inactive)
REMARK    1  A    between atoms: C_2  and  C_3
REMARK    2  A    between atoms: C_5  and  C_6
REMARK    3  A    between atoms: C_11  and  C_12
REMARK                            x       y       z     vdW  Elec       q    Type
REMARK                         _______ _______ _______ _____ _____    ______ ____
ROOT
ATOM      1  C   UNL     1       2.734   6.081  18.364  0.00  0.00    +0.000 A 
ATOM      2  N   UNL     1       1.668   5.253  18.698  0.00  0.00    +0.000 NA
ATOM      3  C   UNL     1       2.172   4.070  18.984  0.00  0.00    +0.000 A 
ATOM      4  N   UNL     1       3.538   4.109  18.879  0.00  0.00    +0.000 N 
ATOM      5  C   UNL     1       3.930   5.384  18.527  0.00  0.00    +0.000 A 
ATOM      6  H   UNL     1       4.162   3.330  19.050  0.00  0.00    +0.000 HD
ENDROOT
BRANCH   1   8
ATOM      7  O   UNL     1       2.741   7.858  16.809  0.00  0.00    +0.000 OA
ATOM      8  C   UNL     1       2.567   7.495  17.971  0.00  0.00    +0.000 C 
ATOM      9  N   UNL     1       2.171   8.406  18.953  0.00  0.00    +0.000 N 
ATOM     10  C   UNL     1       1.894   9.802  18.578  0.00  0.00    +0.000 C 
ATOM     11  C   UNL     1       0.420  10.187  18.842  0.00  0.00    +0.000 C 
ATOM     12  N   UNL     1       0.008   9.772  20.185  0.00  0.00    +0.000 N 
ATOM     13  C   UNL     1      -0.448  10.662  21.121  0.00  0.00    +0.000 A 
ATOM     14  N   UNL     1      -0.590  11.952  20.787  0.00  0.00    +0.000 NA
ATOM     15  C   UNL     1      -1.083  12.790  21.718  0.00  0.00    +0.000 A 
ATOM     16  C   UNL     1      -1.444  12.397  22.982  0.00  0.00    +0.000 A 
ATOM     17  C   UNL     1      -1.257  11.069  23.246  0.00  0.00    +0.000 A 
ATOM     18  N   UNL     1      -0.764  10.200  22.344  0.00  0.00    +0.000 NA
ATOM     19  C   UNL     1       0.287   8.392  20.561  0.00  0.00    +0.000 C 
ATOM     20  C   UNL     1       1.769   8.076  20.328  0.00  0.00    +0.000 C 
ENDBRANCH   1   8
BRANCH   5  21
ATOM     21  C   UNL     1       5.336   5.776  18.417  0.00  0.00    +0.000 A 
ATOM     22  C   UNL     1       5.783   6.634  17.404  0.00  0.00    +0.000 A 
ATOM     23  C   UNL     1       7.103   7.090  17.384  0.00  0.00    +0.000 A 
ATOM     24  C   UNL     1       8.001   6.668  18.361  0.00  0.00    +0.000 A 
ATOM     25  C   UNL     1       7.584   5.784  19.350  0.00  0.00    +0.000 A 
ATOM     26  C   UNL     1       6.259   5.339  19.378  0.00  0.00    +0.000 A 
ENDBRANCH   5  21
BRANCH   3  27
ATOM     27  C   UNL     1       1.466   2.817  19.379  0.00  0.00    +0.000 C 
ATOM     28  F   UNL     1       0.924   2.873  20.621  0.00  0.00    +0.000 F 
ATOM     29  F   UNL     1       0.454   2.527  18.518  0.00  0.00    +0.000 F 
ATOM     30  F   UNL     1       2.305   1.748  19.356  0.00  0.00    +0.000 F 
ENDBRANCH   3  27
TORSDOF 3
ENDMDL
MODEL 3
REMARK VINA RESULT:      -8.3      3.699      7.671
REMARK  Name = 
REMARK  3 active torsions:
REMARK  status: ('A' for Active; 'I' for Inactive)
REMARK    1  A    between atoms: C_2  and  C_3
REMARK    2  A    between atoms: C_5  and  C_6
REMARK    3  A    between atoms: C_11  and  C_12
REMARK                            x       y       z     vdW  Elec       q    Type
REMARK                         _______ _______ _______ _____ _____    ______ ____
ROOT
ATOM      1  C   UNL     1       5.194   4.054  16.070  0.00  0.00    +0.000 A 
ATOM      2  N   UNL     1       5.052   3.434  14.834  0.00  0.00    +0.000 NA
ATOM      3  C   UNL     1       5.941   3.974  14.025  0.00  0.00    +0.000 A 
ATOM      4  N   UNL     1       6.683   4.904  14.705  0.00  0.00    +0.000 N 
ATOM      5  C   UNL     1       6.261   4.950  16.018  0.00  0.00    +0.000 A 
ATOM      6  H   UNL     1       7.434   5.458  14.311  0.00  0.00    +0.000 HD
ENDROOT
BRANCH   1   8
ATOM      7  O   UNL     1       4.518   2.670  17.858  0.00  0.00    +0.000 OA
ATOM      8  C   UNL     1       4.359   3.722  17.241  0.00  0.00    +0.000 C 
ATOM      9  N   UNL     1       3.404   4.655  17.653  0.00  0.00    +0.000 N 
ATOM     10  C   UNL     1       2.626   4.405  18.876  0.00  0.00    +0.000 C 
ATOM     11  C   UNL     1       2.890   5.480  19.956  0.00  0.00    +0.000 C 
ATOM     12  N   UNL     1       2.801   6.825  19.382  0.00  0.00    +0.000 N 
ATOM     13  C   UNL     1       1.911   7.760  19.838  0.00  0.00    +0.000 A 
ATOM     14  N   UNL     1       1.133   7.469  20.890  0.00  0.00    +0.000 NA
ATOM     15  C   UNL     1       0.301   8.428  21.339  0.00  0.00    +0.000 A 
ATOM     16  C   UNL     1       0.207   9.677  20.780  0.00  0.00    +0.000 A 
ATOM     17  C   UNL     1       1.024   9.889  19.704  0.00  0.00    +0.000 A 
ATOM     18  N   UNL     1       1.867   8.956  19.223  0.00  0.00    +0.000 NA
ATOM     19  C   UNL     1       3.566   7.073  18.167  0.00  0.00    +0.000 C 
ATOM     20  C   UNL     1       3.231   6.010  17.112  0.00  0.00    +0.000 C 
ENDBRANCH   1   8
BRANCH   5  21
ATOM     21  C   UNL     1       6.911   5.786  17.028  0.00  0.00    +0.000 A 
ATOM     22  C   UNL     1       7.437   5.241  18.206  0.00  0.00    +0.000 A 
ATOM     23  C   UNL     1       8.157   6.034  19.102  0.00  0.00    +0.000 A 
ATOM     24  C   UNL     1       8.333   7.391  18.846  0.00  0.00    +0.000 A 
ATOM     25  C   UNL     1       7.782   7.957  17.700  0.00  0.00    +0.000 A 
ATOM     26  C   UNL     1       7.074   7.160  16.797  0.00  0.00    +0.000 A 
ENDBRANCH   5  21
BRANCH   3  27
ATOM     27  C   UNL     1       6.197   3.690  12.583  0.00  0.00    +0.000 C 
ATOM     28  F   UNL     1       7.116   4.516  12.026  0.00  0.00    +0.000 F 
ATOM     29  F   UNL     1       6.643   2.419  12.401  0.00  0.00    +0.000 F 
ATOM     30  F   UNL     1       5.058   3.802  11.848  0.00  0.00    +0.000 F 
ENDBRANCH   3  27
TORSDOF 3
ENDMDL
MODEL 4
REMARK VINA RESULT:      -8.3      3.683      7.633
REMARK  Name = 
REMARK  3 active torsions:
REMARK  status: ('A' for Active; 'I' for Inactive)
REMARK    1  A    between atoms: C_2  and  C_3
REMARK    2  A    between atoms: C_5  and  C_6
REMARK    3  A    between atoms: C_11  and  C_12
REMARK                            x       y       z     vdW  Elec       q    Type
REMARK                         _______ _______ _______ _____ _____    ______ ____
ROOT
ATOM      1  C   UNL     1       5.233   4.016  16.079  0.00  0.00    +0.000 A 
ATOM      2  N   UNL     1       5.009   3.406  14.850  0.00  0.00    +0.000 NA
ATOM      3  C   UNL     1       5.874   3.922  13.999  0.00  0.00    +0.000 A 
ATOM      4  N   UNL     1       6.678   4.824  14.644  0.00  0.00    +0.000 N 
ATOM      5  C   UNL     1       6.324   4.877  15.976  0.00  0.00    +0.000 A 
ATOM      6  H   UNL     1       7.425   5.356  14.214  0.00  0.00    +0.000 HD
ENDROOT
BRANCH   1   8
ATOM      7  O   UNL     1       4.662   2.684  17.943  0.00  0.00    +0.000 OA
ATOM      8  C   UNL     1       4.448   3.705  17.290  0.00  0.00    +0.000 C 
ATOM      9  N   UNL     1       3.476   4.622  17.696  0.00  0.00    +0.000 N 
ATOM     10  C   UNL     1       2.746   4.397  18.953  0.00  0.00    +0.000 C 
ATOM     11  C   UNL     1       3.008   5.524  19.980  0.00  0.00    +0.000 C 
ATOM     12  N   UNL     1       2.855   6.840  19.356  0.00  0.00    +0.000 N 
ATOM     13  C   UNL     1       1.948   7.764  19.804  0.00  0.00    +0.000 A 
ATOM     14  N   UNL     1       1.215   7.491  20.892  0.00  0.00    +0.000 NA
ATOM     15  C   UNL     1       0.365   8.440  21.330  0.00  0.00    +0.000 A 
ATOM     16  C   UNL     1       0.211   9.661  20.724  0.00  0.00    +0.000 A 
ATOM     17  C   UNL     1       0.985   9.855  19.615  0.00  0.00    +0.000 A 
ATOM     18  N   UNL     1       1.843   8.931  19.143  0.00  0.00    +0.000 NA
ATOM     19  C   UNL     1       3.571   7.063  18.107  0.00  0.00    +0.000 C 
ATOM     20  C   UNL     1       3.239   5.948  17.107  0.00  0.00    +0.000 C 
ENDBRANCH   1   8
BRANCH   5  21
ATOM     21  C   UNL     1       7.050   5.687  16.955  0.00  0.00    +0.000 A 
ATOM     22  C   UNL     1       7.261   7.059  16.763  0.00  0.00    +0.000 A 
ATOM     23  C   UNL     1       7.852   7.838  17.760  0.00  0.00    +0.000 A 
ATOM     24  C   UNL     1       8.269   7.248  18.950  0.00  0.00    +0.000 A 
ATOM     25  C   UNL     1       8.105   5.880  19.140  0.00  0.00    +0.000 A 
ATOM     26  C   UNL     1       7.500   5.103  18.148  0.00  0.00    +0.000 A 
ENDBRANCH   5  21
BRANCH   3  27
ATOM     27  C   UNL     1       6.047   3.636  12.545  0.00  0.00    +0.000 C 
ATOM     28  F   UNL     1       6.393   2.351  12.286  0.00  0.00    +0.000 F 
ATOM     29  F   UNL     1       4.904   3.887  11.852  0.00  0.00    +0.000 F 
ATOM     30  F   UNL     1       7.006   4.428  11.997  0.00  0.00    +0.000 F 
ENDBRANCH   3  27
TORSDOF 3
ENDMDL
MODEL 5
REMARK VINA RESULT:      -8.2      0.082      1.139
REMARK  Name = 
REMARK  3 active torsions:
REMARK  status: ('A' for Active; 'I' for Inactive)
REMARK    1  A    between atoms: C_2  and  C_3
REMARK    2  A    between atoms: C_5  and  C_6
REMARK    3  A    between atoms: C_11  and  C_12
REMARK                            x       y       z     vdW  Elec       q    Type
REMARK                         _______ _______ _______ _____ _____    ______ ____
ROOT
ATOM      1  C   UNL     1       3.876   5.094  19.650  0.00  0.00    +0.000 A 
ATOM      2  N   UNL     1       3.741   3.783  20.093  0.00  0.00    +0.000 NA
ATOM      3  C   UNL     1       2.524   3.664  20.586  0.00  0.00    +0.000 A 
ATOM      4  N   UNL     1       1.849   4.849  20.447  0.00  0.00    +0.000 N 
ATOM      5  C   UNL     1       2.666   5.766  19.818  0.00  0.00    +0.000 A 
ATOM      6  H   UNL     1       0.896   5.019  20.743  0.00  0.00    +0.000 HD
ENDROOT
BRANCH   1   8
ATOM      7  O   UNL     1       6.036   6.042  19.732  0.00  0.00    +0.000 OA
ATOM      8  C   UNL     1       5.114   5.616  19.039  0.00  0.00    +0.000 C 
ATOM      9  N   UNL     1       5.224   5.582  17.647  0.00  0.00    +0.000 N 
ATOM     10  C   UNL     1       6.482   5.997  17.007  0.00  0.00    +0.000 C 
ATOM     11  C   UNL     1       7.144   4.835  16.231  0.00  0.00    +0.000 C 
ATOM     12  N   UNL     1       6.166   4.157  15.378  0.00  0.00    +0.000 N 
ATOM     13  C   UNL     1       6.315   4.064  14.020  0.00  0.00    +0.000 A 
ATOM     14  N   UNL     1       7.426   4.548  13.446  0.00  0.00    +0.000 NA
ATOM     15  C   UNL     1       7.559   4.399  12.114  0.00  0.00    +0.000 A 
ATOM     16  C   UNL     1       6.625   3.784  11.320  0.00  0.00    +0.000 A 
ATOM     17  C   UNL     1       5.518   3.330  11.980  0.00  0.00    +0.000 A 
ATOM     18  N   UNL     1       5.345   3.462  13.309  0.00  0.00    +0.000 NA
ATOM     19  C   UNL     1       4.916   3.751  16.007  0.00  0.00    +0.000 C 
ATOM     20  C   UNL     1       4.275   4.948  16.720  0.00  0.00    +0.000 C 
ENDBRANCH   1   8
BRANCH   5  21
ATOM     21  C   UNL     1       2.210   7.106  19.447  0.00  0.00    +0.000 A 
ATOM     22  C   UNL     1       1.624   7.968  20.382  0.00  0.00    +0.000 A 
ATOM     23  C   UNL     1       1.302   9.283  20.038  0.00  0.00    +0.000 A 
ATOM     24  C   UNL     1       1.535   9.743  18.745  0.00  0.00    +0.000 A 
ATOM     25  C   UNL     1       2.079   8.887  17.793  0.00  0.00    +0.000 A 
ATOM     26  C   UNL     1       2.414   7.575  18.141  0.00  0.00    +0.000 A 
ENDBRANCH   5  21
BRANCH   3  27
ATOM     27  C   UNL     1       1.874   2.476  21.212  0.00  0.00    +0.000 C 
ATOM     28  F   UNL     1       2.693   1.793  22.049  0.00  0.00    +0.000 F 
ATOM     29  F   UNL     1       0.778   2.834  21.932  0.00  0.00    +0.000 F 
ATOM     30  F   UNL     1       1.441   1.597  20.270  0.00  0.00    +0.000 F 
ENDBRANCH   3  27
TORSDOF 3
ENDMDL
MODEL 6
REMARK VINA RESULT:      -8.2      5.220      7.546
REMARK  Name = 
REMARK  3 active torsions:
REMARK  status: ('A' for Active; 'I' for Inactive)
REMARK    1  A    between atoms: C_2  and  C_3
REMARK    2  A    between atoms: C_5  and  C_6
REMARK    3  A    between atoms: C_11  and  C_12
REMARK                            x       y       z     vdW  Elec       q    Type
REMARK                         _______ _______ _______ _____ _____    ______ ____
ROOT
ATOM      1  C   UNL     1      -0.837  10.691  18.836  0.00  0.00    +0.000 A 
ATOM      2  N   UNL     1      -1.810  10.105  18.034  0.00  0.00    +0.000 NA
ATOM      3  C   UNL     1      -2.225  11.029  17.191  0.00  0.00    +0.000 A 
ATOM      4  N   UNL     1      -1.529  12.191  17.396  0.00  0.00    +0.000 N 
ATOM      5  C   UNL     1      -0.610  11.998  18.407  0.00  0.00    +0.000 A 
ATOM      6  H   UNL     1      -1.657  13.051  16.877  0.00  0.00    +0.000 HD
ENDROOT
BRANCH   1   8
ATOM      7  O   UNL     1      -0.629   9.868  21.039  0.00  0.00    +0.000 OA
ATOM      8  C   UNL     1      -0.136   9.968  19.916  0.00  0.00    +0.000 C 
ATOM      9  N   UNL     1       1.089   9.369  19.617  0.00  0.00    +0.000 N 
ATOM     10  C   UNL     1       1.767   8.554  20.637  0.00  0.00    +0.000 C 
ATOM     11  C   UNL     1       1.912   7.080  20.193  0.00  0.00    +0.000 C 
ATOM     12  N   UNL     1       2.440   6.999  18.828  0.00  0.00    +0.000 N 
ATOM     13  C   UNL     1       3.607   6.348  18.530  0.00  0.00    +0.000 A 
ATOM     14  N   UNL     1       4.265   5.700  19.502  0.00  0.00    +0.000 NA
ATOM     15  C   UNL     1       5.386   5.034  19.164  0.00  0.00    +0.000 A 
ATOM     16  C   UNL     1       5.885   4.984  17.888  0.00  0.00    +0.000 A 
ATOM     17  C   UNL     1       5.163   5.680  16.960  0.00  0.00    +0.000 A 
ATOM     18  N   UNL     1       4.041   6.361  17.257  0.00  0.00    +0.000 NA
ATOM     19  C   UNL     1       1.775   7.811  17.818  0.00  0.00    +0.000 C 
ATOM     20  C   UNL     1       1.701   9.270  18.284  0.00  0.00    +0.000 C 
ENDBRANCH   1   8
BRANCH   5  21
ATOM     21  C   UNL     1       0.349  13.027  18.810  0.00  0.00    +0.000 A 
ATOM     22  C   UNL     1       1.687  12.987  18.399  0.00  0.00    +0.000 A 
ATOM     23  C   UNL     1       2.558  14.038  18.695  0.00  0.00    +0.000 A 
ATOM     24  C   UNL     1       2.109  15.129  19.433  0.00  0.00    +0.000 A 
ATOM     25  C   UNL     1       0.793  15.166  19.883  0.00  0.00    +0.000 A 
ATOM     26  C   UNL     1      -0.082  14.122  19.575  0.00  0.00    +0.000 A 
ENDBRANCH   5  21
BRANCH   3  27
ATOM     27  C   UNL     1      -3.273  10.934  16.134  0.00  0.00    +0.000 C 
ATOM     28  F   UNL     1      -4.279  11.830  16.291  0.00  0.00    +0.000 F 
ATOM     29  F   UNL     1      -2.748  11.140  14.897  0.00  0.00    +0.000 F 
ATOM     30  F   UNL     1      -3.838   9.698  16.107  0.00  0.00    +0.000 F 
ENDBRANCH   3  27
TORSDOF 3
ENDMDL
MODEL 7
REMARK VINA RESULT:      -8.0      3.010      8.066
REMARK  Name = 
REMARK  3 active torsions:
REMARK  status: ('A' for Active; 'I' for Inactive)
REMARK    1  A    between atoms: C_2  and  C_3
REMARK    2  A    between atoms: C_5  and  C_6
REMARK    3  A    between atoms: C_11  and  C_12
REMARK                            x       y       z     vdW  Elec       q    Type
REMARK                         _______ _______ _______ _____ _____    ______ ____
ROOT
ATOM      1  C   UNL     1       2.735   6.074  18.909  0.00  0.00    +0.000 A 
ATOM      2  N   UNL     1       2.029   5.547  19.984  0.00  0.00    +0.000 NA
ATOM      3  C   UNL     1       2.522   4.347  20.220  0.00  0.00    +0.000 A 
ATOM      4  N   UNL     1       3.551   4.089  19.353  0.00  0.00    +0.000 N 
ATOM      5  C   UNL     1       3.739   5.183  18.533  0.00  0.00    +0.000 A 
ATOM      6  H   UNL     1       4.098   3.238  19.328  0.00  0.00    +0.000 HD
ENDROOT
BRANCH   1   8
ATOM      7  O   UNL     1       2.574   7.623  17.134  0.00  0.00    +0.000 OA
ATOM      8  C   UNL     1       2.463   7.409  18.341  0.00  0.00    +0.000 C 
ATOM      9  N   UNL     1       2.039   8.418  19.208  0.00  0.00    +0.000 N 
ATOM     10  C   UNL     1       1.660   9.732  18.665  0.00  0.00    +0.000 C 
ATOM     11  C   UNL     1       0.173  10.059  18.936  0.00  0.00    +0.000 C 
ATOM     12  N   UNL     1      -0.168   9.803  20.337  0.00  0.00    +0.000 N 
ATOM     13  C   UNL     1      -0.651  10.781  21.166  0.00  0.00    +0.000 A 
ATOM     14  N   UNL     1      -0.888  12.004  20.670  0.00  0.00    +0.000 NA
ATOM     15  C   UNL     1      -1.404  12.928  21.502  0.00  0.00    +0.000 A 
ATOM     16  C   UNL     1      -1.697  12.687  22.820  0.00  0.00    +0.000 A 
ATOM     17  C   UNL     1      -1.415  11.420  23.249  0.00  0.00    +0.000 A 
ATOM     18  N   UNL     1      -0.895  10.469  22.451  0.00  0.00    +0.000 NA
ATOM     19  C   UNL     1       0.213   8.506  20.880  0.00  0.00    +0.000 C 
ATOM     20  C   UNL     1       1.705   8.252  20.630  0.00  0.00    +0.000 C 
ENDBRANCH   1   8
BRANCH   5  21
ATOM     21  C   UNL     1       4.820   5.257  17.550  0.00  0.00    +0.000 A 
ATOM     22  C   UNL     1       5.903   6.130  17.712  0.00  0.00    +0.000 A 
ATOM     23  C   UNL     1       6.982   6.103  16.826  0.00  0.00    +0.000 A 
ATOM     24  C   UNL     1       6.978   5.222  15.748  0.00  0.00    +0.000 A 
ATOM     25  C   UNL     1       5.892   4.376  15.549  0.00  0.00    +0.000 A 
ATOM     26  C   UNL     1       4.818   4.393  16.444  0.00  0.00    +0.000 A 
ENDBRANCH   5  21
BRANCH   3  27
ATOM     27  C   UNL     1       2.110   3.346  21.247  0.00  0.00    +0.000 C 
ATOM     28  F   UNL     1       0.818   2.953  21.128  0.00  0.00    +0.000 F 
ATOM     29  F   UNL     1       2.875   2.224  21.178  0.00  0.00    +0.000 F 
ATOM     30  F   UNL     1       2.266   3.836  22.505  0.00  0.00    +0.000 F 
ENDBRANCH   3  27
TORSDOF 3
ENDMDL
MODEL 8
REMARK VINA RESULT:      -7.8      2.994      8.029
REMARK  Name = 
REMARK  3 active torsions:
REMARK  status: ('A' for Active; 'I' for Inactive)
REMARK    1  A    between atoms: C_2  and  C_3
REMARK    2  A    between atoms: C_5  and  C_6
REMARK    3  A    between atoms: C_11  and  C_12
REMARK                            x       y       z     vdW  Elec       q    Type
REMARK                         _______ _______ _______ _____ _____    ______ ____
ROOT
ATOM      1  C   UNL     1       2.732   6.015  18.934  0.00  0.00    +0.000 A 
ATOM      2  N   UNL     1       2.006   5.496  20.000  0.00  0.00    +0.000 NA
ATOM      3  C   UNL     1       2.493   4.298  20.252  0.00  0.00    +0.000 A 
ATOM      4  N   UNL     1       3.537   4.032  19.405  0.00  0.00    +0.000 N 
ATOM      5  C   UNL     1       3.741   5.120  18.582  0.00  0.00    +0.000 A 
ATOM      6  H   UNL     1       4.082   3.179  19.396  0.00  0.00    +0.000 HD
ENDROOT
BRANCH   1   8
ATOM      7  O   UNL     1       2.587   7.547  17.143  0.00  0.00    +0.000 OA
ATOM      8  C   UNL     1       2.473   7.347  18.351  0.00  0.00    +0.000 C 
ATOM      9  N   UNL     1       2.058   8.369  19.208  0.00  0.00    +0.000 N 
ATOM     10  C   UNL     1       1.691   9.680  18.651  0.00  0.00    +0.000 C 
ATOM     11  C   UNL     1       0.207  10.023  18.917  0.00  0.00    +0.000 C 
ATOM     12  N   UNL     1      -0.137   9.785  20.321  0.00  0.00    +0.000 N 
ATOM     13  C   UNL     1      -0.612  10.777  21.139  0.00  0.00    +0.000 A 
ATOM     14  N   UNL     1      -0.837  11.996  20.630  0.00  0.00    +0.000 NA
ATOM     15  C   UNL     1      -1.346  12.934  21.452  0.00  0.00    +0.000 A 
ATOM     16  C   UNL     1      -1.642  12.708  22.772  0.00  0.00    +0.000 A 
ATOM     17  C   UNL     1      -1.371  11.444  23.215  0.00  0.00    +0.000 A 
ATOM     18  N   UNL     1      -0.860  10.480  22.427  0.00  0.00    +0.000 NA
ATOM     19  C   UNL     1       0.232   8.491  20.878  0.00  0.00    +0.000 C 
ATOM     20  C   UNL     1       1.722   8.220  20.631  0.00  0.00    +0.000 C 
ENDBRANCH   1   8
BRANCH   5  21
ATOM     21  C   UNL     1       4.840   5.185  17.618  0.00  0.00    +0.000 A 
ATOM     22  C   UNL     1       4.794   4.492  16.402  0.00  0.00    +0.000 A 
ATOM     23  C   UNL     1       5.797   4.658  15.445  0.00  0.00    +0.000 A 
ATOM     24  C   UNL     1       6.877   5.498  15.705  0.00  0.00    +0.000 A 
ATOM     25  C   UNL     1       6.959   6.163  16.924  0.00  0.00    +0.000 A 
ATOM     26  C   UNL     1       5.947   6.007  17.876  0.00  0.00    +0.000 A 
ENDBRANCH   5  21
BRANCH   3  27
ATOM     27  C   UNL     1       2.061   3.304  21.278  0.00  0.00    +0.000 C 
ATOM     28  F   UNL     1       2.697   2.112  21.175  0.00  0.00    +0.000 F 
ATOM     29  F   UNL     1       2.284   3.766  22.538  0.00  0.00    +0.000 F 
ATOM     30  F   UNL     1       0.727   3.056  21.195  0.00  0.00    +0.000 F 
ENDBRANCH   3  27
TORSDOF 3
ENDMDL
MODEL 9
REMARK VINA RESULT:      -7.6      2.982      7.972
REMARK  Name = 
REMARK  3 active torsions:
REMARK  status: ('A' for Active; 'I' for Inactive)
REMARK    1  A    between atoms: C_2  and  C_3
REMARK    2  A    between atoms: C_5  and  C_6
REMARK    3  A    between atoms: C_11  and  C_12
REMARK                            x       y       z     vdW  Elec       q    Type
REMARK                         _______ _______ _______ _____ _____    ______ ____
ROOT
ATOM      1  C   UNL     1       2.589   5.796  18.731  0.00  0.00    +0.000 A 
ATOM      2  N   UNL     1       1.512   5.129  19.302  0.00  0.00    +0.000 NA
ATOM      3  C   UNL     1       1.917   3.906  19.581  0.00  0.00    +0.000 A 
ATOM      4  N   UNL     1       3.237   3.766  19.242  0.00  0.00    +0.000 N 
ATOM      5  C   UNL     1       3.706   4.961  18.736  0.00  0.00    +0.000 A 
ATOM      6  H   UNL     1       3.786   2.923  19.358  0.00  0.00    +0.000 HD
ENDROOT
BRANCH   1   8
ATOM      7  O   UNL     1       2.757   7.498  17.103  0.00  0.00    +0.000 OA
ATOM      8  C   UNL     1       2.521   7.198  18.273  0.00  0.00    +0.000 C 
ATOM      9  N   UNL     1       2.145   8.174  19.198  0.00  0.00    +0.000 N 
ATOM     10  C   UNL     1       1.966   9.565  18.754  0.00  0.00    +0.000 C 
ATOM     11  C   UNL     1       0.509  10.047  18.945  0.00  0.00    +0.000 C 
ATOM     12  N   UNL     1       0.025   9.717  20.288  0.00  0.00    +0.000 N 
ATOM     13  C   UNL     1      -0.411  10.673  21.167  0.00  0.00    +0.000 A 
ATOM     14  N   UNL     1      -0.463  11.953  20.772  0.00  0.00    +0.000 NA
ATOM     15  C   UNL     1      -0.938  12.859  21.648  0.00  0.00    +0.000 A 
ATOM     16  C   UNL     1      -1.366  12.544  22.912  0.00  0.00    +0.000 A 
ATOM     17  C   UNL     1      -1.268  11.221  23.240  0.00  0.00    +0.000 A 
ATOM     18  N   UNL     1      -0.796  10.285  22.395  0.00  0.00    +0.000 NA
ATOM     19  C   UNL     1       0.208   8.341  20.733  0.00  0.00    +0.000 C 
ATOM     20  C   UNL     1       1.676   7.930  20.570  0.00  0.00    +0.000 C 
ENDBRANCH   1   8
BRANCH   5  21
ATOM     21  C   UNL     1       5.105   5.165  18.359  0.00  0.00    +0.000 A 
ATOM     22  C   UNL     1       6.075   5.530  19.301  0.00  0.00    +0.000 A 
ATOM     23  C   UNL     1       7.424   5.605  18.946  0.00  0.00    +0.000 A 
ATOM     24  C   UNL     1       7.816   5.345  17.636  0.00  0.00    +0.000 A 
ATOM     25  C   UNL     1       6.860   5.020  16.678  0.00  0.00    +0.000 A 
ATOM     26  C   UNL     1       5.512   4.931  17.037  0.00  0.00    +0.000 A 
ENDBRANCH   5  21
BRANCH   3  27
ATOM     27  C   UNL     1       1.151   2.775  20.182  0.00  0.00    +0.000 C 
ATOM     28  F   UNL     1      -0.025   2.528  19.554  0.00  0.00    +0.000 F 
ATOM     29  F   UNL     1       1.869   1.621  20.150  0.00  0.00    +0.000 F 
ATOM     30  F   UNL     1       0.866   3.011  21.490  0.00  0.00    +0.000 F 
ENDBRANCH   3  27
TORSDOF 3
ENDMDL
