MODEL 1
REMARK VINA RESULT:      -6.6      0.000      0.000
REMARK  Name = 
REMARK  8 active torsions:
REMARK  status: ('A' for Active; 'I' for Inactive)
REMARK    1  A    between atoms: C_1  and  C_2
REMARK    2  A    between atoms: N_6  and  C_7
REMARK    3  A    between atoms: C_7  and  C_8
REMARK    4  A    between atoms: C_8  and  O_9
REMARK    5  A    between atoms: O_9  and  C_10
REMARK    6  A    between atoms: C_22  and  N_23
REMARK    7  A    between atoms: N_23  and  S_24
REMARK    8  A    between atoms: S_24  and  C_27
REMARK                            x       y       z     vdW  Elec       q    Type
REMARK                         _______ _______ _______ _____ _____    ______ ____
ROOT
ATOM      1  C   UNL     1       1.097   8.720  19.809  0.00  0.00    +0.000 A 
ATOM      2  C   UNL     1       1.883   8.816  18.660  0.00  0.00    +0.000 A 
ATOM      3  C   UNL     1       1.623   9.834  17.765  0.00  0.00    +0.000 A 
ATOM      4  C   UNL     1       0.841  10.860  18.281  0.00  0.00    +0.000 A 
ATOM      5  C   UNL     1      -0.306  10.501  18.969  0.00  0.00    +0.000 A 
ATOM      6  C   UNL     1      -0.117   9.431  19.859  0.00  0.00    +0.000 A 
ATOM      7  C   UNL     1      -1.436  11.516  18.961  0.00  0.00    +0.000 C 
ATOM      8  C   UNL     1      -1.302  12.705  19.956  0.00  0.00    +0.000 C 
ATOM      9  C   UNL     1      -1.151  12.138  21.360  0.00  0.00    +0.000 C 
ATOM     10  C   UNL     1       0.372  11.984  21.529  0.00  0.00    +0.000 C 
ATOM     11  C   UNL     1       1.075  12.636  20.292  0.00  0.00    +0.000 C 
ATOM     12  C   UNL     1       1.690  11.905  19.063  0.00  0.00    +0.000 C 
ATOM     13  C   UNL     1      -0.018  13.530  19.731  0.00  0.00    +0.000 C 
ENDROOT
BRANCH  13  14
ATOM     14  N   UNL     1       0.089  14.799  20.483  0.00  0.00    +0.000 NA
ATOM     15  H   UNL     1       0.625  14.716  21.348  0.00  0.00    +0.000 HD
BRANCH  14  16
ATOM     16  S   UNL     1       0.667  16.128  19.662  0.00  0.00    +0.000 S 
ATOM     17  O   UNL     1      -0.119  16.223  18.437  0.00  0.00    +0.000 OA
ATOM     18  O   UNL     1       0.808  17.229  20.567  0.00  0.00    +0.000 OA
BRANCH  16  19
ATOM     19  C   UNL     1       2.299  15.679  19.173  0.00  0.00    +0.000 A 
ATOM     20  C   UNL     1       2.827  15.395  17.923  0.00  0.00    +0.000 A 
ATOM     21  C   UNL     1       4.225  15.140  17.989  0.00  0.00    +0.000 A 
ATOM     22  C   UNL     1       4.688  15.260  19.275  0.00  0.00    +0.000 A 
ATOM     23 CL   UNL     1       6.308  15.027  19.805  0.00  0.00    +0.000 Cl
ATOM     24  S   UNL     1       3.499  15.695  20.386  0.00  0.00    +0.000 S 
ENDBRANCH  16  19
ENDBRANCH  14  16
ENDBRANCH  13  14
BRANCH   1  25
ATOM     25  O   UNL     1       1.687   7.992  20.800  0.00  0.00    +0.000 OA
BRANCH  25  26
ATOM     26  C   UNL     1       1.490   6.579  20.826  0.00  0.00    +0.000 C 
BRANCH  26  27
ATOM     27  C   UNL     1       2.721   5.919  20.179  0.00  0.00    +0.000 C 
BRANCH  27  33
ATOM     28  C   UNL     1       1.882   3.945  17.590  0.00  0.00    +0.000 C 
ATOM     29  C   UNL     1       1.456   4.110  19.045  0.00  0.00    +0.000 C 
ATOM     30  C   UNL     1       0.961   2.777  19.605  0.00  0.00    +0.000 C 
ATOM     31  C   UNL     1       1.169   2.936  21.092  0.00  0.00    +0.000 C 
ATOM     32  C   UNL     1       2.463   3.724  21.178  0.00  0.00    +0.000 C 
ATOM     33  N   UNL     1       2.587   4.477  19.917  0.00  0.00    +0.000 NA
ENDBRANCH  27  33
ENDBRANCH  26  27
ENDBRANCH  25  26
ENDBRANCH   1  25
TORSDOF 7
ENDMDL
MODEL 2
REMARK VINA RESULT:      -6.6      7.172      8.907
REMARK  Name = 
REMARK  8 active torsions:
REMARK  status: ('A' for Active; 'I' for Inactive)
REMARK    1  A    between atoms: C_1  and  C_2
REMARK    2  A    between atoms: N_6  and  C_7
REMARK    3  A    between atoms: C_7  and  C_8
REMARK    4  A    between atoms: C_8  and  O_9
REMARK    5  A    between atoms: O_9  and  C_10
REMARK    6  A    between atoms: C_22  and  N_23
REMARK    7  A    between atoms: N_23  and  S_24
REMARK    8  A    between atoms: S_24  and  C_27
REMARK                            x       y       z     vdW  Elec       q    Type
REMARK                         _______ _______ _______ _____ _____    ______ ____
ROOT
ATOM      1  C   UNL     1       9.339  10.429  19.517  0.00  0.00    +0.000 A 
ATOM      2  C   UNL     1       9.094  10.792  20.842  0.00  0.00    +0.000 A 
ATOM      3  C   UNL     1       9.815  11.836  21.384  0.00  0.00    +0.000 A 
ATOM      4  C   UNL     1      10.451  12.639  20.445  0.00  0.00    +0.000 A 
ATOM      5  C   UNL     1      11.173  12.002  19.449  0.00  0.00    +0.000 A 
ATOM      6  C   UNL     1      10.512  10.895  18.894  0.00  0.00    +0.000 A 
ATOM      7  C   UNL     1      12.333  12.787  18.859  0.00  0.00    +0.000 C 
ATOM      8  C   UNL     1      11.965  13.865  17.798  0.00  0.00    +0.000 C 
ATOM      9  C   UNL     1      11.197  13.187  16.673  0.00  0.00    +0.000 C 
ATOM     10  C   UNL     1       9.727  13.298  17.118  0.00  0.00    +0.000 C 
ATOM     11  C   UNL     1       9.663  14.199  18.395  0.00  0.00    +0.000 C 
ATOM     12  C   UNL     1       9.501  13.730  19.871  0.00  0.00    +0.000 C 
ATOM     13  C   UNL     1      10.993  14.932  18.343  0.00  0.00    +0.000 C 
ENDROOT
BRANCH  13  14
ATOM     14  N   UNL     1      10.757  16.109  17.480  0.00  0.00    +0.000 NA
ATOM     15  H   UNL     1       9.851  16.095  17.010  0.00  0.00    +0.000 HD
BRANCH  14  16
ATOM     16  S   UNL     1      10.938  17.613  18.173  0.00  0.00    +0.000 S 
ATOM     17  O   UNL     1      12.035  17.493  19.126  0.00  0.00    +0.000 OA
ATOM     18  O   UNL     1      10.919  18.618  17.153  0.00  0.00    +0.000 OA
BRANCH  16  19
ATOM     19  C   UNL     1       9.474  17.848  19.126  0.00  0.00    +0.000 A 
ATOM     20  C   UNL     1       9.258  18.555  20.297  0.00  0.00    +0.000 A 
ATOM     21  C   UNL     1       7.889  18.524  20.683  0.00  0.00    +0.000 A 
ATOM     22  C   UNL     1       7.137  17.816  19.780  0.00  0.00    +0.000 A 
ATOM     23 CL   UNL     1       5.444  17.522  19.865  0.00  0.00    +0.000 Cl
ATOM     24  S   UNL     1       8.026  17.218  18.481  0.00  0.00    +0.000 S 
ENDBRANCH  16  19
ENDBRANCH  14  16
ENDBRANCH  13  14
BRANCH   1  25
ATOM     25  O   UNL     1       8.316   9.719  18.961  0.00  0.00    +0.000 OA
BRANCH  25  26
ATOM     26  C   UNL     1       8.585   8.903  17.821  0.00  0.00    +0.000 C 
BRANCH  26  27
ATOM     27  C   UNL     1       7.319   8.079  17.523  0.00  0.00    +0.000 C 
BRANCH  27  33
ATOM     28  C   UNL     1       6.621   5.416  15.593  0.00  0.00    +0.000 C 
ATOM     29  C   UNL     1       6.376   5.835  17.039  0.00  0.00    +0.000 C 
ATOM     30  C   UNL     1       6.296   4.604  17.940  0.00  0.00    +0.000 C 
ATOM     31  C   UNL     1       6.667   5.152  19.297  0.00  0.00    +0.000 C 
ATOM     32  C   UNL     1       7.734   6.181  18.974  0.00  0.00    +0.000 C 
ATOM     33  N   UNL     1       7.497   6.619  17.587  0.00  0.00    +0.000 NA
ENDBRANCH  27  33
ENDBRANCH  26  27
ENDBRANCH  25  26
ENDBRANCH   1  25
TORSDOF 7
ENDMDL
MODEL 3
REMARK VINA RESULT:      -6.5      6.849      8.558
REMARK  Name = 
REMARK  8 active torsions:
REMARK  status: ('A' for Active; 'I' for Inactive)
REMARK    1  A    between atoms: C_1  and  C_2
REMARK    2  A    between atoms: N_6  and  C_7
REMARK    3  A    between atoms: C_7  and  C_8
REMARK    4  A    between atoms: C_8  and  O_9
REMARK    5  A    between atoms: O_9  and  C_10
REMARK    6  A    between atoms: C_22  and  N_23
REMARK    7  A    between atoms: N_23  and  S_24
REMARK    8  A    between atoms: S_24  and  C_27
REMARK                            x       y       z     vdW  Elec       q    Type
REMARK                         _______ _______ _______ _____ _____    ______ ____
ROOT
ATOM      1  C   UNL     1       9.352  10.098  18.732  0.00  0.00    +0.000 A 
ATOM      2  C   UNL     1       9.026  10.089  20.088  0.00  0.00    +0.000 A 
ATOM      3  C   UNL     1       9.663  10.980  20.928  0.00  0.00    +0.000 A 
ATOM      4  C   UNL     1      10.299  12.027  20.270  0.00  0.00    +0.000 A 
ATOM      5  C   UNL     1      11.101  11.704  19.188  0.00  0.00    +0.000 A 
ATOM      6  C   UNL     1      10.527  10.758  18.324  0.00  0.00    +0.000 A 
ATOM      7  C   UNL     1      12.244  12.661  18.894  0.00  0.00    +0.000 C 
ATOM      8  C   UNL     1      11.870  13.966  18.132  0.00  0.00    +0.000 C 
ATOM      9  C   UNL     1      11.194  13.579  16.825  0.00  0.00    +0.000 C 
ATOM     10  C   UNL     1       9.701  13.511  17.193  0.00  0.00    +0.000 C 
ATOM     11  C   UNL     1       9.527  14.040  18.656  0.00  0.00    +0.000 C 
ATOM     12  C   UNL     1       9.321  13.193  19.946  0.00  0.00    +0.000 C 
ATOM     13  C   UNL     1      10.817  14.812  18.877  0.00  0.00    +0.000 C 
ENDROOT
BRANCH  13  14
ATOM     14  N   UNL     1      10.561  16.166  18.339  0.00  0.00    +0.000 NA
ATOM     15  H   UNL     1       9.834  16.188  17.622  0.00  0.00    +0.000 HD
BRANCH  14  16
ATOM     16  S   UNL     1      10.218  17.372  19.435  0.00  0.00    +0.000 S 
ATOM     17  O   UNL     1      10.607  16.856  20.743  0.00  0.00    +0.000 OA
ATOM     18  O   UNL     1      10.696  18.626  18.936  0.00  0.00    +0.000 OA
BRANCH  16  19
ATOM     19  C   UNL     1       8.459  17.482  19.447  0.00  0.00    +0.000 A 
ATOM     20  C   UNL     1       7.510  16.950  18.588  0.00  0.00    +0.000 A 
ATOM     21  C   UNL     1       6.188  17.244  19.021  0.00  0.00    +0.000 A 
ATOM     22  C   UNL     1       6.199  17.964  20.190  0.00  0.00    +0.000 A 
ATOM     23 CL   UNL     1       4.825  18.536  21.053  0.00  0.00    +0.000 Cl
ATOM     24  S   UNL     1       7.745  18.265  20.784  0.00  0.00    +0.000 S 
ENDBRANCH  16  19
ENDBRANCH  14  16
ENDBRANCH  13  14
BRANCH   1  25
ATOM     25  O   UNL     1       8.397   9.521  17.949  0.00  0.00    +0.000 OA
BRANCH  25  26
ATOM     26  C   UNL     1       7.967   8.195  18.254  0.00  0.00    +0.000 C 
BRANCH  26  27
ATOM     27  C   UNL     1       7.616   7.496  16.928  0.00  0.00    +0.000 C 
BRANCH  27  33
ATOM     28  C   UNL     1       6.106   5.110  15.102  0.00  0.00    +0.000 C 
ATOM     29  C   UNL     1       6.042   5.617  16.539  0.00  0.00    +0.000 C 
ATOM     30  C   UNL     1       5.633   4.487  17.481  0.00  0.00    +0.000 C 
ATOM     31  C   UNL     1       6.192   4.934  18.811  0.00  0.00    +0.000 C 
ATOM     32  C   UNL     1       7.503   5.595  18.430  0.00  0.00    +0.000 C 
ATOM     33  N   UNL     1       7.361   6.050  17.035  0.00  0.00    +0.000 NA
ENDBRANCH  27  33
ENDBRANCH  26  27
ENDBRANCH  25  26
ENDBRANCH   1  25
TORSDOF 7
ENDMDL
MODEL 4
REMARK VINA RESULT:      -6.5      0.456      1.184
REMARK  Name = 
REMARK  8 active torsions:
REMARK  status: ('A' for Active; 'I' for Inactive)
REMARK    1  A    between atoms: C_1  and  C_2
REMARK    2  A    between atoms: N_6  and  C_7
REMARK    3  A    between atoms: C_7  and  C_8
REMARK    4  A    between atoms: C_8  and  O_9
REMARK    5  A    between atoms: O_9  and  C_10
REMARK    6  A    between atoms: C_22  and  N_23
REMARK    7  A    between atoms: N_23  and  S_24
REMARK    8  A    between atoms: S_24  and  C_27
REMARK                            x       y       z     vdW  Elec       q    Type
REMARK                         _______ _______ _______ _____ _____    ______ ____
ROOT
ATOM      1  C   UNL     1       1.219   8.674  19.732  0.00  0.00    +0.000 A 
ATOM      2  C   UNL     1       1.989   8.797  18.574  0.00  0.00    +0.000 A 
ATOM      3  C   UNL     1       1.699   9.820  17.694  0.00  0.00    +0.000 A 
ATOM      4  C   UNL     1       0.904  10.826  18.231  0.00  0.00    +0.000 A 
ATOM      5  C   UNL     1      -0.227  10.438  18.929  0.00  0.00    +0.000 A 
ATOM      6  C   UNL     1      -0.007   9.362  19.804  0.00  0.00    +0.000 A 
ATOM      7  C   UNL     1      -1.375  11.431  18.946  0.00  0.00    +0.000 C 
ATOM      8  C   UNL     1      -1.250  12.612  19.953  0.00  0.00    +0.000 C 
ATOM      9  C   UNL     1      -1.072  12.033  21.348  0.00  0.00    +0.000 C 
ATOM     10  C   UNL     1       0.456  11.905  21.496  0.00  0.00    +0.000 C 
ATOM     11  C   UNL     1       1.131  12.584  20.259  0.00  0.00    +0.000 C 
ATOM     12  C   UNL     1       1.744  11.877  19.014  0.00  0.00    +0.000 C 
ATOM     13  C   UNL     1       0.015  13.463  19.721  0.00  0.00    +0.000 C 
ENDROOT
BRANCH  13  14
ATOM     14  N   UNL     1       0.108  14.726  20.486  0.00  0.00    +0.000 NA
ATOM     15  H   UNL     1       0.650  14.642  21.346  0.00  0.00    +0.000 HD
BRANCH  14  16
ATOM     16  S   UNL     1       0.661  16.071  19.675  0.00  0.00    +0.000 S 
ATOM     17  O   UNL     1      -0.132  16.166  18.455  0.00  0.00    +0.000 OA
ATOM     18  O   UNL     1       0.789  17.165  20.590  0.00  0.00    +0.000 OA
BRANCH  16  19
ATOM     19  C   UNL     1       2.297  15.652  19.173  0.00  0.00    +0.000 A 
ATOM     20  C   UNL     1       2.826  15.405  17.916  0.00  0.00    +0.000 A 
ATOM     21  C   UNL     1       4.227  15.164  17.975  0.00  0.00    +0.000 A 
ATOM     22  C   UNL     1       4.691  15.258  19.263  0.00  0.00    +0.000 A 
ATOM     23 CL   UNL     1       6.314  15.029  19.785  0.00  0.00    +0.000 Cl
ATOM     24  S   UNL     1       3.499  15.653  20.385  0.00  0.00    +0.000 S 
ENDBRANCH  16  19
ENDBRANCH  14  16
ENDBRANCH  13  14
BRANCH   1  25
ATOM     25  O   UNL     1       1.835   7.947  20.707  0.00  0.00    +0.000 OA
BRANCH  25  26
ATOM     26  C   UNL     1       1.430   6.595  20.917  0.00  0.00    +0.000 C 
BRANCH  26  27
ATOM     27  C   UNL     1       2.303   5.697  20.022  0.00  0.00    +0.000 C 
BRANCH  27  33
ATOM     28  C   UNL     1       1.381   2.721  21.287  0.00  0.00    +0.000 C 
ATOM     29  C   UNL     1       2.186   3.218  20.091  0.00  0.00    +0.000 C 
ATOM     30  C   UNL     1       2.091   2.221  18.938  0.00  0.00    +0.000 C 
ATOM     31  C   UNL     1       2.372   3.077  17.726  0.00  0.00    +0.000 C 
ATOM     32  C   UNL     1       1.699   4.392  18.068  0.00  0.00    +0.000 C 
ATOM     33  N   UNL     1       1.643   4.472  19.538  0.00  0.00    +0.000 NA
ENDBRANCH  27  33
ENDBRANCH  26  27
ENDBRANCH  25  26
ENDBRANCH   1  25
TORSDOF 7
ENDMDL
MODEL 5
REMARK VINA RESULT:      -6.5      7.179      8.998
REMARK  Name = 
REMARK  8 active torsions:
REMARK  status: ('A' for Active; 'I' for Inactive)
REMARK    1  A    between atoms: C_1  and  C_2
REMARK    2  A    between atoms: N_6  and  C_7
REMARK    3  A    between atoms: C_7  and  C_8
REMARK    4  A    between atoms: C_8  and  O_9
REMARK    5  A    between atoms: O_9  and  C_10
REMARK    6  A    between atoms: C_22  and  N_23
REMARK    7  A    between atoms: N_23  and  S_24
REMARK    8  A    between atoms: S_24  and  C_27
REMARK                            x       y       z     vdW  Elec       q    Type
REMARK                         _______ _______ _______ _____ _____    ______ ____
ROOT
ATOM      1  C   UNL     1       9.212  10.299  18.910  0.00  0.00    +0.000 A 
ATOM      2  C   UNL     1       8.950  10.399  20.277  0.00  0.00    +0.000 A 
ATOM      3  C   UNL     1       9.706  11.272  21.032  0.00  0.00    +0.000 A 
ATOM      4  C   UNL     1      10.405  12.213  20.286  0.00  0.00    +0.000 A 
ATOM      5  C   UNL     1      11.122  11.753  19.193  0.00  0.00    +0.000 A 
ATOM      6  C   UNL     1      10.422  10.818  18.414  0.00  0.00    +0.000 A 
ATOM      7  C   UNL     1      12.333  12.578  18.793  0.00  0.00    +0.000 C 
ATOM      8  C   UNL     1      12.046  13.866  17.968  0.00  0.00    +0.000 C 
ATOM      9  C   UNL     1      11.277  13.471  16.717  0.00  0.00    +0.000 C 
ATOM     10  C   UNL     1       9.803  13.568  17.150  0.00  0.00    +0.000 C 
ATOM     11  C   UNL     1       9.748  14.194  18.583  0.00  0.00    +0.000 C 
ATOM     12  C   UNL     1       9.525  13.447  19.930  0.00  0.00    +0.000 C 
ATOM     13  C   UNL     1      11.113  14.851  18.703  0.00  0.00    +0.000 C 
ENDROOT
BRANCH  13  14
ATOM     14  N   UNL     1      10.959  16.190  18.093  0.00  0.00    +0.000 NA
ATOM     15  H   UNL     1      10.128  16.277  17.506  0.00  0.00    +0.000 HD
BRANCH  14  16
ATOM     16  S   UNL     1      10.988  17.503  19.116  0.00  0.00    +0.000 S 
ATOM     17  O   UNL     1      12.333  17.553  19.677  0.00  0.00    +0.000 OA
ATOM     18  O   UNL     1      10.387  18.631  18.469  0.00  0.00    +0.000 OA
BRANCH  16  19
ATOM     19  C   UNL     1       9.912  17.064  20.442  0.00  0.00    +0.000 A 
ATOM     20  C   UNL     1      10.187  16.660  21.738  0.00  0.00    +0.000 A 
ATOM     21  C   UNL     1       8.996  16.467  22.492  0.00  0.00    +0.000 A 
ATOM     22  C   UNL     1       7.884  16.751  21.739  0.00  0.00    +0.000 A 
ATOM     23 CL   UNL     1       6.246  16.642  22.253  0.00  0.00    +0.000 Cl
ATOM     24  S   UNL     1       8.239  17.265  20.175  0.00  0.00    +0.000 S 
ENDBRANCH  16  19
ENDBRANCH  14  16
ENDBRANCH  13  14
BRANCH   1  25
ATOM     25  O   UNL     1       8.171   9.771  18.205  0.00  0.00    +0.000 OA
BRANCH  25  26
ATOM     26  C   UNL     1       8.224   8.397  17.824  0.00  0.00    +0.000 C 
BRANCH  26  27
ATOM     27  C   UNL     1       6.800   7.961  17.433  0.00  0.00    +0.000 C 
BRANCH  27  33
ATOM     28  C   UNL     1       7.819   5.558  19.554  0.00  0.00    +0.000 C 
ATOM     29  C   UNL     1       7.654   5.712  18.045  0.00  0.00    +0.000 C 
ATOM     30  C   UNL     1       7.358   4.357  17.405  0.00  0.00    +0.000 C 
ATOM     31  C   UNL     1       6.646   4.734  16.128  0.00  0.00    +0.000 C 
ATOM     32  C   UNL     1       5.813   5.934  16.538  0.00  0.00    +0.000 C 
ATOM     33  N   UNL     1       6.489   6.545  17.695  0.00  0.00    +0.000 NA
ENDBRANCH  27  33
ENDBRANCH  26  27
ENDBRANCH  25  26
ENDBRANCH   1  25
TORSDOF 7
ENDMDL
MODEL 6
REMARK VINA RESULT:      -6.5      2.143      2.470
REMARK  Name = 
REMARK  8 active torsions:
REMARK  status: ('A' for Active; 'I' for Inactive)
REMARK    1  A    between atoms: C_1  and  C_2
REMARK    2  A    between atoms: N_6  and  C_7
REMARK    3  A    between atoms: C_7  and  C_8
REMARK    4  A    between atoms: C_8  and  O_9
REMARK    5  A    between atoms: O_9  and  C_10
REMARK    6  A    between atoms: C_22  and  N_23
REMARK    7  A    between atoms: N_23  and  S_24
REMARK    8  A    between atoms: S_24  and  C_27
REMARK                            x       y       z     vdW  Elec       q    Type
REMARK                         _______ _______ _______ _____ _____    ______ ____
ROOT
ATOM      1  C   UNL     1       1.339   9.392  18.805  0.00  0.00    +0.000 A 
ATOM      2  C   UNL     1       2.301  10.099  18.083  0.00  0.00    +0.000 A 
ATOM      3  C   UNL     1       2.089  11.440  17.835  0.00  0.00    +0.000 A 
ATOM      4  C   UNL     1       1.111  12.020  18.635  0.00  0.00    +0.000 A 
ATOM      5  C   UNL     1      -0.090  11.342  18.762  0.00  0.00    +0.000 A 
ATOM      6  C   UNL     1       0.061   9.961  18.963  0.00  0.00    +0.000 A 
ATOM      7  C   UNL     1      -1.312  12.197  19.051  0.00  0.00    +0.000 C 
ATOM      8  C   UNL     1      -1.499  12.653  20.528  0.00  0.00    +0.000 C 
ATOM      9  C   UNL     1      -1.537  11.415  21.410  0.00  0.00    +0.000 C 
ATOM     10  C   UNL     1      -0.062  11.195  21.793  0.00  0.00    +0.000 C 
ATOM     11  C   UNL     1       0.771  12.416  21.277  0.00  0.00    +0.000 C 
ATOM     12  C   UNL     1       1.677  12.471  20.013  0.00  0.00    +0.000 C 
ATOM     13  C   UNL     1      -0.301  13.470  21.057  0.00  0.00    +0.000 C 
ENDROOT
BRANCH  13  14
ATOM     14  N   UNL     1      -0.482  14.125  22.371  0.00  0.00    +0.000 NA
ATOM     15  H   UNL     1       0.013  13.657  23.131  0.00  0.00    +0.000 HD
BRANCH  14  16
ATOM     16  S   UNL     1      -0.127  15.750  22.469  0.00  0.00    +0.000 S 
ATOM     17  O   UNL     1      -1.276  16.380  23.108  0.00  0.00    +0.000 OA
ATOM     18  O   UNL     1       1.208  15.922  22.957  0.00  0.00    +0.000 OA
BRANCH  16  19
ATOM     19  C   UNL     1      -0.118  16.309  20.798  0.00  0.00    +0.000 A 
ATOM     20  C   UNL     1      -1.160  16.593  19.929  0.00  0.00    +0.000 A 
ATOM     21  C   UNL     1      -0.685  17.083  18.681  0.00  0.00    +0.000 A 
ATOM     22  C   UNL     1       0.685  17.163  18.672  0.00  0.00    +0.000 A 
ATOM     23 CL   UNL     1       1.670  17.693  17.364  0.00  0.00    +0.000 Cl
ATOM     24  S   UNL     1       1.401  16.695  20.123  0.00  0.00    +0.000 S 
ENDBRANCH  16  19
ENDBRANCH  14  16
ENDBRANCH  13  14
BRANCH   1  25
ATOM     25  O   UNL     1       1.823   8.244  19.357  0.00  0.00    +0.000 OA
BRANCH  25  26
ATOM     26  C   UNL     1       2.274   7.202  18.493  0.00  0.00    +0.000 C 
BRANCH  26  27
ATOM     27  C   UNL     1       3.308   6.363  19.265  0.00  0.00    +0.000 C 
BRANCH  27  33
ATOM     28  C   UNL     1       2.897   3.665  17.301  0.00  0.00    +0.000 C 
ATOM     29  C   UNL     1       2.093   4.390  18.375  0.00  0.00    +0.000 C 
ATOM     30  C   UNL     1       1.177   3.408  19.104  0.00  0.00    +0.000 C 
ATOM     31  C   UNL     1       0.951   4.080  20.437  0.00  0.00    +0.000 C 
ATOM     32  C   UNL     1       2.294   4.720  20.734  0.00  0.00    +0.000 C 
ATOM     33  N   UNL     1       2.955   4.944  19.436  0.00  0.00    +0.000 NA
ENDBRANCH  27  33
ENDBRANCH  26  27
ENDBRANCH  25  26
ENDBRANCH   1  25
TORSDOF 7
ENDMDL
MODEL 7
REMARK VINA RESULT:      -6.4      6.944      8.944
REMARK  Name = 
REMARK  8 active torsions:
REMARK  status: ('A' for Active; 'I' for Inactive)
REMARK    1  A    between atoms: C_1  and  C_2
REMARK    2  A    between atoms: N_6  and  C_7
REMARK    3  A    between atoms: C_7  and  C_8
REMARK    4  A    between atoms: C_8  and  O_9
REMARK    5  A    between atoms: O_9  and  C_10
REMARK    6  A    between atoms: C_22  and  N_23
REMARK    7  A    between atoms: N_23  and  S_24
REMARK    8  A    between atoms: S_24  and  C_27
REMARK                            x       y       z     vdW  Elec       q    Type
REMARK                         _______ _______ _______ _____ _____    ______ ____
ROOT
ATOM      1  C   UNL     1       9.606  10.477  19.998  0.00  0.00    +0.000 A 
ATOM      2  C   UNL     1       9.002  10.860  21.196  0.00  0.00    +0.000 A 
ATOM      3  C   UNL     1       9.305  12.099  21.722  0.00  0.00    +0.000 A 
ATOM      4  C   UNL     1       9.902  12.971  20.819  0.00  0.00    +0.000 A 
ATOM      5  C   UNL     1      10.955  12.482  20.065  0.00  0.00    +0.000 A 
ATOM      6  C   UNL     1      10.728  11.198  19.546  0.00  0.00    +0.000 A 
ATOM      7  C   UNL     1      11.977  13.506  19.601  0.00  0.00    +0.000 C 
ATOM      8  C   UNL     1      11.582  14.358  18.360  0.00  0.00    +0.000 C 
ATOM      9  C   UNL     1      11.267  13.413  17.211  0.00  0.00    +0.000 C 
ATOM     10  C   UNL     1       9.757  13.151  17.359  0.00  0.00    +0.000 C 
ATOM     11  C   UNL     1       9.198  14.095  18.475  0.00  0.00    +0.000 C 
ATOM     12  C   UNL     1       8.851  13.714  19.944  0.00  0.00    +0.000 C 
ATOM     13  C   UNL     1      10.280  15.157  18.573  0.00  0.00    +0.000 C 
ENDROOT
BRANCH  13  14
ATOM     14  N   UNL     1       9.943  16.156  17.535  0.00  0.00    +0.000 NA
ATOM     15  H   UNL     1       9.265  15.819  16.850  0.00  0.00    +0.000 HD
BRANCH  14  16
ATOM     16  S   UNL     1       9.428  17.653  18.054  0.00  0.00    +0.000 S 
ATOM     17  O   UNL     1      10.101  18.631  17.208  0.00  0.00    +0.000 OA
ATOM     18  O   UNL     1       8.007  17.640  18.225  0.00  0.00    +0.000 OA
BRANCH  16  19
ATOM     19  C   UNL     1      10.117  17.831  19.666  0.00  0.00    +0.000 A 
ATOM     20  C   UNL     1      11.432  17.973  20.081  0.00  0.00    +0.000 A 
ATOM     21  C   UNL     1      11.522  18.151  21.490  0.00  0.00    +0.000 A 
ATOM     22  C   UNL     1      10.277  18.154  22.067  0.00  0.00    +0.000 A 
ATOM     23 CL   UNL     1       9.926  18.331  23.742  0.00  0.00    +0.000 Cl
ATOM     24  S   UNL     1       9.018  17.978  20.963  0.00  0.00    +0.000 S 
ENDBRANCH  16  19
ENDBRANCH  14  16
ENDBRANCH  13  14
BRANCH   1  25
ATOM     25  O   UNL     1       8.938   9.474  19.360  0.00  0.00    +0.000 OA
BRANCH  25  26
ATOM     26  C   UNL     1       8.256   9.768  18.142  0.00  0.00    +0.000 C 
BRANCH  26  27
ATOM     27  C   UNL     1       8.117   8.454  17.352  0.00  0.00    +0.000 C 
BRANCH  27  33
ATOM     28  C   UNL     1       8.049   5.826  19.448  0.00  0.00    +0.000 C 
ATOM     29  C   UNL     1       7.583   6.126  18.028  0.00  0.00    +0.000 C 
ATOM     30  C   UNL     1       6.365   5.272  17.679  0.00  0.00    +0.000 C 
ATOM     31  C   UNL     1       5.690   6.071  16.590  0.00  0.00    +0.000 C 
ATOM     32  C   UNL     1       5.907   7.507  17.031  0.00  0.00    +0.000 C 
ATOM     33  N   UNL     1       7.112   7.515  17.879  0.00  0.00    +0.000 NA
ENDBRANCH  27  33
ENDBRANCH  26  27
ENDBRANCH  25  26
ENDBRANCH   1  25
TORSDOF 7
ENDMDL
MODEL 8
REMARK VINA RESULT:      -6.4      4.821      8.759
REMARK  Name = 
REMARK  8 active torsions:
REMARK  status: ('A' for Active; 'I' for Inactive)
REMARK    1  A    between atoms: C_1  and  C_2
REMARK    2  A    between atoms: N_6  and  C_7
REMARK    3  A    between atoms: C_7  and  C_8
REMARK    4  A    between atoms: C_8  and  O_9
REMARK    5  A    between atoms: O_9  and  C_10
REMARK    6  A    between atoms: C_22  and  N_23
REMARK    7  A    between atoms: N_23  and  S_24
REMARK    8  A    between atoms: S_24  and  C_27
REMARK                            x       y       z     vdW  Elec       q    Type
REMARK                         _______ _______ _______ _____ _____    ______ ____
ROOT
ATOM      1  C   UNL     1      -3.156  12.632  20.211  0.00  0.00    +0.000 A 
ATOM      2  C   UNL     1      -3.878  12.123  19.131  0.00  0.00    +0.000 A 
ATOM      3  C   UNL     1      -3.187  11.706  18.012  0.00  0.00    +0.000 A 
ATOM      4  C   UNL     1      -1.827  11.509  18.223  0.00  0.00    +0.000 A 
ATOM      5  C   UNL     1      -1.136  12.507  18.890  0.00  0.00    +0.000 A 
ATOM      6  C   UNL     1      -1.816  13.011  20.010  0.00  0.00    +0.000 A 
ATOM      7  C   UNL     1       0.344  12.623  18.569  0.00  0.00    +0.000 C 
ATOM      8  C   UNL     1       1.284  11.604  19.276  0.00  0.00    +0.000 C 
ATOM      9  C   UNL     1       1.088  11.735  20.778  0.00  0.00    +0.000 C 
ATOM     10  C   UNL     1      -0.035  10.728  21.088  0.00  0.00    +0.000 C 
ATOM     11  C   UNL     1      -0.334   9.906  19.790  0.00  0.00    +0.000 C 
ATOM     12  C   UNL     1      -1.526  10.098  18.807  0.00  0.00    +0.000 C 
ATOM     13  C   UNL     1       0.919  10.138  18.963  0.00  0.00    +0.000 C 
ENDROOT
BRANCH  13  14
ATOM     14  N   UNL     1       1.881   9.109  19.414  0.00  0.00    +0.000 NA
ATOM     15  H   UNL     1       1.608   8.648  20.282  0.00  0.00    +0.000 HD
BRANCH  14  16
ATOM     16  S   UNL     1       2.294   7.919  18.324  0.00  0.00    +0.000 S 
ATOM     17  O   UNL     1       1.128   7.728  17.469  0.00  0.00    +0.000 OA
ATOM     18  O   UNL     1       3.596   8.184  17.791  0.00  0.00    +0.000 OA
BRANCH  16  19
ATOM     19  C   UNL     1       2.445   6.455  19.294  0.00  0.00    +0.000 A 
ATOM     20  C   UNL     1       1.826   6.081  20.475  0.00  0.00    +0.000 A 
ATOM     21  C   UNL     1       2.206   4.769  20.874  0.00  0.00    +0.000 A 
ATOM     22  C   UNL     1       3.075   4.211  19.971  0.00  0.00    +0.000 A 
ATOM     23 CL   UNL     1       3.789   2.648  20.069  0.00  0.00    +0.000 Cl
ATOM     24  S   UNL     1       3.417   5.206  18.656  0.00  0.00    +0.000 S 
ENDBRANCH  16  19
ENDBRANCH  14  16
ENDBRANCH  13  14
BRANCH   1  25
ATOM     25  O   UNL     1      -3.856  12.602  21.381  0.00  0.00    +0.000 OA
BRANCH  25  26
ATOM     26  C   UNL     1      -4.790  13.646  21.652  0.00  0.00    +0.000 C 
BRANCH  26  27
ATOM     27  C   UNL     1      -6.060  13.002  22.238  0.00  0.00    +0.000 C 
BRANCH  27  33
ATOM     28  C   UNL     1      -7.732  10.515  20.713  0.00  0.00    +0.000 C 
ATOM     29  C   UNL     1      -7.028  11.801  20.293  0.00  0.00    +0.000 C 
ATOM     30  C   UNL     1      -7.671  12.368  19.029  0.00  0.00    +0.000 C 
ATOM     31  C   UNL     1      -7.326  13.836  19.101  0.00  0.00    +0.000 C 
ATOM     32  C   UNL     1      -7.420  14.140  20.584  0.00  0.00    +0.000 C 
ATOM     33  N   UNL     1      -7.183  12.872  21.295  0.00  0.00    +0.000 NA
ENDBRANCH  27  33
ENDBRANCH  26  27
ENDBRANCH  25  26
ENDBRANCH   1  25
TORSDOF 7
ENDMDL
MODEL 9
REMARK VINA RESULT:      -6.4      3.612      5.009
REMARK  Name = 
REMARK  8 active torsions:
REMARK  status: ('A' for Active; 'I' for Inactive)
REMARK    1  A    between atoms: C_1  and  C_2
REMARK    2  A    between atoms: N_6  and  C_7
REMARK    3  A    between atoms: C_7  and  C_8
REMARK    4  A    between atoms: C_8  and  O_9
REMARK    5  A    between atoms: O_9  and  C_10
REMARK    6  A    between atoms: C_22  and  N_23
REMARK    7  A    between atoms: N_23  and  S_24
REMARK    8  A    between atoms: S_24  and  C_27
REMARK                            x       y       z     vdW  Elec       q    Type
REMARK                         _______ _______ _______ _____ _____    ______ ____
ROOT
ATOM      1  C   UNL     1       1.779   9.844  18.245  0.00  0.00    +0.000 A 
ATOM      2  C   UNL     1       2.499  10.890  17.667  0.00  0.00    +0.000 A 
ATOM      3  C   UNL     1       2.008  12.174  17.785  0.00  0.00    +0.000 A 
ATOM      4  C   UNL     1       1.038  12.325  18.768  0.00  0.00    +0.000 A 
ATOM      5  C   UNL     1       0.010  11.397  18.795  0.00  0.00    +0.000 A 
ATOM      6  C   UNL     1       0.444  10.073  18.626  0.00  0.00    +0.000 A 
ATOM      7  C   UNL     1      -1.310  11.878  19.373  0.00  0.00    +0.000 C 
ATOM      8  C   UNL     1      -1.408  11.919  20.926  0.00  0.00    +0.000 C 
ATOM      9  C   UNL     1      -1.107  10.528  21.461  0.00  0.00    +0.000 C 
ATOM     10  C   UNL     1       0.417  10.543  21.679  0.00  0.00    +0.000 C 
ATOM     11  C   UNL     1       0.937  12.000  21.440  0.00  0.00    +0.000 C 
ATOM     12  C   UNL     1       1.663  12.546  20.177  0.00  0.00    +0.000 C 
ATOM     13  C   UNL     1      -0.334  12.823  21.568  0.00  0.00    +0.000 C 
ENDROOT
BRANCH  13  14
ATOM     14  N   UNL     1      -0.482  13.093  23.014  0.00  0.00    +0.000 NA
ATOM     15  H   UNL     1       0.403  13.091  23.522  0.00  0.00    +0.000 HD
BRANCH  14  16
ATOM     16  S   UNL     1      -1.307  14.472  23.453  0.00  0.00    +0.000 S 
ATOM     17  O   UNL     1      -0.831  14.826  24.785  0.00  0.00    +0.000 OA
ATOM     18  O   UNL     1      -1.299  15.404  22.366  0.00  0.00    +0.000 OA
BRANCH  16  19
ATOM     19  C   UNL     1      -2.980  13.953  23.645  0.00  0.00    +0.000 A 
ATOM     20  C   UNL     1      -3.516  12.717  23.973  0.00  0.00    +0.000 A 
ATOM     21  C   UNL     1      -4.933  12.771  24.080  0.00  0.00    +0.000 A 
ATOM     22  C   UNL     1      -5.398  14.041  23.847  0.00  0.00    +0.000 A 
ATOM     23 CL   UNL     1      -7.042  14.548  23.864  0.00  0.00    +0.000 Cl
ATOM     24  S   UNL     1      -4.180  15.161  23.535  0.00  0.00    +0.000 S 
ENDBRANCH  16  19
ENDBRANCH  14  16
ENDBRANCH  13  14
BRANCH   1  25
ATOM     25  O   UNL     1       2.534   8.727  18.451  0.00  0.00    +0.000 OA
BRANCH  25  26
ATOM     26  C   UNL     1       2.044   7.719  19.334  0.00  0.00    +0.000 C 
BRANCH  26  27
ATOM     27  C   UNL     1       2.508   6.354  18.795  0.00  0.00    +0.000 C 
BRANCH  27  33
ATOM     28  C   UNL     1       4.670   3.825  19.287  0.00  0.00    +0.000 C 
ATOM     29  C   UNL     1       3.156   4.012  19.302  0.00  0.00    +0.000 C 
ATOM     30  C   UNL     1       2.510   3.015  20.262  0.00  0.00    +0.000 C 
ATOM     31  C   UNL     1       1.208   3.688  20.624  0.00  0.00    +0.000 C 
ATOM     32  C   UNL     1       1.585   5.156  20.692  0.00  0.00    +0.000 C 
ATOM     33  N   UNL     1       2.764   5.333  19.825  0.00  0.00    +0.000 NA
ENDBRANCH  27  33
ENDBRANCH  26  27
ENDBRANCH  25  26
ENDBRANCH   1  25
TORSDOF 7
ENDMDL
