MODEL 1
REMARK VINA RESULT:      -7.1      0.000      0.000
REMARK  Name = 
REMARK  3 active torsions:
REMARK  status: ('A' for Active; 'I' for Inactive)
REMARK    1  A    between atoms: C_1  and  N_2
REMARK    2  A    between atoms: N_5  and  C_6
REMARK    3  A    between atoms: N_10  and  C_11
REMARK                            x       y       z     vdW  Elec       q    Type
REMARK                         _______ _______ _______ _____ _____    ______ ____
ROOT
ATOM      1  C   UNL     1       1.465   8.653  20.279  0.00  0.00    +0.000 A 
ATOM      2  C   UNL     1       1.763   8.935  19.005  0.00  0.00    +0.000 A 
ATOM      3  C   UNL     1       2.427   7.931  18.145  0.00  0.00    +0.000 A 
ATOM      4  O   UNL     1       2.575   8.214  16.956  0.00  0.00    +0.000 OA
ATOM      5  N   UNL     1       2.815   6.736  18.737  0.00  0.00    +0.000 N 
ATOM      6  C   UNL     1       2.339   6.407  19.993  0.00  0.00    +0.000 A 
ATOM      7  O   UNL     1       2.341   5.300  20.519  0.00  0.00    +0.000 OA
ATOM      8  N   UNL     1       1.772   7.410  20.714  0.00  0.00    +0.000 N 
ATOM      9  H   UNL     1       1.460   7.124  21.630  0.00  0.00    +0.000 HD
ENDROOT
BRANCH   1  14
ATOM     10  C   UNL     1      -1.843  12.013  23.353  0.00  0.00    +0.000 C 
ATOM     11  N   UNL     1      -0.606  11.405  22.875  0.00  0.00    +0.000 NA
ATOM     12  C   UNL     1      -0.424  11.663  21.430  0.00  0.00    +0.000 C 
ATOM     13  C   UNL     1       0.862  11.013  20.883  0.00  0.00    +0.000 C 
ATOM     14  N   UNL     1       0.858   9.556  21.141  0.00  0.00    +0.000 N 
ATOM     15  C   UNL     1       0.662   9.257  22.579  0.00  0.00    +0.000 C 
ATOM     16  C   UNL     1      -0.616   9.943  23.107  0.00  0.00    +0.000 C 
ENDBRANCH   1  14
BRANCH   5  17
ATOM     17  C   UNL     1       3.496   5.754  17.850  0.00  0.00    +0.000 C 
ATOM     18  C   UNL     1       4.501   6.421  16.877  0.00  0.00    +0.000 C 
ATOM     19  C   UNL     1       5.794   6.852  17.559  0.00  0.00    +0.000 C 
ATOM     20  C   UNL     1       6.481   5.703  18.292  0.00  0.00    +0.000 C 
ATOM     21  C   UNL     1       5.540   4.904  19.179  0.00  0.00    +0.000 C 
ATOM     22  C   UNL     1       4.213   4.553  18.498  0.00  0.00    +0.000 C 
ENDBRANCH   5  17
TORSDOF 2
ENDMDL
MODEL 2
REMARK VINA RESULT:      -6.8      0.602      1.022
REMARK  Name = 
REMARK  3 active torsions:
REMARK  status: ('A' for Active; 'I' for Inactive)
REMARK    1  A    between atoms: C_1  and  N_2
REMARK    2  A    between atoms: N_5  and  C_6
REMARK    3  A    between atoms: N_10  and  C_11
REMARK                            x       y       z     vdW  Elec       q    Type
REMARK                         _______ _______ _______ _____ _____    ______ ____
ROOT
ATOM      1  C   UNL     1       1.393   8.753  20.283  0.00  0.00    +0.000 A 
ATOM      2  C   UNL     1       1.729   9.061  19.025  0.00  0.00    +0.000 A 
ATOM      3  C   UNL     1       2.368   8.056  18.148  0.00  0.00    +0.000 A 
ATOM      4  O   UNL     1       2.552   8.368  16.970  0.00  0.00    +0.000 OA
ATOM      5  N   UNL     1       2.693   6.829  18.709  0.00  0.00    +0.000 N 
ATOM      6  C   UNL     1       2.177   6.482  19.945  0.00  0.00    +0.000 A 
ATOM      7  O   UNL     1       2.122   5.361  20.436  0.00  0.00    +0.000 OA
ATOM      8  N   UNL     1       1.638   7.485  20.685  0.00  0.00    +0.000 N 
ATOM      9  H   UNL     1       1.296   7.186  21.586  0.00  0.00    +0.000 HD
ENDROOT
BRANCH   1  14
ATOM     10  C   UNL     1      -1.833  12.168  23.386  0.00  0.00    +0.000 C 
ATOM     11  N   UNL     1      -0.614  11.513  22.921  0.00  0.00    +0.000 NA
ATOM     12  C   UNL     1      -0.375  11.814  21.493  0.00  0.00    +0.000 C 
ATOM     13  C   UNL     1       0.893  11.118  20.959  0.00  0.00    +0.000 C 
ATOM     14  N   UNL     1       0.806   9.655  21.162  0.00  0.00    +0.000 N 
ATOM     15  C   UNL     1       0.551   9.314  22.581  0.00  0.00    +0.000 C 
ATOM     16  C   UNL     1      -0.706  10.047  23.097  0.00  0.00    +0.000 C 
ENDBRANCH   1  14
BRANCH   5  17
ATOM     17  C   UNL     1       3.351   5.846  17.805  0.00  0.00    +0.000 C 
ATOM     18  C   UNL     1       4.897   5.896  17.889  0.00  0.00    +0.000 C 
ATOM     19  C   UNL     1       5.446   5.248  19.155  0.00  0.00    +0.000 C 
ATOM     20  C   UNL     1       4.972   3.808  19.329  0.00  0.00    +0.000 C 
ATOM     21  C   UNL     1       3.474   3.637  19.137  0.00  0.00    +0.000 C 
ATOM     22  C   UNL     1       2.932   4.365  17.902  0.00  0.00    +0.000 C 
ENDBRANCH   5  17
TORSDOF 2
ENDMDL
MODEL 3
REMARK VINA RESULT:      -6.7      1.037      1.522
REMARK  Name = 
REMARK  3 active torsions:
REMARK  status: ('A' for Active; 'I' for Inactive)
REMARK    1  A    between atoms: C_1  and  N_2
REMARK    2  A    between atoms: N_5  and  C_6
REMARK    3  A    between atoms: N_10  and  C_11
REMARK                            x       y       z     vdW  Elec       q    Type
REMARK                         _______ _______ _______ _____ _____    ______ ____
ROOT
ATOM      1  C   UNL     1       1.794   8.151  19.614  0.00  0.00    +0.000 A 
ATOM      2  C   UNL     1       2.223   8.438  18.380  0.00  0.00    +0.000 A 
ATOM      3  C   UNL     1       3.180   7.548  17.687  0.00  0.00    +0.000 A 
ATOM      4  O   UNL     1       3.449   7.811  16.514  0.00  0.00    +0.000 OA
ATOM      5  N   UNL     1       3.687   6.471  18.402  0.00  0.00    +0.000 N 
ATOM      6  C   UNL     1       3.096   6.103  19.597  0.00  0.00    +0.000 A 
ATOM      7  O   UNL     1       3.222   5.036  20.187  0.00  0.00    +0.000 OA
ATOM      8  N   UNL     1       2.254   7.005  20.167  0.00  0.00    +0.000 N 
ATOM      9  H   UNL     1       1.867   6.699  21.046  0.00  0.00    +0.000 HD
ENDROOT
BRANCH   1  14
ATOM     10  C   UNL     1      -0.973  11.876  22.801  0.00  0.00    +0.000 C 
ATOM     11  N   UNL     1      -0.787  10.748  21.894  0.00  0.00    +0.000 NA
ATOM     12  C   UNL     1       0.046   9.703  22.528  0.00  0.00    +0.000 C 
ATOM     13  C   UNL     1       0.285   8.504  21.589  0.00  0.00    +0.000 C 
ATOM     14  N   UNL     1       0.910   8.953  20.325  0.00  0.00    +0.000 N 
ATOM     15  C   UNL     1       0.111  10.013  19.666  0.00  0.00    +0.000 C 
ATOM     16  C   UNL     1      -0.138  11.186  20.638  0.00  0.00    +0.000 C 
ENDBRANCH   1  14
BRANCH   5  17
ATOM     17  C   UNL     1       4.661   5.605  17.683  0.00  0.00    +0.000 C 
ATOM     18  C   UNL     1       5.575   6.402  16.720  0.00  0.00    +0.000 C 
ATOM     19  C   UNL     1       6.660   7.191  17.443  0.00  0.00    +0.000 C 
ATOM     20  C   UNL     1       7.517   6.312  18.349  0.00  0.00    +0.000 C 
ATOM     21  C   UNL     1       6.704   5.395  19.247  0.00  0.00    +0.000 C 
ATOM     22  C   UNL     1       5.568   4.675  18.513  0.00  0.00    +0.000 C 
ENDBRANCH   5  17
TORSDOF 2
ENDMDL
MODEL 4
REMARK VINA RESULT:      -6.5      2.137      6.879
REMARK  Name = 
REMARK  3 active torsions:
REMARK  status: ('A' for Active; 'I' for Inactive)
REMARK    1  A    between atoms: C_1  and  N_2
REMARK    2  A    between atoms: N_5  and  C_6
REMARK    3  A    between atoms: N_10  and  C_11
REMARK                            x       y       z     vdW  Elec       q    Type
REMARK                         _______ _______ _______ _____ _____    ______ ____
ROOT
ATOM      1  C   UNL     1       2.250   6.905  19.442  0.00  0.00    +0.000 A 
ATOM      2  C   UNL     1       2.306   7.682  18.354  0.00  0.00    +0.000 A 
ATOM      3  C   UNL     1       1.924   9.109  18.425  0.00  0.00    +0.000 A 
ATOM      4  O   UNL     1       2.101   9.793  17.415  0.00  0.00    +0.000 OA
ATOM      5  N   UNL     1       1.414   9.577  19.628  0.00  0.00    +0.000 N 
ATOM      6  C   UNL     1       1.535   8.806  20.770  0.00  0.00    +0.000 A 
ATOM      7  O   UNL     1       1.413   9.179  21.931  0.00  0.00    +0.000 OA
ATOM      8  N   UNL     1       1.862   7.499  20.593  0.00  0.00    +0.000 N 
ATOM      9  H   UNL     1       1.917   6.976  21.453  0.00  0.00    +0.000 HD
ENDROOT
BRANCH   1  14
ATOM     10  C   UNL     1       3.451   1.497  18.444  0.00  0.00    +0.000 C 
ATOM     11  N   UNL     1       3.245   2.714  19.222  0.00  0.00    +0.000 NA
ATOM     12  C   UNL     1       1.862   3.210  19.053  0.00  0.00    +0.000 C 
ATOM     13  C   UNL     1       1.613   4.511  19.842  0.00  0.00    +0.000 C 
ATOM     14  N   UNL     1       2.579   5.556  19.438  0.00  0.00    +0.000 N 
ATOM     15  C   UNL     1       3.979   5.090  19.578  0.00  0.00    +0.000 C 
ATOM     16  C   UNL     1       4.192   3.772  18.803  0.00  0.00    +0.000 C 
ENDBRANCH   1  14
BRANCH   5  17
ATOM     17  C   UNL     1       1.022  11.013  19.661  0.00  0.00    +0.000 C 
ATOM     18  C   UNL     1       0.088  11.407  18.490  0.00  0.00    +0.000 C 
ATOM     19  C   UNL     1      -1.341  10.910  18.674  0.00  0.00    +0.000 C 
ATOM     20  C   UNL     1      -1.956  11.370  19.993  0.00  0.00    +0.000 C 
ATOM     21  C   UNL     1      -1.053  11.140  21.193  0.00  0.00    +0.000 C 
ATOM     22  C   UNL     1       0.398  11.573  20.956  0.00  0.00    +0.000 C 
ENDBRANCH   5  17
TORSDOF 2
ENDMDL
MODEL 5
REMARK VINA RESULT:      -6.5      1.908      3.305
REMARK  Name = 
REMARK  3 active torsions:
REMARK  status: ('A' for Active; 'I' for Inactive)
REMARK    1  A    between atoms: C_1  and  N_2
REMARK    2  A    between atoms: N_5  and  C_6
REMARK    3  A    between atoms: N_10  and  C_11
REMARK                            x       y       z     vdW  Elec       q    Type
REMARK                         _______ _______ _______ _____ _____    ______ ____
ROOT
ATOM      1  C   UNL     1       1.761   7.801  19.796  0.00  0.00    +0.000 A 
ATOM      2  C   UNL     1       1.575   6.838  20.707  0.00  0.00    +0.000 A 
ATOM      3  C   UNL     1       2.315   5.561  20.616  0.00  0.00    +0.000 A 
ATOM      4  O   UNL     1       2.180   4.762  21.544  0.00  0.00    +0.000 OA
ATOM      5  N   UNL     1       3.124   5.365  19.505  0.00  0.00    +0.000 N 
ATOM      6  C   UNL     1       3.431   6.436  18.684  0.00  0.00    +0.000 A 
ATOM      7  O   UNL     1       4.337   6.501  17.862  0.00  0.00    +0.000 OA
ATOM      8  N   UNL     1       2.671   7.553  18.827  0.00  0.00    +0.000 N 
ATOM      9  H   UNL     1       2.920   8.296  18.192  0.00  0.00    +0.000 HD
ENDROOT
BRANCH   1  14
ATOM     10  C   UNL     1      -1.795  12.165  19.784  0.00  0.00    +0.000 C 
ATOM     11  N   UNL     1      -0.516  11.464  19.834  0.00  0.00    +0.000 NA
ATOM     12  C   UNL     1      -0.309  10.673  18.602  0.00  0.00    +0.000 C 
ATOM     13  C   UNL     1       1.024   9.897  18.629  0.00  0.00    +0.000 C 
ATOM     14  N   UNL     1       1.085   9.014  19.815  0.00  0.00    +0.000 N 
ATOM     15  C   UNL     1       0.866   9.770  21.071  0.00  0.00    +0.000 C 
ATOM     16  C   UNL     1      -0.459  10.560  21.004  0.00  0.00    +0.000 C 
ENDBRANCH   1  14
BRANCH   5  17
ATOM     17  C   UNL     1       3.841   4.063  19.435  0.00  0.00    +0.000 C 
ATOM     18  C   UNL     1       2.966   2.871  19.895  0.00  0.00    +0.000 C 
ATOM     19  C   UNL     1       1.922   2.464  18.861  0.00  0.00    +0.000 C 
ATOM     20  C   UNL     1       2.536   2.150  17.501  0.00  0.00    +0.000 C 
ATOM     21  C   UNL     1       3.514   3.209  17.020  0.00  0.00    +0.000 C 
ATOM     22  C   UNL     1       4.503   3.660  18.101  0.00  0.00    +0.000 C 
ENDBRANCH   5  17
TORSDOF 2
ENDMDL
MODEL 6
REMARK VINA RESULT:      -6.4      1.899      3.452
REMARK  Name = 
REMARK  3 active torsions:
REMARK  status: ('A' for Active; 'I' for Inactive)
REMARK    1  A    between atoms: C_1  and  N_2
REMARK    2  A    between atoms: N_5  and  C_6
REMARK    3  A    between atoms: N_10  and  C_11
REMARK                            x       y       z     vdW  Elec       q    Type
REMARK                         _______ _______ _______ _____ _____    ______ ____
ROOT
ATOM      1  C   UNL     1       1.792   7.793  19.839  0.00  0.00    +0.000 A 
ATOM      2  C   UNL     1       1.611   6.831  20.752  0.00  0.00    +0.000 A 
ATOM      3  C   UNL     1       2.327   5.541  20.640  0.00  0.00    +0.000 A 
ATOM      4  O   UNL     1       2.200   4.742  21.569  0.00  0.00    +0.000 OA
ATOM      5  N   UNL     1       3.105   5.335  19.510  0.00  0.00    +0.000 N 
ATOM      6  C   UNL     1       3.411   6.403  18.684  0.00  0.00    +0.000 A 
ATOM      7  O   UNL     1       4.298   6.455  17.841  0.00  0.00    +0.000 OA
ATOM      8  N   UNL     1       2.675   7.533  18.848  0.00  0.00    +0.000 N 
ATOM      9  H   UNL     1       2.921   8.273  18.210  0.00  0.00    +0.000 HD
ENDROOT
BRANCH   1  14
ATOM     10  C   UNL     1      -0.021  13.091  20.416  0.00  0.00    +0.000 C 
ATOM     11  N   UNL     1      -0.068  11.679  20.050  0.00  0.00    +0.000 NA
ATOM     12  C   UNL     1       0.125  10.827  21.244  0.00  0.00    +0.000 C 
ATOM     13  C   UNL     1       0.106   9.326  20.892  0.00  0.00    +0.000 C 
ATOM     14  N   UNL     1       1.138   9.018  19.878  0.00  0.00    +0.000 N 
ATOM     15  C   UNL     1       0.988   9.864  18.671  0.00  0.00    +0.000 C 
ATOM     16  C   UNL     1       0.980  11.360  19.055  0.00  0.00    +0.000 C 
ENDBRANCH   1  14
BRANCH   5  17
ATOM     17  C   UNL     1       3.798   4.021  19.419  0.00  0.00    +0.000 C 
ATOM     18  C   UNL     1       2.909   2.841  19.884  0.00  0.00    +0.000 C 
ATOM     19  C   UNL     1       1.841   2.461  18.864  0.00  0.00    +0.000 C 
ATOM     20  C   UNL     1       2.429   2.146  17.492  0.00  0.00    +0.000 C 
ATOM     21  C   UNL     1       3.418   3.191  17.003  0.00  0.00    +0.000 C 
ATOM     22  C   UNL     1       4.431   3.616  18.072  0.00  0.00    +0.000 C 
ENDBRANCH   5  17
TORSDOF 2
ENDMDL
MODEL 7
REMARK VINA RESULT:      -6.4      1.318      2.195
REMARK  Name = 
REMARK  3 active torsions:
REMARK  status: ('A' for Active; 'I' for Inactive)
REMARK    1  A    between atoms: C_1  and  N_2
REMARK    2  A    between atoms: N_5  and  C_6
REMARK    3  A    between atoms: N_10  and  C_11
REMARK                            x       y       z     vdW  Elec       q    Type
REMARK                         _______ _______ _______ _____ _____    ______ ____
ROOT
ATOM      1  C   UNL     1       1.440   8.282  20.493  0.00  0.00    +0.000 A 
ATOM      2  C   UNL     1       1.982   8.455  19.283  0.00  0.00    +0.000 A 
ATOM      3  C   UNL     1       2.574   7.314  18.551  0.00  0.00    +0.000 A 
ATOM      4  O   UNL     1       2.958   7.519  17.398  0.00  0.00    +0.000 OA
ATOM      5  N   UNL     1       2.634   6.092  19.207  0.00  0.00    +0.000 N 
ATOM      6  C   UNL     1       1.912   5.905  20.373  0.00  0.00    +0.000 A 
ATOM      7  O   UNL     1       1.624   4.837  20.901  0.00  0.00    +0.000 OA
ATOM      8  N   UNL     1       1.436   7.021  20.983  0.00  0.00    +0.000 N 
ATOM      9  H   UNL     1       0.936   6.833  21.839  0.00  0.00    +0.000 HD
ENDROOT
BRANCH   1  14
ATOM     10  C   UNL     1      -1.681  12.140  23.151  0.00  0.00    +0.000 C 
ATOM     11  N   UNL     1      -0.476  11.429  22.736  0.00  0.00    +0.000 NA
ATOM     12  C   UNL     1      -0.321  11.485  21.266  0.00  0.00    +0.000 C 
ATOM     13  C   UNL     1       0.930  10.722  20.786  0.00  0.00    +0.000 C 
ATOM     14  N   UNL     1       0.884   9.314  21.238  0.00  0.00    +0.000 N 
ATOM     15  C   UNL     1       0.713   9.216  22.707  0.00  0.00    +0.000 C 
ATOM     16  C   UNL     1      -0.529  10.013  23.162  0.00  0.00    +0.000 C 
ENDBRANCH   1  14
BRANCH   5  17
ATOM     17  C   UNL     1       3.251   4.969  18.451  0.00  0.00    +0.000 C 
ATOM     18  C   UNL     1       4.094   4.032  19.351  0.00  0.00    +0.000 C 
ATOM     19  C   UNL     1       3.242   3.112  20.218  0.00  0.00    +0.000 C 
ATOM     20  C   UNL     1       2.259   2.281  19.398  0.00  0.00    +0.000 C 
ATOM     21  C   UNL     1       1.470   3.099  18.390  0.00  0.00    +0.000 C 
ATOM     22  C   UNL     1       2.337   4.076  17.587  0.00  0.00    +0.000 C 
ENDBRANCH   5  17
TORSDOF 2
ENDMDL
MODEL 8
REMARK VINA RESULT:      -6.3      1.637      2.805
REMARK  Name = 
REMARK  3 active torsions:
REMARK  status: ('A' for Active; 'I' for Inactive)
REMARK    1  A    between atoms: C_1  and  N_2
REMARK    2  A    between atoms: N_5  and  C_6
REMARK    3  A    between atoms: N_10  and  C_11
REMARK                            x       y       z     vdW  Elec       q    Type
REMARK                         _______ _______ _______ _____ _____    ______ ____
ROOT
ATOM      1  C   UNL     1       1.801   7.624  20.088  0.00  0.00    +0.000 A 
ATOM      2  C   UNL     1       2.495   7.546  18.946  0.00  0.00    +0.000 A 
ATOM      3  C   UNL     1       3.282   6.335  18.623  0.00  0.00    +0.000 A 
ATOM      4  O   UNL     1       3.808   6.284  17.511  0.00  0.00    +0.000 OA
ATOM      5  N   UNL     1       3.351   5.339  19.587  0.00  0.00    +0.000 N 
ATOM      6  C   UNL     1       2.488   5.371  20.668  0.00  0.00    +0.000 A 
ATOM      7  O   UNL     1       2.220   4.447  21.428  0.00  0.00    +0.000 OA
ATOM      8  N   UNL     1       1.835   6.540  20.896  0.00  0.00    +0.000 N 
ATOM      9  H   UNL     1       1.236   6.518  21.706  0.00  0.00    +0.000 HD
ENDROOT
BRANCH   1  14
ATOM     10  C   UNL     1      -0.382  12.431  22.042  0.00  0.00    +0.000 C 
ATOM     11  N   UNL     1      -0.341  11.153  21.337  0.00  0.00    +0.000 NA
ATOM     12  C   UNL     1      -0.008  10.056  22.272  0.00  0.00    +0.000 C 
ATOM     13  C   UNL     1       0.070   8.691  21.559  0.00  0.00    +0.000 C 
ATOM     14  N   UNL     1       1.057   8.737  20.457  0.00  0.00    +0.000 N 
ATOM     15  C   UNL     1       0.765   9.836  19.507  0.00  0.00    +0.000 C 
ATOM     16  C   UNL     1       0.664  11.185  20.251  0.00  0.00    +0.000 C 
ENDBRANCH   1  14
BRANCH   5  17
ATOM     17  C   UNL     1       4.164   4.143  19.239  0.00  0.00    +0.000 C 
ATOM     18  C   UNL     1       3.669   2.855  19.944  0.00  0.00    +0.000 C 
ATOM     19  C   UNL     1       2.394   2.291  19.327  0.00  0.00    +0.000 C 
ATOM     20  C   UNL     1       2.534   2.031  17.830  0.00  0.00    +0.000 C 
ATOM     21  C   UNL     1       3.134   3.199  17.067  0.00  0.00    +0.000 C 
ATOM     22  C   UNL     1       4.368   3.802  17.748  0.00  0.00    +0.000 C 
ENDBRANCH   5  17
TORSDOF 2
ENDMDL
MODEL 9
REMARK VINA RESULT:      -6.3      1.989      3.177
REMARK  Name = 
REMARK  3 active torsions:
REMARK  status: ('A' for Active; 'I' for Inactive)
REMARK    1  A    between atoms: C_1  and  N_2
REMARK    2  A    between atoms: N_5  and  C_6
REMARK    3  A    between atoms: N_10  and  C_11
REMARK                            x       y       z     vdW  Elec       q    Type
REMARK                         _______ _______ _______ _____ _____    ______ ____
ROOT
ATOM      1  C   UNL     1       2.436   7.593  18.872  0.00  0.00    +0.000 A 
ATOM      2  C   UNL     1       2.386   6.467  19.592  0.00  0.00    +0.000 A 
ATOM      3  C   UNL     1       3.336   5.363  19.332  0.00  0.00    +0.000 A 
ATOM      4  O   UNL     1       3.308   4.400  20.101  0.00  0.00    +0.000 OA
ATOM      5  N   UNL     1       4.203   5.502  18.257  0.00  0.00    +0.000 N 
ATOM      6  C   UNL     1       4.350   6.737  17.651  0.00  0.00    +0.000 A 
ATOM      7  O   UNL     1       5.259   7.094  16.910  0.00  0.00    +0.000 OA
ATOM      8  N   UNL     1       3.407   7.673  17.934  0.00  0.00    +0.000 N 
ATOM      9  H   UNL     1       3.547   8.547  17.451  0.00  0.00    +0.000 HD
ENDROOT
BRANCH   1  14
ATOM     10  C   UNL     1      -1.812  11.249  19.403  0.00  0.00    +0.000 C 
ATOM     11  N   UNL     1      -0.433  10.772  19.394  0.00  0.00    +0.000 NA
ATOM     12  C   UNL     1      -0.077  10.237  18.062  0.00  0.00    +0.000 C 
ATOM     13  C   UNL     1       1.368   9.699  18.021  0.00  0.00    +0.000 C 
ATOM     14  N   UNL     1       1.563   8.658  19.054  0.00  0.00    +0.000 N 
ATOM     15  C   UNL     1       1.201   9.153  20.403  0.00  0.00    +0.000 C 
ATOM     16  C   UNL     1      -0.238   9.712  20.408  0.00  0.00    +0.000 C 
ENDBRANCH   1  14
BRANCH   5  17
ATOM     17  C   UNL     1       5.133   4.367  18.012  0.00  0.00    +0.000 C 
ATOM     18  C   UNL     1       4.793   3.581  16.721  0.00  0.00    +0.000 C 
ATOM     19  C   UNL     1       5.199   4.318  15.450  0.00  0.00    +0.000 C 
ATOM     20  C   UNL     1       6.677   4.698  15.440  0.00  0.00    +0.000 C 
ATOM     21  C   UNL     1       7.138   5.365  16.726  0.00  0.00    +0.000 C 
ATOM     22  C   UNL     1       6.649   4.651  17.991  0.00  0.00    +0.000 C 
ENDBRANCH   5  17
TORSDOF 2
ENDMDL
