MODEL 1
REMARK VINA RESULT:      -7.8      0.000      0.000
REMARK  Name = 
REMARK  11 active torsions:
REMARK  status: ('A' for Active; 'I' for Inactive)
REMARK    1  A    between atoms: C_1  and  C_2
REMARK    2  A    between atoms: C_2  and  O_3
REMARK    3  A    between atoms: O_3  and  C_4
REMARK    4  A    between atoms: C_6  and  C_7
REMARK    5  A    between atoms: C_8  and  C_9
REMARK    6  A    between atoms: C_8  and  C_11
REMARK    7  A    between atoms: C_20  and  O_21
REMARK    8  A    between atoms: O_21  and  C_22
REMARK    9  A    between atoms: C_22  and  C_23
REMARK   10  A    between atoms: C_26  and  C_27
REMARK   11  A    between atoms: C_27  and  O_29
REMARK                            x       y       z     vdW  Elec       q    Type
REMARK                         _______ _______ _______ _____ _____    ______ ____
ROOT
ATOM      1  C   UNL     1       1.991   7.214  19.766  0.00  0.00    +0.000 A 
ATOM      2  C   UNL     1       2.996   6.621  18.974  0.00  0.00    +0.000 A 
ATOM      3  C   UNL     1       3.495   7.266  17.838  0.00  0.00    +0.000 A 
ATOM      4  C   UNL     1       2.970   8.492  17.462  0.00  0.00    +0.000 A 
ATOM      5  C   UNL     1       2.022   9.108  18.268  0.00  0.00    +0.000 A 
ATOM      6  C   UNL     1       1.518   8.492  19.430  0.00  0.00    +0.000 A 
ENDROOT
BRANCH   3   7
ATOM      7  C   UNL     1       4.712   6.838  17.155  0.00  0.00    +0.000 C 
ATOM      8  C   UNL     1       5.193   5.602  16.938  0.00  0.00    +0.000 C 
BRANCH   8   9
ATOM      9  C   UNL     1       4.625   4.353  17.465  0.00  0.00    +0.000 A 
ATOM     10  C   UNL     1       5.040   3.826  18.697  0.00  0.00    +0.000 A 
ATOM     11  C   UNL     1       4.328   2.774  19.282  0.00  0.00    +0.000 A 
ATOM     12  C   UNL     1       3.212   2.255  18.633  0.00  0.00    +0.000 A 
ATOM     13  F   UNL     1       2.497   1.286  19.222  0.00  0.00    +0.000 F 
ATOM     14  C   UNL     1       2.811   2.741  17.396  0.00  0.00    +0.000 A 
ATOM     15  C   UNL     1       3.522   3.787  16.807  0.00  0.00    +0.000 A 
ENDBRANCH   8   9
BRANCH   8  16
ATOM     16  C   UNL     1       6.362   5.484  16.117  0.00  0.00    +0.000 C 
ATOM     17  N   UNL     1       7.304   5.370  15.455  0.00  0.00    +0.000 NA
ENDBRANCH   8  16
ENDBRANCH   3   7
BRANCH   1  18
ATOM     18  O   UNL     1       1.653   6.452  20.851  0.00  0.00    +0.000 OA
BRANCH  18  20
ATOM     19  C   UNL     1       0.905   4.140  20.465  0.00  0.00    +0.000 C 
ATOM     20  C   UNL     1       2.021   5.075  20.908  0.00  0.00    +0.000 C 
ENDBRANCH  18  20
ENDBRANCH   1  18
BRANCH   6  21
ATOM     21  O   UNL     1       0.615   9.126  20.257  0.00  0.00    +0.000 OA
BRANCH  21  22
ATOM     22  C   UNL     1       0.696  10.548  20.195  0.00  0.00    +0.000 C 
BRANCH  22  23
ATOM     23  C   UNL     1      -0.609  11.150  19.871  0.00  0.00    +0.000 A 
ATOM     24  C   UNL     1      -1.447  12.091  20.424  0.00  0.00    +0.000 A 
ATOM     25  C   UNL     1      -2.572  12.170  19.559  0.00  0.00    +0.000 A 
ATOM     26  C   UNL     1      -2.345  11.285  18.525  0.00  0.00    +0.000 A 
ATOM     27  O   UNL     1      -1.141  10.673  18.710  0.00  0.00    +0.000 OA
BRANCH  26  28
ATOM     28  C   UNL     1      -3.107  10.913  17.361  0.00  0.00    +0.000 C 
ATOM     29  O   UNL     1      -3.083   9.823  16.808  0.00  0.00    +0.000 OA
BRANCH  28  30
ATOM     30  O   UNL     1      -3.882  11.943  16.927  0.00  0.00    +0.000 OA
ATOM     31  H   UNL     1      -3.493  12.323  16.110  0.00  0.00    +0.000 HD
ENDBRANCH  28  30
ENDBRANCH  26  28
ENDBRANCH  22  23
ENDBRANCH  21  22
ENDBRANCH   6  21
TORSDOF 10
ENDMDL
MODEL 2
REMARK VINA RESULT:      -7.7      5.251      7.999
REMARK  Name = 
REMARK  11 active torsions:
REMARK  status: ('A' for Active; 'I' for Inactive)
REMARK    1  A    between atoms: C_1  and  C_2
REMARK    2  A    between atoms: C_2  and  O_3
REMARK    3  A    between atoms: O_3  and  C_4
REMARK    4  A    between atoms: C_6  and  C_7
REMARK    5  A    between atoms: C_8  and  C_9
REMARK    6  A    between atoms: C_8  and  C_11
REMARK    7  A    between atoms: C_20  and  O_21
REMARK    8  A    between atoms: O_21  and  C_22
REMARK    9  A    between atoms: C_22  and  C_23
REMARK   10  A    between atoms: C_26  and  C_27
REMARK   11  A    between atoms: C_27  and  O_29
REMARK                            x       y       z     vdW  Elec       q    Type
REMARK                         _______ _______ _______ _____ _____    ______ ____
ROOT
ATOM      1  C   UNL     1       6.975   5.592  16.571  0.00  0.00    +0.000 A 
ATOM      2  C   UNL     1       6.101   4.552  16.948  0.00  0.00    +0.000 A 
ATOM      3  C   UNL     1       5.717   4.378  18.281  0.00  0.00    +0.000 A 
ATOM      4  C   UNL     1       6.231   5.220  19.255  0.00  0.00    +0.000 A 
ATOM      5  C   UNL     1       7.046   6.281  18.885  0.00  0.00    +0.000 A 
ATOM      6  C   UNL     1       7.430   6.493  17.546  0.00  0.00    +0.000 A 
ENDROOT
BRANCH   3   7
ATOM      7  C   UNL     1       4.613   3.512  18.681  0.00  0.00    +0.000 C 
ATOM      8  C   UNL     1       3.329   3.811  18.940  0.00  0.00    +0.000 C 
BRANCH   8   9
ATOM      9  C   UNL     1       2.753   5.162  18.986  0.00  0.00    +0.000 A 
ATOM     10  C   UNL     1       2.280   5.714  20.187  0.00  0.00    +0.000 A 
ATOM     11  C   UNL     1       1.954   7.072  20.251  0.00  0.00    +0.000 A 
ATOM     12  C   UNL     1       2.100   7.869  19.119  0.00  0.00    +0.000 A 
ATOM     13  F   UNL     1       1.843   9.181  19.198  0.00  0.00    +0.000 F 
ATOM     14  C   UNL     1       2.531   7.330  17.915  0.00  0.00    +0.000 A 
ATOM     15  C   UNL     1       2.852   5.974  17.845  0.00  0.00    +0.000 A 
ENDBRANCH   8   9
BRANCH   8  16
ATOM     16  C   UNL     1       2.434   2.719  19.190  0.00  0.00    +0.000 C 
ATOM     17  N   UNL     1       1.727   1.827  19.397  0.00  0.00    +0.000 NA
ENDBRANCH   8  16
ENDBRANCH   3   7
BRANCH   1  18
ATOM     18  O   UNL     1       7.211   5.624  15.224  0.00  0.00    +0.000 OA
BRANCH  18  20
ATOM     19  C   UNL     1       7.210   4.544  13.012  0.00  0.00    +0.000 C 
ATOM     20  C   UNL     1       6.508   4.744  14.347  0.00  0.00    +0.000 C 
ENDBRANCH  18  20
ENDBRANCH   1  18
BRANCH   6  21
ATOM     21  O   UNL     1       8.198   7.575  17.172  0.00  0.00    +0.000 OA
BRANCH  21  22
ATOM     22  C   UNL     1       7.572   8.828  17.437  0.00  0.00    +0.000 C 
BRANCH  22  23
ATOM     23  C   UNL     1       8.445   9.711  18.230  0.00  0.00    +0.000 A 
ATOM     24  C   UNL     1       9.286   9.586  19.312  0.00  0.00    +0.000 A 
ATOM     25  C   UNL     1       9.810  10.884  19.554  0.00  0.00    +0.000 A 
ATOM     26  C   UNL     1       9.270  11.719  18.597  0.00  0.00    +0.000 A 
ATOM     27  O   UNL     1       8.447  10.999  17.782  0.00  0.00    +0.000 OA
BRANCH  26  28
ATOM     28  C   UNL     1       9.408  13.126  18.326  0.00  0.00    +0.000 C 
ATOM     29  O   UNL     1       9.402  14.021  19.160  0.00  0.00    +0.000 OA
BRANCH  28  30
ATOM     30  O   UNL     1       9.549  13.361  16.994  0.00  0.00    +0.000 OA
ATOM     31  H   UNL     1       8.711  13.141  16.532  0.00  0.00    +0.000 HD
ENDBRANCH  28  30
ENDBRANCH  26  28
ENDBRANCH  22  23
ENDBRANCH  21  22
ENDBRANCH   6  21
TORSDOF 10
ENDMDL
MODEL 3
REMARK VINA RESULT:      -7.7      2.216      3.761
REMARK  Name = 
REMARK  11 active torsions:
REMARK  status: ('A' for Active; 'I' for Inactive)
REMARK    1  A    between atoms: C_1  and  C_2
REMARK    2  A    between atoms: C_2  and  O_3
REMARK    3  A    between atoms: O_3  and  C_4
REMARK    4  A    between atoms: C_6  and  C_7
REMARK    5  A    between atoms: C_8  and  C_9
REMARK    6  A    between atoms: C_8  and  C_11
REMARK    7  A    between atoms: C_20  and  O_21
REMARK    8  A    between atoms: O_21  and  C_22
REMARK    9  A    between atoms: C_22  and  C_23
REMARK   10  A    between atoms: C_26  and  C_27
REMARK   11  A    between atoms: C_27  and  O_29
REMARK                            x       y       z     vdW  Elec       q    Type
REMARK                         _______ _______ _______ _____ _____    ______ ____
ROOT
ATOM      1  C   UNL     1       0.385  10.109  20.204  0.00  0.00    +0.000 A 
ATOM      2  C   UNL     1       1.450   9.267  19.821  0.00  0.00    +0.000 A 
ATOM      3  C   UNL     1       1.563   8.797  18.510  0.00  0.00    +0.000 A 
ATOM      4  C   UNL     1       0.596   9.135  17.577  0.00  0.00    +0.000 A 
ATOM      5  C   UNL     1      -0.423  10.009  17.930  0.00  0.00    +0.000 A 
ATOM      6  C   UNL     1      -0.548  10.516  19.239  0.00  0.00    +0.000 A 
ENDROOT
BRANCH   3   7
ATOM      7  C   UNL     1       2.776   8.167  17.997  0.00  0.00    +0.000 C 
ATOM      8  C   UNL     1       3.139   6.873  17.982  0.00  0.00    +0.000 C 
BRANCH   8   9
ATOM      9  C   UNL     1       2.405   5.767  18.612  0.00  0.00    +0.000 A 
ATOM     10  C   UNL     1       1.879   4.712  17.851  0.00  0.00    +0.000 A 
ATOM     11  C   UNL     1       1.393   3.566  18.487  0.00  0.00    +0.000 A 
ATOM     12  C   UNL     1       1.431   3.481  19.875  0.00  0.00    +0.000 A 
ATOM     13  F   UNL     1       1.018   2.360  20.480  0.00  0.00    +0.000 F 
ATOM     14  C   UNL     1       1.914   4.532  20.644  0.00  0.00    +0.000 A 
ATOM     15  C   UNL     1       2.395   5.679  20.014  0.00  0.00    +0.000 A 
ENDBRANCH   8   9
BRANCH   8  16
ATOM     16  C   UNL     1       4.347   6.535  17.289  0.00  0.00    +0.000 C 
ATOM     17  N   UNL     1       5.331   6.258  16.747  0.00  0.00    +0.000 NA
ENDBRANCH   8  16
ENDBRANCH   3   7
BRANCH   1  18
ATOM     18  O   UNL     1       0.458  10.492  21.516  0.00  0.00    +0.000 OA
BRANCH  18  20
ATOM     19  C   UNL     1      -1.302  10.907  23.184  0.00  0.00    +0.000 C 
ATOM     20  C   UNL     1      -0.401   9.898  22.489  0.00  0.00    +0.000 C 
ENDBRANCH  18  20
ENDBRANCH   1  18
BRANCH   6  21
ATOM     21  O   UNL     1      -1.530  11.424  19.576  0.00  0.00    +0.000 OA
BRANCH  21  22
ATOM     22  C   UNL     1      -2.099  12.083  18.448  0.00  0.00    +0.000 C 
BRANCH  22  23
ATOM     23  C   UNL     1      -3.528  11.759  18.298  0.00  0.00    +0.000 A 
ATOM     24  C   UNL     1      -4.353  11.287  17.302  0.00  0.00    +0.000 A 
ATOM     25  C   UNL     1      -5.655  11.224  17.868  0.00  0.00    +0.000 A 
ATOM     26  C   UNL     1      -5.543  11.645  19.177  0.00  0.00    +0.000 A 
ATOM     27  O   UNL     1      -4.243  11.959  19.441  0.00  0.00    +0.000 OA
BRANCH  26  28
ATOM     28  C   UNL     1      -6.495  11.806  20.245  0.00  0.00    +0.000 C 
ATOM     29  O   UNL     1      -7.713  11.769  20.132  0.00  0.00    +0.000 OA
BRANCH  28  30
ATOM     30  O   UNL     1      -5.872  12.012  21.436  0.00  0.00    +0.000 OA
ATOM     31  H   UNL     1      -6.544  12.164  22.135  0.00  0.00    +0.000 HD
ENDBRANCH  28  30
ENDBRANCH  26  28
ENDBRANCH  22  23
ENDBRANCH  21  22
ENDBRANCH   6  21
TORSDOF 10
ENDMDL
MODEL 4
REMARK VINA RESULT:      -7.6      5.152      7.899
REMARK  Name = 
REMARK  11 active torsions:
REMARK  status: ('A' for Active; 'I' for Inactive)
REMARK    1  A    between atoms: C_1  and  C_2
REMARK    2  A    between atoms: C_2  and  O_3
REMARK    3  A    between atoms: O_3  and  C_4
REMARK    4  A    between atoms: C_6  and  C_7
REMARK    5  A    between atoms: C_8  and  C_9
REMARK    6  A    between atoms: C_8  and  C_11
REMARK    7  A    between atoms: C_20  and  O_21
REMARK    8  A    between atoms: O_21  and  C_22
REMARK    9  A    between atoms: C_22  and  C_23
REMARK   10  A    between atoms: C_26  and  C_27
REMARK   11  A    between atoms: C_27  and  O_29
REMARK                            x       y       z     vdW  Elec       q    Type
REMARK                         _______ _______ _______ _____ _____    ______ ____
ROOT
ATOM      1  C   UNL     1       6.795   5.089  16.862  0.00  0.00    +0.000 A 
ATOM      2  C   UNL     1       5.692   4.224  17.016  0.00  0.00    +0.000 A 
ATOM      3  C   UNL     1       5.001   4.143  18.228  0.00  0.00    +0.000 A 
ATOM      4  C   UNL     1       5.428   4.898  19.309  0.00  0.00    +0.000 A 
ATOM      5  C   UNL     1       6.476   5.794  19.150  0.00  0.00    +0.000 A 
ATOM      6  C   UNL     1       7.175   5.913  17.932  0.00  0.00    +0.000 A 
ENDROOT
BRANCH   3   7
ATOM      7  C   UNL     1       3.702   3.490  18.358  0.00  0.00    +0.000 C 
ATOM      8  C   UNL     1       2.519   3.988  18.754  0.00  0.00    +0.000 C 
BRANCH   8   9
ATOM      9  C   UNL     1       2.288   5.342  19.276  0.00  0.00    +0.000 A 
ATOM     10  C   UNL     1       2.417   6.473  18.456  0.00  0.00    +0.000 A 
ATOM     11  C   UNL     1       1.970   7.719  18.908  0.00  0.00    +0.000 A 
ATOM     12  C   UNL     1       1.402   7.828  20.174  0.00  0.00    +0.000 A 
ATOM     13  F   UNL     1       0.922   9.010  20.583  0.00  0.00    +0.000 F 
ATOM     14  C   UNL     1       1.302   6.725  21.012  0.00  0.00    +0.000 A 
ATOM     15  C   UNL     1       1.752   5.482  20.567  0.00  0.00    +0.000 A 
ENDBRANCH   8   9
BRANCH   8  16
ATOM     16  C   UNL     1       1.376   3.129  18.658  0.00  0.00    +0.000 C 
ATOM     17  N   UNL     1       0.441   2.451  18.583  0.00  0.00    +0.000 NA
ENDBRANCH   8  16
ENDBRANCH   3   7
BRANCH   1  18
ATOM     18  O   UNL     1       7.322   5.057  15.600  0.00  0.00    +0.000 OA
BRANCH  18  20
ATOM     19  C   UNL     1       6.326   3.889  13.677  0.00  0.00    +0.000 C 
ATOM     20  C   UNL     1       6.473   5.185  14.460  0.00  0.00    +0.000 C 
ENDBRANCH  18  20
ENDBRANCH   1  18
BRANCH   6  21
ATOM     21  O   UNL     1       8.183   6.838  17.759  0.00  0.00    +0.000 OA
BRANCH  21  22
ATOM     22  C   UNL     1       7.706   8.122  17.364  0.00  0.00    +0.000 C 
BRANCH  22  23
ATOM     23  C   UNL     1       8.394   9.201  18.094  0.00  0.00    +0.000 A 
ATOM     24  C   UNL     1       9.126   9.324  19.254  0.00  0.00    +0.000 A 
ATOM     25  C   UNL     1       9.483  10.696  19.349  0.00  0.00    +0.000 A 
ATOM     26  C   UNL     1       8.962  11.324  18.236  0.00  0.00    +0.000 A 
ATOM     27  O   UNL     1       8.309  10.408  17.465  0.00  0.00    +0.000 OA
BRANCH  26  28
ATOM     28  C   UNL     1       8.979  12.687  17.775  0.00  0.00    +0.000 C 
ATOM     29  O   UNL     1       9.810  13.535  18.075  0.00  0.00    +0.000 OA
BRANCH  28  30
ATOM     30  O   UNL     1       7.935  12.942  16.942  0.00  0.00    +0.000 OA
ATOM     31  H   UNL     1       7.165  13.250  17.467  0.00  0.00    +0.000 HD
ENDBRANCH  28  30
ENDBRANCH  26  28
ENDBRANCH  22  23
ENDBRANCH  21  22
ENDBRANCH   6  21
TORSDOF 10
ENDMDL
MODEL 5
REMARK VINA RESULT:      -7.5      1.974      2.977
REMARK  Name = 
REMARK  11 active torsions:
REMARK  status: ('A' for Active; 'I' for Inactive)
REMARK    1  A    between atoms: C_1  and  C_2
REMARK    2  A    between atoms: C_2  and  O_3
REMARK    3  A    between atoms: O_3  and  C_4
REMARK    4  A    between atoms: C_6  and  C_7
REMARK    5  A    between atoms: C_8  and  C_9
REMARK    6  A    between atoms: C_8  and  C_11
REMARK    7  A    between atoms: C_20  and  O_21
REMARK    8  A    between atoms: O_21  and  C_22
REMARK    9  A    between atoms: C_22  and  C_23
REMARK   10  A    between atoms: C_26  and  C_27
REMARK   11  A    between atoms: C_27  and  O_29
REMARK                            x       y       z     vdW  Elec       q    Type
REMARK                         _______ _______ _______ _____ _____    ______ ____
ROOT
ATOM      1  C   UNL     1       0.958   9.245  20.240  0.00  0.00    +0.000 A 
ATOM      2  C   UNL     1       1.953   8.390  19.723  0.00  0.00    +0.000 A 
ATOM      3  C   UNL     1       2.157   8.269  18.346  0.00  0.00    +0.000 A 
ATOM      4  C   UNL     1       1.348   8.975  17.470  0.00  0.00    +0.000 A 
ATOM      5  C   UNL     1       0.406   9.863  17.972  0.00  0.00    +0.000 A 
ATOM      6  C   UNL     1       0.194  10.021  19.356  0.00  0.00    +0.000 A 
ENDROOT
BRANCH   3   7
ATOM      7  C   UNL     1       3.337   7.628  17.774  0.00  0.00    +0.000 C 
ATOM      8  C   UNL     1       3.717   6.339  17.795  0.00  0.00    +0.000 C 
BRANCH   8   9
ATOM      9  C   UNL     1       3.049   5.257  18.531  0.00  0.00    +0.000 A 
ATOM     10  C   UNL     1       3.277   5.056  19.900  0.00  0.00    +0.000 A 
ATOM     11  C   UNL     1       2.463   4.178  20.622  0.00  0.00    +0.000 A 
ATOM     12  C   UNL     1       1.432   3.506  19.974  0.00  0.00    +0.000 A 
ATOM     13  F   UNL     1       0.617   2.710  20.679  0.00  0.00    +0.000 F 
ATOM     14  C   UNL     1       1.217   3.666  18.612  0.00  0.00    +0.000 A 
ATOM     15  C   UNL     1       2.030   4.537  17.887  0.00  0.00    +0.000 A 
ENDBRANCH   8   9
BRANCH   8  16
ATOM     16  C   UNL     1       4.875   5.981  17.029  0.00  0.00    +0.000 C 
ATOM     17  N   UNL     1       5.820   5.706  16.420  0.00  0.00    +0.000 NA
ENDBRANCH   8  16
ENDBRANCH   3   7
BRANCH   1  18
ATOM     18  O   UNL     1       0.927   9.257  21.608  0.00  0.00    +0.000 OA
BRANCH  18  20
ATOM     19  C   UNL     1      -0.761  10.000  23.238  0.00  0.00    +0.000 C 
ATOM     20  C   UNL     1      -0.267   8.904  22.305  0.00  0.00    +0.000 C 
ENDBRANCH  18  20
ENDBRANCH   1  18
BRANCH   6  21
ATOM     21  O   UNL     1      -0.706  10.940  19.853  0.00  0.00    +0.000 OA
BRANCH  21  22
ATOM     22  C   UNL     1      -1.217  11.824  18.859  0.00  0.00    +0.000 C 
BRANCH  22  23
ATOM     23  C   UNL     1      -2.629  11.533  18.552  0.00  0.00    +0.000 A 
ATOM     24  C   UNL     1      -3.324  10.663  17.743  0.00  0.00    +0.000 A 
ATOM     25  C   UNL     1      -4.700  10.952  17.947  0.00  0.00    +0.000 A 
ATOM     26  C   UNL     1      -4.762  11.967  18.879  0.00  0.00    +0.000 A 
ATOM     27  O   UNL     1      -3.498  12.312  19.257  0.00  0.00    +0.000 OA
BRANCH  26  28
ATOM     28  C   UNL     1      -5.854  12.686  19.483  0.00  0.00    +0.000 C 
ATOM     29  O   UNL     1      -6.740  12.197  20.171  0.00  0.00    +0.000 OA
BRANCH  28  30
ATOM     30  O   UNL     1      -5.793  14.013  19.194  0.00  0.00    +0.000 OA
ATOM     31  H   UNL     1      -6.700  14.388  19.183  0.00  0.00    +0.000 HD
ENDBRANCH  28  30
ENDBRANCH  26  28
ENDBRANCH  22  23
ENDBRANCH  21  22
ENDBRANCH   6  21
TORSDOF 10
ENDMDL
MODEL 6
REMARK VINA RESULT:      -7.5      2.616      3.501
REMARK  Name = 
REMARK  11 active torsions:
REMARK  status: ('A' for Active; 'I' for Inactive)
REMARK    1  A    between atoms: C_1  and  C_2
REMARK    2  A    between atoms: C_2  and  O_3
REMARK    3  A    between atoms: O_3  and  C_4
REMARK    4  A    between atoms: C_6  and  C_7
REMARK    5  A    between atoms: C_8  and  C_9
REMARK    6  A    between atoms: C_8  and  C_11
REMARK    7  A    between atoms: C_20  and  O_21
REMARK    8  A    between atoms: O_21  and  C_22
REMARK    9  A    between atoms: C_22  and  C_23
REMARK   10  A    between atoms: C_26  and  C_27
REMARK   11  A    between atoms: C_27  and  O_29
REMARK                            x       y       z     vdW  Elec       q    Type
REMARK                         _______ _______ _______ _____ _____    ______ ____
ROOT
ATOM      1  C   UNL     1       2.158   5.783  20.310  0.00  0.00    +0.000 A 
ATOM      2  C   UNL     1       2.710   5.050  19.239  0.00  0.00    +0.000 A 
ATOM      3  C   UNL     1       2.998   5.662  18.016  0.00  0.00    +0.000 A 
ATOM      4  C   UNL     1       2.705   7.006  17.839  0.00  0.00    +0.000 A 
ATOM      5  C   UNL     1       2.215   7.747  18.906  0.00  0.00    +0.000 A 
ATOM      6  C   UNL     1       1.938   7.160  20.156  0.00  0.00    +0.000 A 
ENDROOT
BRANCH   3   7
ATOM      7  C   UNL     1       3.817   5.030  16.987  0.00  0.00    +0.000 C 
ATOM      8  C   UNL     1       5.142   5.100  16.772  0.00  0.00    +0.000 C 
BRANCH   8   9
ATOM      9  C   UNL     1       6.086   5.962  17.496  0.00  0.00    +0.000 A 
ATOM     10  C   UNL     1       6.882   5.459  18.536  0.00  0.00    +0.000 A 
ATOM     11  C   UNL     1       7.930   6.231  19.050  0.00  0.00    +0.000 A 
ATOM     12  C   UNL     1       8.172   7.497  18.526  0.00  0.00    +0.000 A 
ATOM     13  F   UNL     1       9.211   8.211  18.979  0.00  0.00    +0.000 F 
ATOM     14  C   UNL     1       7.370   8.022  17.522  0.00  0.00    +0.000 A 
ATOM     15  C   UNL     1       6.321   7.258  17.011  0.00  0.00    +0.000 A 
ENDBRANCH   8   9
BRANCH   8  16
ATOM     16  C   UNL     1       5.689   4.260  15.748  0.00  0.00    +0.000 C 
ATOM     17  N   UNL     1       6.135   3.568  14.934  0.00  0.00    +0.000 NA
ENDBRANCH   8  16
ENDBRANCH   3   7
BRANCH   1  18
ATOM     18  O   UNL     1       1.975   5.024  21.434  0.00  0.00    +0.000 OA
BRANCH  18  20
ATOM     19  C   UNL     1       1.266   2.669  21.513  0.00  0.00    +0.000 C 
ATOM     20  C   UNL     1       2.414   3.667  21.467  0.00  0.00    +0.000 C 
ENDBRANCH  18  20
ENDBRANCH   1  18
BRANCH   6  21
ATOM     21  O   UNL     1       1.500   7.907  21.229  0.00  0.00    +0.000 OA
BRANCH  21  22
ATOM     22  C   UNL     1       0.097   8.159  21.205  0.00  0.00    +0.000 C 
BRANCH  22  23
ATOM     23  C   UNL     1      -0.197   9.593  21.375  0.00  0.00    +0.000 A 
ATOM     24  C   UNL     1      -0.342  10.473  22.423  0.00  0.00    +0.000 A 
ATOM     25  C   UNL     1      -0.638  11.734  21.839  0.00  0.00    +0.000 A 
ATOM     26  C   UNL     1      -0.640  11.551  20.472  0.00  0.00    +0.000 A 
ATOM     27  O   UNL     1      -0.358  10.247  20.190  0.00  0.00    +0.000 OA
BRANCH  26  28
ATOM     28  C   UNL     1      -0.876  12.434  19.359  0.00  0.00    +0.000 C 
ATOM     29  O   UNL     1      -0.088  12.675  18.455  0.00  0.00    +0.000 OA
BRANCH  28  30
ATOM     30  O   UNL     1      -2.114  12.993  19.426  0.00  0.00    +0.000 OA
ATOM     31  H   UNL     1      -2.617  12.588  20.164  0.00  0.00    +0.000 HD
ENDBRANCH  28  30
ENDBRANCH  26  28
ENDBRANCH  22  23
ENDBRANCH  21  22
ENDBRANCH   6  21
TORSDOF 10
ENDMDL
MODEL 7
REMARK VINA RESULT:      -7.4      3.128      4.032
REMARK  Name = 
REMARK  11 active torsions:
REMARK  status: ('A' for Active; 'I' for Inactive)
REMARK    1  A    between atoms: C_1  and  C_2
REMARK    2  A    between atoms: C_2  and  O_3
REMARK    3  A    between atoms: O_3  and  C_4
REMARK    4  A    between atoms: C_6  and  C_7
REMARK    5  A    between atoms: C_8  and  C_9
REMARK    6  A    between atoms: C_8  and  C_11
REMARK    7  A    between atoms: C_20  and  O_21
REMARK    8  A    between atoms: O_21  and  C_22
REMARK    9  A    between atoms: C_22  and  C_23
REMARK   10  A    between atoms: C_26  and  C_27
REMARK   11  A    between atoms: C_27  and  O_29
REMARK                            x       y       z     vdW  Elec       q    Type
REMARK                         _______ _______ _______ _____ _____    ______ ____
ROOT
ATOM      1  C   UNL     1       2.021   5.678  20.171  0.00  0.00    +0.000 A 
ATOM      2  C   UNL     1       2.579   4.987  19.076  0.00  0.00    +0.000 A 
ATOM      3  C   UNL     1       3.006   5.670  17.933  0.00  0.00    +0.000 A 
ATOM      4  C   UNL     1       2.849   7.045  17.859  0.00  0.00    +0.000 A 
ATOM      5  C   UNL     1       2.354   7.739  18.955  0.00  0.00    +0.000 A 
ATOM      6  C   UNL     1       1.937   7.078  20.128  0.00  0.00    +0.000 A 
ENDROOT
BRANCH   3   7
ATOM      7  C   UNL     1       3.836   5.050  16.905  0.00  0.00    +0.000 C 
ATOM      8  C   UNL     1       5.164   5.115  16.709  0.00  0.00    +0.000 C 
BRANCH   8   9
ATOM      9  C   UNL     1       6.103   5.958  17.461  0.00  0.00    +0.000 A 
ATOM     10  C   UNL     1       6.891   5.430  18.495  0.00  0.00    +0.000 A 
ATOM     11  C   UNL     1       7.935   6.188  19.035  0.00  0.00    +0.000 A 
ATOM     12  C   UNL     1       8.183   7.466  18.542  0.00  0.00    +0.000 A 
ATOM     13  F   UNL     1       9.219   8.168  19.020  0.00  0.00    +0.000 F 
ATOM     14  C   UNL     1       7.389   8.016  17.545  0.00  0.00    +0.000 A 
ATOM     15  C   UNL     1       6.343   7.265  17.008  0.00  0.00    +0.000 A 
ENDBRANCH   8   9
BRANCH   8  16
ATOM     16  C   UNL     1       5.720   4.289  15.678  0.00  0.00    +0.000 C 
ATOM     17  N   UNL     1       6.158   3.631  14.833  0.00  0.00    +0.000 NA
ENDBRANCH   8  16
ENDBRANCH   3   7
BRANCH   1  18
ATOM     18  O   UNL     1       1.692   4.850  21.209  0.00  0.00    +0.000 OA
BRANCH  18  20
ATOM     19  C   UNL     1       2.242   2.504  21.708  0.00  0.00    +0.000 C 
ATOM     20  C   UNL     1       1.351   3.486  20.963  0.00  0.00    +0.000 C 
ENDBRANCH  18  20
ENDBRANCH   1  18
BRANCH   6  21
ATOM     21  O   UNL     1       1.494   7.772  21.234  0.00  0.00    +0.000 OA
BRANCH  21  22
ATOM     22  C   UNL     1       0.199   8.342  21.060  0.00  0.00    +0.000 C 
BRANCH  22  23
ATOM     23  C   UNL     1       0.238   9.811  21.164  0.00  0.00    +0.000 A 
ATOM     24  C   UNL     1       0.946  10.842  20.589  0.00  0.00    +0.000 A 
ATOM     25  C   UNL     1       0.456  12.035  21.185  0.00  0.00    +0.000 A 
ATOM     26  C   UNL     1      -0.531  11.662  22.074  0.00  0.00    +0.000 A 
ATOM     27  O   UNL     1      -0.671  10.306  22.051  0.00  0.00    +0.000 OA
BRANCH  26  28
ATOM     28  C   UNL     1      -1.382  12.403  22.969  0.00  0.00    +0.000 C 
ATOM     29  O   UNL     1      -1.171  13.532  23.388  0.00  0.00    +0.000 OA
BRANCH  28  30
ATOM     30  O   UNL     1      -2.484  11.684  23.311  0.00  0.00    +0.000 OA
ATOM     31  H   UNL     1      -2.216  10.774  23.564  0.00  0.00    +0.000 HD
ENDBRANCH  28  30
ENDBRANCH  26  28
ENDBRANCH  22  23
ENDBRANCH  21  22
ENDBRANCH   6  21
TORSDOF 10
ENDMDL
MODEL 8
REMARK VINA RESULT:      -7.4      2.616      4.149
REMARK  Name = 
REMARK  11 active torsions:
REMARK  status: ('A' for Active; 'I' for Inactive)
REMARK    1  A    between atoms: C_1  and  C_2
REMARK    2  A    between atoms: C_2  and  O_3
REMARK    3  A    between atoms: O_3  and  C_4
REMARK    4  A    between atoms: C_6  and  C_7
REMARK    5  A    between atoms: C_8  and  C_9
REMARK    6  A    between atoms: C_8  and  C_11
REMARK    7  A    between atoms: C_20  and  O_21
REMARK    8  A    between atoms: O_21  and  C_22
REMARK    9  A    between atoms: C_22  and  C_23
REMARK   10  A    between atoms: C_26  and  C_27
REMARK   11  A    between atoms: C_27  and  O_29
REMARK                            x       y       z     vdW  Elec       q    Type
REMARK                         _______ _______ _______ _____ _____    ______ ____
ROOT
ATOM      1  C   UNL     1       0.385  10.388  20.344  0.00  0.00    +0.000 A 
ATOM      2  C   UNL     1       1.428   9.535  19.927  0.00  0.00    +0.000 A 
ATOM      3  C   UNL     1       1.491   9.061  18.614  0.00  0.00    +0.000 A 
ATOM      4  C   UNL     1       0.496   9.406  17.713  0.00  0.00    +0.000 A 
ATOM      5  C   UNL     1      -0.502  10.291  18.099  0.00  0.00    +0.000 A 
ATOM      6  C   UNL     1      -0.577  10.803  19.410  0.00  0.00    +0.000 A 
ENDROOT
BRANCH   3   7
ATOM      7  C   UNL     1       2.679   8.417  18.061  0.00  0.00    +0.000 C 
ATOM      8  C   UNL     1       3.019   7.118  18.020  0.00  0.00    +0.000 C 
BRANCH   8   9
ATOM      9  C   UNL     1       2.282   6.016  18.653  0.00  0.00    +0.000 A 
ATOM     10  C   UNL     1       1.836   4.913  17.909  0.00  0.00    +0.000 A 
ATOM     11  C   UNL     1       1.347   3.779  18.565  0.00  0.00    +0.000 A 
ATOM     12  C   UNL     1       1.303   3.755  19.955  0.00  0.00    +0.000 A 
ATOM     13  F   UNL     1       0.888   2.646  20.583  0.00  0.00    +0.000 F 
ATOM     14  C   UNL     1       1.705   4.852  20.704  0.00  0.00    +0.000 A 
ATOM     15  C   UNL     1       2.188   5.987  20.054  0.00  0.00    +0.000 A 
ENDBRANCH   8   9
BRANCH   8  16
ATOM     16  C   UNL     1       4.203   6.769  17.291  0.00  0.00    +0.000 C 
ATOM     17  N   UNL     1       5.169   6.487  16.720  0.00  0.00    +0.000 NA
ENDBRANCH   8  16
ENDBRANCH   3   7
BRANCH   1  18
ATOM     18  O   UNL     1       0.506  10.775  21.651  0.00  0.00    +0.000 OA
BRANCH  18  20
ATOM     19  C   UNL     1      -1.419  11.121  23.144  0.00  0.00    +0.000 C 
ATOM     20  C   UNL     1      -0.320  10.188  22.656  0.00  0.00    +0.000 C 
ENDBRANCH  18  20
ENDBRANCH   1  18
BRANCH   6  21
ATOM     21  O   UNL     1      -1.537  11.721  19.778  0.00  0.00    +0.000 OA
BRANCH  21  22
ATOM     22  C   UNL     1      -2.556  11.895  18.796  0.00  0.00    +0.000 C 
BRANCH  22  23
ATOM     23  C   UNL     1      -3.868  12.145  19.418  0.00  0.00    +0.000 A 
ATOM     24  C   UNL     1      -5.185  12.158  19.017  0.00  0.00    +0.000 A 
ATOM     25  C   UNL     1      -5.943  12.498  20.170  0.00  0.00    +0.000 A 
ATOM     26  C   UNL     1      -5.046  12.655  21.206  0.00  0.00    +0.000 A 
ATOM     27  O   UNL     1      -3.782  12.428  20.749  0.00  0.00    +0.000 OA
BRANCH  26  28
ATOM     28  C   UNL     1      -5.196  13.000  22.596  0.00  0.00    +0.000 C 
ATOM     29  O   UNL     1      -6.010  12.515  23.371  0.00  0.00    +0.000 OA
BRANCH  28  30
ATOM     30  O   UNL     1      -4.307  13.959  22.967  0.00  0.00    +0.000 OA
ATOM     31  H   UNL     1      -4.115  14.542  22.201  0.00  0.00    +0.000 HD
ENDBRANCH  28  30
ENDBRANCH  26  28
ENDBRANCH  22  23
ENDBRANCH  21  22
ENDBRANCH   6  21
TORSDOF 10
ENDMDL
MODEL 9
REMARK VINA RESULT:      -7.4      2.939      3.865
REMARK  Name = 
REMARK  11 active torsions:
REMARK  status: ('A' for Active; 'I' for Inactive)
REMARK    1  A    between atoms: C_1  and  C_2
REMARK    2  A    between atoms: C_2  and  O_3
REMARK    3  A    between atoms: O_3  and  C_4
REMARK    4  A    between atoms: C_6  and  C_7
REMARK    5  A    between atoms: C_8  and  C_9
REMARK    6  A    between atoms: C_8  and  C_11
REMARK    7  A    between atoms: C_20  and  O_21
REMARK    8  A    between atoms: O_21  and  C_22
REMARK    9  A    between atoms: C_22  and  C_23
REMARK   10  A    between atoms: C_26  and  C_27
REMARK   11  A    between atoms: C_27  and  O_29
REMARK                            x       y       z     vdW  Elec       q    Type
REMARK                         _______ _______ _______ _____ _____    ______ ____
ROOT
ATOM      1  C   UNL     1       2.395   5.407  20.309  0.00  0.00    +0.000 A 
ATOM      2  C   UNL     1       3.004   4.722  19.238  0.00  0.00    +0.000 A 
ATOM      3  C   UNL     1       3.109   5.308  17.973  0.00  0.00    +0.000 A 
ATOM      4  C   UNL     1       2.576   6.569  17.757  0.00  0.00    +0.000 A 
ATOM      5  C   UNL     1       2.026   7.272  18.820  0.00  0.00    +0.000 A 
ATOM      6  C   UNL     1       1.928   6.715  20.110  0.00  0.00    +0.000 A 
ENDROOT
BRANCH   3   7
ATOM      7  C   UNL     1       3.966   4.771  16.920  0.00  0.00    +0.000 C 
ATOM      8  C   UNL     1       5.281   4.945  16.702  0.00  0.00    +0.000 C 
BRANCH   8   9
ATOM      9  C   UNL     1       6.164   5.849  17.450  0.00  0.00    +0.000 A 
ATOM     10  C   UNL     1       6.975   5.379  18.495  0.00  0.00    +0.000 A 
ATOM     11  C   UNL     1       7.969   6.203  19.032  0.00  0.00    +0.000 A 
ATOM     12  C   UNL     1       8.145   7.488  18.528  0.00  0.00    +0.000 A 
ATOM     13  F   UNL     1       9.134   8.254  19.005  0.00  0.00    +0.000 F 
ATOM     14  C   UNL     1       7.326   7.980  17.521  0.00  0.00    +0.000 A 
ATOM     15  C   UNL     1       6.330   7.164  16.986  0.00  0.00    +0.000 A 
ENDBRANCH   8   9
BRANCH   8  16
ATOM     16  C   UNL     1       5.881   4.180  15.649  0.00  0.00    +0.000 C 
ATOM     17  N   UNL     1       6.350   3.553  14.796  0.00  0.00    +0.000 NA
ENDBRANCH   8  16
ENDBRANCH   3   7
BRANCH   1  18
ATOM     18  O   UNL     1       2.413   4.691  21.475  0.00  0.00    +0.000 OA
BRANCH  18  20
ATOM     19  C   UNL     1       0.931   2.805  20.925  0.00  0.00    +0.000 C 
ATOM     20  C   UNL     1       2.281   3.270  21.451  0.00  0.00    +0.000 C 
ENDBRANCH  18  20
ENDBRANCH   1  18
BRANCH   6  21
ATOM     21  O   UNL     1       1.429   7.433  21.176  0.00  0.00    +0.000 OA
BRANCH  21  22
ATOM     22  C   UNL     1       1.534   8.844  21.004  0.00  0.00    +0.000 C 
BRANCH  22  23
ATOM     23  C   UNL     1       0.534   9.563  21.812  0.00  0.00    +0.000 A 
ATOM     24  C   UNL     1      -0.061   9.412  23.044  0.00  0.00    +0.000 A 
ATOM     25  C   UNL     1      -0.966  10.499  23.179  0.00  0.00    +0.000 A 
ATOM     26  C   UNL     1      -0.857  11.256  22.031  0.00  0.00    +0.000 A 
ATOM     27  O   UNL     1       0.067  10.690  21.203  0.00  0.00    +0.000 OA
BRANCH  26  28
ATOM     28  C   UNL     1      -1.508  12.457  21.576  0.00  0.00    +0.000 C 
ATOM     29  O   UNL     1      -0.953  13.430  21.083  0.00  0.00    +0.000 OA
BRANCH  28  30
ATOM     30  O   UNL     1      -2.853  12.392  21.763  0.00  0.00    +0.000 OA
ATOM     31  H   UNL     1      -3.281  13.163  21.333  0.00  0.00    +0.000 HD
ENDBRANCH  28  30
ENDBRANCH  26  28
ENDBRANCH  22  23
ENDBRANCH  21  22
ENDBRANCH   6  21
TORSDOF 10
ENDMDL
