MODEL 1
REMARK VINA RESULT:      -6.8      0.000      0.000
REMARK  Name = 
REMARK  3 active torsions:
REMARK  status: ('A' for Active; 'I' for Inactive)
REMARK    1  A    between atoms: C_1  and  C_2
REMARK    2  A    between atoms: N_4  and  C_5
REMARK    3  A    between atoms: N_9  and  C_10
REMARK                            x       y       z     vdW  Elec       q    Type
REMARK                         _______ _______ _______ _____ _____    ______ ____
ROOT
ATOM      1  C   UNL     1       5.429   4.243  17.304  0.00  0.00    +0.000 A 
ATOM      2  C   UNL     1       6.323   4.731  18.234  0.00  0.00    +0.000 A 
ATOM      3  C   UNL     1       5.544   5.154  19.318  0.00  0.00    +0.000 A 
ATOM      4  N   UNL     1       4.246   4.974  19.100  0.00  0.00    +0.000 NA
ATOM      5  N   UNL     1       4.179   4.378  17.891  0.00  0.00    +0.000 N 
ENDROOT
BRANCH   5   6
ATOM      6  C   UNL     1       2.884   3.871  17.428  0.00  0.00    +0.000 C 
ATOM      7  C   UNL     1       2.734   2.346  17.584  0.00  0.00    +0.000 C 
ATOM      8  C   UNL     1       2.565   1.887  19.033  0.00  0.00    +0.000 C 
ATOM      9  C   UNL     1       1.533   2.686  19.829  0.00  0.00    +0.000 C 
ATOM     10  C   UNL     1       1.468   4.188  19.545  0.00  0.00    +0.000 C 
ATOM     11  C   UNL     1       1.673   4.559  18.078  0.00  0.00    +0.000 C 
ENDBRANCH   5   6
BRANCH   1  15
ATOM     12  C   UNL     1       6.205   3.813  13.619  0.00  0.00    +0.000 C 
ATOM     13  C   UNL     1       5.899   4.573  14.872  0.00  0.00    +0.000 C 
ATOM     14  O   UNL     1       5.829   5.794  14.927  0.00  0.00    +0.000 OA
ATOM     15  N   UNL     1       5.735   3.742  16.040  0.00  0.00    +0.000 N 
ATOM     16  H   UNL     1       5.856   2.744  15.937  0.00  0.00    +0.000 HD
ENDBRANCH   1  15
TORSDOF 2
ENDMDL
MODEL 2
REMARK VINA RESULT:      -6.8      1.243      1.732
REMARK  Name = 
REMARK  3 active torsions:
REMARK  status: ('A' for Active; 'I' for Inactive)
REMARK    1  A    between atoms: C_1  and  C_2
REMARK    2  A    between atoms: N_4  and  C_5
REMARK    3  A    between atoms: N_9  and  C_10
REMARK                            x       y       z     vdW  Elec       q    Type
REMARK                         _______ _______ _______ _____ _____    ______ ____
ROOT
ATOM      1  C   UNL     1       6.463   4.450  17.449  0.00  0.00    +0.000 A 
ATOM      2  C   UNL     1       7.437   5.264  17.989  0.00  0.00    +0.000 A 
ATOM      3  C   UNL     1       7.011   5.545  19.293  0.00  0.00    +0.000 A 
ATOM      4  N   UNL     1       5.844   4.975  19.570  0.00  0.00    +0.000 NA
ATOM      5  N   UNL     1       5.532   4.272  18.462  0.00  0.00    +0.000 N 
ENDROOT
BRANCH   5   6
ATOM      6  C   UNL     1       4.378   3.368  18.504  0.00  0.00    +0.000 C 
ATOM      7  C   UNL     1       3.726   3.274  19.896  0.00  0.00    +0.000 C 
ATOM      8  C   UNL     1       2.949   4.528  20.300  0.00  0.00    +0.000 C 
ATOM      9  C   UNL     1       2.006   5.058  19.220  0.00  0.00    +0.000 C 
ATOM     10  C   UNL     1       2.503   4.963  17.776  0.00  0.00    +0.000 C 
ATOM     11  C   UNL     1       3.291   3.691  17.466  0.00  0.00    +0.000 C 
ENDBRANCH   5   6
BRANCH   1  15
ATOM     12  C   UNL     1       6.044   3.949  13.716  0.00  0.00    +0.000 C 
ATOM     13  C   UNL     1       6.018   4.711  15.004  0.00  0.00    +0.000 C 
ATOM     14  O   UNL     1       5.714   5.894  15.089  0.00  0.00    +0.000 OA
ATOM     15  N   UNL     1       6.430   3.941  16.152  0.00  0.00    +0.000 N 
ATOM     16  H   UNL     1       6.718   2.983  16.006  0.00  0.00    +0.000 HD
ENDBRANCH   1  15
TORSDOF 2
ENDMDL
MODEL 3
REMARK VINA RESULT:      -6.4      1.992      3.574
REMARK  Name = 
REMARK  3 active torsions:
REMARK  status: ('A' for Active; 'I' for Inactive)
REMARK    1  A    between atoms: C_1  and  C_2
REMARK    2  A    between atoms: N_4  and  C_5
REMARK    3  A    between atoms: N_9  and  C_10
REMARK                            x       y       z     vdW  Elec       q    Type
REMARK                         _______ _______ _______ _____ _____    ______ ____
ROOT
ATOM      1  C   UNL     1       6.846   5.044  16.661  0.00  0.00    +0.000 A 
ATOM      2  C   UNL     1       6.981   4.836  15.304  0.00  0.00    +0.000 A 
ATOM      3  C   UNL     1       6.009   3.886  14.970  0.00  0.00    +0.000 A 
ATOM      4  N   UNL     1       5.310   3.494  16.030  0.00  0.00    +0.000 NA
ATOM      5  N   UNL     1       5.791   4.233  17.052  0.00  0.00    +0.000 N 
ENDROOT
BRANCH   5   6
ATOM      6  C   UNL     1       5.103   4.176  18.345  0.00  0.00    +0.000 C 
ATOM      7  C   UNL     1       4.477   5.519  18.764  0.00  0.00    +0.000 C 
ATOM      8  C   UNL     1       3.240   5.905  17.953  0.00  0.00    +0.000 C 
ATOM      9  C   UNL     1       2.217   4.780  17.795  0.00  0.00    +0.000 C 
ATOM     10  C   UNL     1       2.780   3.370  17.608  0.00  0.00    +0.000 C 
ATOM     11  C   UNL     1       4.030   3.078  18.436  0.00  0.00    +0.000 C 
ENDBRANCH   5   6
BRANCH   1  15
ATOM     12  C   UNL     1       8.402   8.008  18.437  0.00  0.00    +0.000 C 
ATOM     13  C   UNL     1       7.433   7.310  17.535  0.00  0.00    +0.000 C 
ATOM     14  O   UNL     1       6.525   7.879  16.941  0.00  0.00    +0.000 OA
ATOM     15  N   UNL     1       7.625   5.883  17.455  0.00  0.00    +0.000 N 
ATOM     16  H   UNL     1       8.361   5.468  18.011  0.00  0.00    +0.000 HD
ENDBRANCH   1  15
TORSDOF 2
ENDMDL
MODEL 4
REMARK VINA RESULT:      -6.4      2.248      2.713
REMARK  Name = 
REMARK  3 active torsions:
REMARK  status: ('A' for Active; 'I' for Inactive)
REMARK    1  A    between atoms: C_1  and  C_2
REMARK    2  A    between atoms: N_4  and  C_5
REMARK    3  A    between atoms: N_9  and  C_10
REMARK                            x       y       z     vdW  Elec       q    Type
REMARK                         _______ _______ _______ _____ _____    ______ ____
ROOT
ATOM      1  C   UNL     1       4.145   5.370  17.757  0.00  0.00    +0.000 A 
ATOM      2  C   UNL     1       3.665   6.659  17.865  0.00  0.00    +0.000 A 
ATOM      3  C   UNL     1       2.322   6.530  18.240  0.00  0.00    +0.000 A 
ATOM      4  N   UNL     1       1.954   5.258  18.347  0.00  0.00    +0.000 NA
ATOM      5  N   UNL     1       3.076   4.553  18.096  0.00  0.00    +0.000 N 
ENDROOT
BRANCH   5   6
ATOM      6  C   UNL     1       3.059   3.103  18.315  0.00  0.00    +0.000 C 
ATOM      7  C   UNL     1       3.766   2.672  19.613  0.00  0.00    +0.000 C 
ATOM      8  C   UNL     1       2.992   3.024  20.884  0.00  0.00    +0.000 C 
ATOM      9  C   UNL     1       1.511   2.647  20.842  0.00  0.00    +0.000 C 
ATOM     10  C   UNL     1       0.799   2.831  19.501  0.00  0.00    +0.000 C 
ATOM     11  C   UNL     1       1.653   2.481  18.283  0.00  0.00    +0.000 C 
ENDBRANCH   5   6
BRANCH   1  15
ATOM     12  C   UNL     1       7.826   4.478  17.641  0.00  0.00    +0.000 C 
ATOM     13  C   UNL     1       6.537   4.882  18.286  0.00  0.00    +0.000 C 
ATOM     14  O   UNL     1       6.408   5.068  19.489  0.00  0.00    +0.000 OA
ATOM     15  N   UNL     1       5.429   4.991  17.370  0.00  0.00    +0.000 N 
ATOM     16  H   UNL     1       5.590   4.773  16.396  0.00  0.00    +0.000 HD
ENDBRANCH   1  15
TORSDOF 2
ENDMDL
MODEL 5
REMARK VINA RESULT:      -6.4      2.071      2.819
REMARK  Name = 
REMARK  3 active torsions:
REMARK  status: ('A' for Active; 'I' for Inactive)
REMARK    1  A    between atoms: C_1  and  C_2
REMARK    2  A    between atoms: N_4  and  C_5
REMARK    3  A    between atoms: N_9  and  C_10
REMARK                            x       y       z     vdW  Elec       q    Type
REMARK                         _______ _______ _______ _____ _____    ______ ____
ROOT
ATOM      1  C   UNL     1       3.888   6.017  17.931  0.00  0.00    +0.000 A 
ATOM      2  C   UNL     1       3.452   7.318  17.787  0.00  0.00    +0.000 A 
ATOM      3  C   UNL     1       2.474   7.498  18.772  0.00  0.00    +0.000 A 
ATOM      4  N   UNL     1       2.278   6.396  19.488  0.00  0.00    +0.000 NA
ATOM      5  N   UNL     1       3.170   5.508  19.004  0.00  0.00    +0.000 N 
ENDROOT
BRANCH   5   6
ATOM      6  C   UNL     1       3.343   4.232  19.704  0.00  0.00    +0.000 C 
ATOM      7  C   UNL     1       2.265   3.970  20.772  0.00  0.00    +0.000 C 
ATOM      8  C   UNL     1       0.889   3.638  20.193  0.00  0.00    +0.000 C 
ATOM      9  C   UNL     1       0.913   2.589  19.081  0.00  0.00    +0.000 C 
ATOM     10  C   UNL     1       2.097   2.648  18.115  0.00  0.00    +0.000 C 
ATOM     11  C   UNL     1       3.427   3.012  18.773  0.00  0.00    +0.000 C 
ENDBRANCH   5   6
BRANCH   1  15
ATOM     12  C   UNL     1       7.062   4.514  16.506  0.00  0.00    +0.000 C 
ATOM     13  C   UNL     1       6.225   5.234  17.517  0.00  0.00    +0.000 C 
ATOM     14  O   UNL     1       6.654   5.646  18.587  0.00  0.00    +0.000 OA
ATOM     15  N   UNL     1       4.837   5.366  17.145  0.00  0.00    +0.000 N 
ATOM     16  H   UNL     1       4.536   4.959  16.270  0.00  0.00    +0.000 HD
ENDBRANCH   1  15
TORSDOF 2
ENDMDL
MODEL 6
REMARK VINA RESULT:      -6.3      1.029      1.428
REMARK  Name = 
REMARK  3 active torsions:
REMARK  status: ('A' for Active; 'I' for Inactive)
REMARK    1  A    between atoms: C_1  and  C_2
REMARK    2  A    between atoms: N_4  and  C_5
REMARK    3  A    between atoms: N_9  and  C_10
REMARK                            x       y       z     vdW  Elec       q    Type
REMARK                         _______ _______ _______ _____ _____    ______ ____
ROOT
ATOM      1  C   UNL     1       5.644   4.453  17.294  0.00  0.00    +0.000 A 
ATOM      2  C   UNL     1       6.530   5.334  17.879  0.00  0.00    +0.000 A 
ATOM      3  C   UNL     1       6.240   5.305  19.248  0.00  0.00    +0.000 A 
ATOM      4  N   UNL     1       5.234   4.484  19.528  0.00  0.00    +0.000 NA
ATOM      5  N   UNL     1       4.900   3.932  18.343  0.00  0.00    +0.000 N 
ENDROOT
BRANCH   5   6
ATOM      6  C   UNL     1       3.932   2.831  18.327  0.00  0.00    +0.000 C 
ATOM      7  C   UNL     1       3.391   2.474  19.724  0.00  0.00    +0.000 C 
ATOM      8  C   UNL     1       2.427   3.513  20.297  0.00  0.00    +0.000 C 
ATOM      9  C   UNL     1       1.342   3.970  19.322  0.00  0.00    +0.000 C 
ATOM     10  C   UNL     1       1.762   4.118  17.858  0.00  0.00    +0.000 C 
ATOM     11  C   UNL     1       2.746   3.054  17.375  0.00  0.00    +0.000 C 
ENDBRANCH   5   6
BRANCH   1  15
ATOM     12  C   UNL     1       6.249   3.968  13.584  0.00  0.00    +0.000 C 
ATOM     13  C   UNL     1       6.615   4.304  14.996  0.00  0.00    +0.000 C 
ATOM     14  O   UNL     1       7.743   4.624  15.349  0.00  0.00    +0.000 OA
ATOM     15  N   UNL     1       5.526   4.173  15.934  0.00  0.00    +0.000 N 
ATOM     16  H   UNL     1       4.632   3.855  15.586  0.00  0.00    +0.000 HD
ENDBRANCH   1  15
TORSDOF 2
ENDMDL
MODEL 7
REMARK VINA RESULT:      -6.3      2.215      3.444
REMARK  Name = 
REMARK  3 active torsions:
REMARK  status: ('A' for Active; 'I' for Inactive)
REMARK    1  A    between atoms: C_1  and  C_2
REMARK    2  A    between atoms: N_4  and  C_5
REMARK    3  A    between atoms: N_9  and  C_10
REMARK                            x       y       z     vdW  Elec       q    Type
REMARK                         _______ _______ _______ _____ _____    ______ ____
ROOT
ATOM      1  C   UNL     1       6.268   5.751  16.185  0.00  0.00    +0.000 A 
ATOM      2  C   UNL     1       6.738   4.940  15.172  0.00  0.00    +0.000 A 
ATOM      3  C   UNL     1       5.959   3.777  15.231  0.00  0.00    +0.000 A 
ATOM      4  N   UNL     1       5.068   3.822  16.215  0.00  0.00    +0.000 NA
ATOM      5  N   UNL     1       5.227   5.043  16.767  0.00  0.00    +0.000 N 
ENDROOT
BRANCH   5   6
ATOM      6  C   UNL     1       4.261   5.489  17.776  0.00  0.00    +0.000 C 
ATOM      7  C   UNL     1       2.854   4.894  17.581  0.00  0.00    +0.000 C 
ATOM      8  C   UNL     1       2.758   3.408  17.927  0.00  0.00    +0.000 C 
ATOM      9  C   UNL     1       3.398   3.032  19.264  0.00  0.00    +0.000 C 
ATOM     10  C   UNL     1       4.688   3.767  19.632  0.00  0.00    +0.000 C 
ATOM     11  C   UNL     1       4.710   5.240  19.226  0.00  0.00    +0.000 C 
ENDBRANCH   5   6
BRANCH   1  15
ATOM     12  C   UNL     1       7.977   8.667  17.898  0.00  0.00    +0.000 C 
ATOM     13  C   UNL     1       7.582   7.237  17.704  0.00  0.00    +0.000 C 
ATOM     14  O   UNL     1       7.947   6.325  18.435  0.00  0.00    +0.000 OA
ATOM     15  N   UNL     1       6.761   7.005  16.541  0.00  0.00    +0.000 N 
ATOM     16  H   UNL     1       6.537   7.793  15.949  0.00  0.00    +0.000 HD
ENDBRANCH   1  15
TORSDOF 2
ENDMDL
MODEL 8
REMARK VINA RESULT:      -6.3      1.529      1.727
REMARK  Name = 
REMARK  3 active torsions:
REMARK  status: ('A' for Active; 'I' for Inactive)
REMARK    1  A    between atoms: C_1  and  C_2
REMARK    2  A    between atoms: N_4  and  C_5
REMARK    3  A    between atoms: N_9  and  C_10
REMARK                            x       y       z     vdW  Elec       q    Type
REMARK                         _______ _______ _______ _____ _____    ______ ____
ROOT
ATOM      1  C   UNL     1       4.040   5.210  17.363  0.00  0.00    +0.000 A 
ATOM      2  C   UNL     1       4.026   6.540  17.731  0.00  0.00    +0.000 A 
ATOM      3  C   UNL     1       2.866   6.704  18.498  0.00  0.00    +0.000 A 
ATOM      4  N   UNL     1       2.172   5.576  18.602  0.00  0.00    +0.000 NA
ATOM      5  N   UNL     1       2.911   4.656  17.947  0.00  0.00    +0.000 N 
ENDROOT
BRANCH   5   6
ATOM      6  C   UNL     1       2.513   3.248  18.029  0.00  0.00    +0.000 C 
ATOM      7  C   UNL     1       3.494   2.382  18.842  0.00  0.00    +0.000 C 
ATOM      8  C   UNL     1       3.444   2.640  20.348  0.00  0.00    +0.000 C 
ATOM      9  C   UNL     1       2.032   2.673  20.933  0.00  0.00    +0.000 C 
ATOM     10  C   UNL     1       0.950   3.316  20.063  0.00  0.00    +0.000 C 
ATOM     11  C   UNL     1       1.091   3.028  18.570  0.00  0.00    +0.000 C 
ENDBRANCH   5   6
BRANCH   1  15
ATOM     12  C   UNL     1       6.568   4.329  14.680  0.00  0.00    +0.000 C 
ATOM     13  C   UNL     1       5.591   5.203  15.404  0.00  0.00    +0.000 C 
ATOM     14  O   UNL     1       5.344   6.358  15.082  0.00  0.00    +0.000 OA
ATOM     15  N   UNL     1       4.988   4.581  16.557  0.00  0.00    +0.000 N 
ATOM     16  H   UNL     1       5.274   3.643  16.799  0.00  0.00    +0.000 HD
ENDBRANCH   1  15
TORSDOF 2
ENDMDL
MODEL 9
REMARK VINA RESULT:      -6.3      2.865      5.382
REMARK  Name = 
REMARK  3 active torsions:
REMARK  status: ('A' for Active; 'I' for Inactive)
REMARK    1  A    between atoms: C_1  and  C_2
REMARK    2  A    between atoms: N_4  and  C_5
REMARK    3  A    between atoms: N_9  and  C_10
REMARK                            x       y       z     vdW  Elec       q    Type
REMARK                         _______ _______ _______ _____ _____    ______ ____
ROOT
ATOM      1  C   UNL     1       2.910   6.299  19.436  0.00  0.00    +0.000 A 
ATOM      2  C   UNL     1       2.171   7.462  19.366  0.00  0.00    +0.000 A 
ATOM      3  C   UNL     1       2.593   8.104  18.195  0.00  0.00    +0.000 A 
ATOM      4  N   UNL     1       3.543   7.422  17.566  0.00  0.00    +0.000 NA
ATOM      5  N   UNL     1       3.705   6.301  18.299  0.00  0.00    +0.000 N 
ENDROOT
BRANCH   5   6
ATOM      6  C   UNL     1       4.562   5.234  17.773  0.00  0.00    +0.000 C 
ATOM      7  C   UNL     1       5.459   5.690  16.607  0.00  0.00    +0.000 C 
ATOM      8  C   UNL     1       6.605   6.608  17.031  0.00  0.00    +0.000 C 
ATOM      9  C   UNL     1       7.390   6.112  18.246  0.00  0.00    +0.000 C 
ATOM     10  C   UNL     1       6.578   5.429  19.348  0.00  0.00    +0.000 C 
ATOM     11  C   UNL     1       5.437   4.552  18.836  0.00  0.00    +0.000 C 
ENDBRANCH   5   6
BRANCH   1  15
ATOM     12  C   UNL     1       2.090   3.333  21.648  0.00  0.00    +0.000 C 
ATOM     13  C   UNL     1       1.976   4.210  20.440  0.00  0.00    +0.000 C 
ATOM     14  O   UNL     1       1.229   3.978  19.499  0.00  0.00    +0.000 OA
ATOM     15  N   UNL     1       2.865   5.346  20.452  0.00  0.00    +0.000 N 
ATOM     16  H   UNL     1       3.494   5.452  21.236  0.00  0.00    +0.000 HD
ENDBRANCH   1  15
TORSDOF 2
ENDMDL
