MODEL 1
REMARK VINA RESULT:      -8.9      0.000      0.000
REMARK  Name = 
REMARK  6 active torsions:
REMARK  status: ('A' for Active; 'I' for Inactive)
REMARK    1  A    between atoms: C_1  and  N_2
REMARK    2  A    between atoms: C_6  and  N_7
REMARK    3  A    between atoms: C_10  and  O_11
REMARK    4  A    between atoms: C_14  and  C_15
REMARK    5  A    between atoms: C_15  and  C_16
REMARK    6  A    between atoms: C_20  and  C_21
REMARK                            x       y       z     vdW  Elec       q    Type
REMARK                         _______ _______ _______ _____ _____    ______ ____
ROOT
ATOM      1  C   UNL     1       7.591   7.029  17.251  0.00  0.00    +0.000 C 
ATOM      2  N   UNL     1       6.515   6.319  17.912  0.00  0.00    +0.000 N 
ATOM      3  C   UNL     1       6.817   5.351  18.843  0.00  0.00    +0.000 A 
ATOM      4  O   UNL     1       7.958   5.023  19.166  0.00  0.00    +0.000 OA
ATOM      5  N   UNL     1       5.751   4.740  19.431  0.00  0.00    +0.000 N 
ATOM      6  C   UNL     1       4.441   4.962  19.146  0.00  0.00    +0.000 A 
ATOM      7  C   UNL     1       4.118   5.889  18.222  0.00  0.00    +0.000 A 
ATOM      8  C   UNL     1       5.217   6.679  17.594  0.00  0.00    +0.000 A 
ATOM      9  O   UNL     1       4.948   7.598  16.821  0.00  0.00    +0.000 OA
ATOM     10  H   UNL     1       5.982   4.025  20.106  0.00  0.00    +0.000 HD
ENDROOT
BRANCH   6  11
ATOM     11  N   UNL     1       3.476   4.226  19.819  0.00  0.00    +0.000 N 
ATOM     12  C   UNL     1       2.662   4.831  20.877  0.00  0.00    +0.000 C 
ATOM     13  C   UNL     1       1.243   4.277  20.780  0.00  0.00    +0.000 C 
ATOM     14  C   UNL     1       1.223   2.749  20.799  0.00  0.00    +0.000 C 
ATOM     15  C   UNL     1       2.214   2.137  19.810  0.00  0.00    +0.000 C 
ATOM     16  C   UNL     1       3.599   2.765  19.921  0.00  0.00    +0.000 C 
BRANCH  14  17
ATOM     17  O   UNL     1       1.466   2.262  22.117  0.00  0.00    +0.000 OA
ATOM     18  H   UNL     1       1.577   3.012  22.722  0.00  0.00    +0.000 HD
ENDBRANCH  14  17
ENDBRANCH   6  11
BRANCH   7  19
ATOM     19  C   UNL     1       2.704   6.262  17.846  0.00  0.00    +0.000 C 
BRANCH  19  20
ATOM     20  C   UNL     1       2.194   7.585  18.396  0.00  0.00    +0.000 A 
ATOM     21  C   UNL     1       2.111   8.701  17.547  0.00  0.00    +0.000 A 
ATOM     22  C   UNL     1       1.606   9.919  18.005  0.00  0.00    +0.000 A 
ATOM     23  C   UNL     1       1.140  10.033  19.313  0.00  0.00    +0.000 A 
ATOM     24  C   UNL     1       1.178   8.928  20.174  0.00  0.00    +0.000 A 
ATOM     25  C   UNL     1       1.715   7.715  19.707  0.00  0.00    +0.000 A 
BRANCH  24  26
ATOM     26  C   UNL     1       0.632   9.006  21.578  0.00  0.00    +0.000 C 
ATOM     27  F   UNL     1       0.223  10.254  21.938  0.00  0.00    +0.000 F 
ATOM     28  F   UNL     1      -0.445   8.193  21.763  0.00  0.00    +0.000 F 
ATOM     29  F   UNL     1       1.548   8.629  22.513  0.00  0.00    +0.000 F 
ENDBRANCH  24  26
ENDBRANCH  19  20
ENDBRANCH   7  19
TORSDOF 5
ENDMDL
MODEL 2
REMARK VINA RESULT:      -8.7      1.841      4.455
REMARK  Name = 
REMARK  6 active torsions:
REMARK  status: ('A' for Active; 'I' for Inactive)
REMARK    1  A    between atoms: C_1  and  N_2
REMARK    2  A    between atoms: C_6  and  N_7
REMARK    3  A    between atoms: C_10  and  O_11
REMARK    4  A    between atoms: C_14  and  C_15
REMARK    5  A    between atoms: C_15  and  C_16
REMARK    6  A    between atoms: C_20  and  C_21
REMARK                            x       y       z     vdW  Elec       q    Type
REMARK                         _______ _______ _______ _____ _____    ______ ____
ROOT
ATOM      1  C   UNL     1       2.318   2.129  21.846  0.00  0.00    +0.000 C 
ATOM      2  N   UNL     1       3.008   2.741  20.728  0.00  0.00    +0.000 N 
ATOM      3  C   UNL     1       4.339   2.457  20.521  0.00  0.00    +0.000 A 
ATOM      4  O   UNL     1       5.015   1.711  21.228  0.00  0.00    +0.000 OA
ATOM      5  N   UNL     1       4.913   3.058  19.441  0.00  0.00    +0.000 N 
ATOM      6  C   UNL     1       4.309   3.938  18.598  0.00  0.00    +0.000 A 
ATOM      7  C   UNL     1       3.012   4.250  18.793  0.00  0.00    +0.000 A 
ATOM      8  C   UNL     1       2.274   3.565  19.893  0.00  0.00    +0.000 A 
ATOM      9  O   UNL     1       1.067   3.755  20.034  0.00  0.00    +0.000 OA
ATOM     10  H   UNL     1       5.891   2.852  19.301  0.00  0.00    +0.000 HD
ENDROOT
BRANCH   6  11
ATOM     11  N   UNL     1       5.051   4.486  17.561  0.00  0.00    +0.000 N 
ATOM     12  C   UNL     1       5.445   3.680  16.401  0.00  0.00    +0.000 C 
ATOM     13  C   UNL     1       5.360   4.549  15.150  0.00  0.00    +0.000 C 
ATOM     14  C   UNL     1       6.167   5.839  15.293  0.00  0.00    +0.000 C 
ATOM     15  C   UNL     1       5.871   6.574  16.600  0.00  0.00    +0.000 C 
ATOM     16  C   UNL     1       5.921   5.644  17.808  0.00  0.00    +0.000 C 
BRANCH  14  17
ATOM     17  O   UNL     1       7.564   5.571  15.176  0.00  0.00    +0.000 OA
ATOM     18  H   UNL     1       8.040   6.404  15.034  0.00  0.00    +0.000 HD
ENDBRANCH  14  17
ENDBRANCH   6  11
BRANCH   7  19
ATOM     19  C   UNL     1       2.216   5.176  17.905  0.00  0.00    +0.000 C 
BRANCH  19  20
ATOM     20  C   UNL     1       2.131   6.626  18.359  0.00  0.00    +0.000 A 
ATOM     21  C   UNL     1       2.533   7.648  17.485  0.00  0.00    +0.000 A 
ATOM     22  C   UNL     1       2.427   8.992  17.850  0.00  0.00    +0.000 A 
ATOM     23  C   UNL     1       1.882   9.338  19.084  0.00  0.00    +0.000 A 
ATOM     24  C   UNL     1       1.440   8.342  19.964  0.00  0.00    +0.000 A 
ATOM     25  C   UNL     1       1.578   6.992  19.594  0.00  0.00    +0.000 A 
BRANCH  24  26
ATOM     26  C   UNL     1       0.795   8.687  21.283  0.00  0.00    +0.000 C 
ATOM     27  F   UNL     1       0.292   9.951  21.333  0.00  0.00    +0.000 F 
ATOM     28  F   UNL     1      -0.243   7.860  21.588  0.00  0.00    +0.000 F 
ATOM     29  F   UNL     1       1.666   8.591  22.327  0.00  0.00    +0.000 F 
ENDBRANCH  24  26
ENDBRANCH  19  20
ENDBRANCH   7  19
TORSDOF 5
ENDMDL
MODEL 3
REMARK VINA RESULT:      -8.3      4.312      6.152
REMARK  Name = 
REMARK  6 active torsions:
REMARK  status: ('A' for Active; 'I' for Inactive)
REMARK    1  A    between atoms: C_1  and  N_2
REMARK    2  A    between atoms: C_6  and  N_7
REMARK    3  A    between atoms: C_10  and  O_11
REMARK    4  A    between atoms: C_14  and  C_15
REMARK    5  A    between atoms: C_15  and  C_16
REMARK    6  A    between atoms: C_20  and  C_21
REMARK                            x       y       z     vdW  Elec       q    Type
REMARK                         _______ _______ _______ _____ _____    ______ ____
ROOT
ATOM      1  C   UNL     1       1.069  10.534  20.262  0.00  0.00    +0.000 C 
ATOM      2  N   UNL     1       1.510   9.201  19.904  0.00  0.00    +0.000 N 
ATOM      3  C   UNL     1       1.422   8.189  20.833  0.00  0.00    +0.000 A 
ATOM      4  O   UNL     1       0.993   8.326  21.978  0.00  0.00    +0.000 OA
ATOM      5  N   UNL     1       1.841   6.962  20.416  0.00  0.00    +0.000 N 
ATOM      6  C   UNL     1       2.379   6.668  19.202  0.00  0.00    +0.000 A 
ATOM      7  C   UNL     1       2.498   7.646  18.282  0.00  0.00    +0.000 A 
ATOM      8  C   UNL     1       1.974   9.002  18.615  0.00  0.00    +0.000 A 
ATOM      9  O   UNL     1       1.979   9.889  17.761  0.00  0.00    +0.000 OA
ATOM     10  H   UNL     1       1.782   6.228  21.106  0.00  0.00    +0.000 HD
ENDROOT
BRANCH   6  11
ATOM     11  N   UNL     1       2.787   5.366  18.950  0.00  0.00    +0.000 N 
ATOM     12  C   UNL     1       1.889   4.399  18.312  0.00  0.00    +0.000 C 
ATOM     13  C   UNL     1       2.705   3.524  17.364  0.00  0.00    +0.000 C 
ATOM     14  C   UNL     1       3.895   2.872  18.069  0.00  0.00    +0.000 C 
ATOM     15  C   UNL     1       4.717   3.873  18.878  0.00  0.00    +0.000 C 
ATOM     16  C   UNL     1       3.843   4.752  19.767  0.00  0.00    +0.000 C 
BRANCH  14  17
ATOM     17  O   UNL     1       3.456   1.798  18.899  0.00  0.00    +0.000 OA
ATOM     18  H   UNL     1       3.676   0.953  18.474  0.00  0.00    +0.000 HD
ENDBRANCH  14  17
ENDBRANCH   6  11
BRANCH   7  19
ATOM     19  C   UNL     1       3.035   7.442  16.886  0.00  0.00    +0.000 C 
BRANCH  19  20
ATOM     20  C   UNL     1       4.471   6.950  16.789  0.00  0.00    +0.000 A 
ATOM     21  C   UNL     1       5.414   7.380  17.736  0.00  0.00    +0.000 A 
ATOM     22  C   UNL     1       6.730   6.914  17.707  0.00  0.00    +0.000 A 
ATOM     23  C   UNL     1       7.117   5.980  16.749  0.00  0.00    +0.000 A 
ATOM     24  C   UNL     1       6.190   5.506  15.811  0.00  0.00    +0.000 A 
ATOM     25  C   UNL     1       4.876   6.004  15.837  0.00  0.00    +0.000 A 
BRANCH  24  26
ATOM     26  C   UNL     1       6.565   4.455  14.796  0.00  0.00    +0.000 C 
ATOM     27  F   UNL     1       7.721   4.726  14.129  0.00  0.00    +0.000 F 
ATOM     28  F   UNL     1       6.739   3.227  15.359  0.00  0.00    +0.000 F 
ATOM     29  F   UNL     1       5.610   4.294  13.838  0.00  0.00    +0.000 F 
ENDBRANCH  24  26
ENDBRANCH  19  20
ENDBRANCH   7  19
TORSDOF 5
ENDMDL
MODEL 4
REMARK VINA RESULT:      -8.2      1.297      1.583
REMARK  Name = 
REMARK  6 active torsions:
REMARK  status: ('A' for Active; 'I' for Inactive)
REMARK    1  A    between atoms: C_1  and  N_2
REMARK    2  A    between atoms: C_6  and  N_7
REMARK    3  A    between atoms: C_10  and  O_11
REMARK    4  A    between atoms: C_14  and  C_15
REMARK    5  A    between atoms: C_15  and  C_16
REMARK    6  A    between atoms: C_20  and  C_21
REMARK                            x       y       z     vdW  Elec       q    Type
REMARK                         _______ _______ _______ _____ _____    ______ ____
ROOT
ATOM      1  C   UNL     1       8.416   7.541  18.347  0.00  0.00    +0.000 C 
ATOM      2  N   UNL     1       7.247   6.687  18.422  0.00  0.00    +0.000 N 
ATOM      3  C   UNL     1       7.328   5.492  19.099  0.00  0.00    +0.000 A 
ATOM      4  O   UNL     1       8.340   5.070  19.658  0.00  0.00    +0.000 OA
ATOM      5  N   UNL     1       6.184   4.753  19.139  0.00  0.00    +0.000 N 
ATOM      6  C   UNL     1       5.006   5.065  18.534  0.00  0.00    +0.000 A 
ATOM      7  C   UNL     1       4.908   6.220  17.845  0.00  0.00    +0.000 A 
ATOM      8  C   UNL     1       6.081   7.141  17.830  0.00  0.00    +0.000 A 
ATOM      9  O   UNL     1       5.989   8.244  17.293  0.00  0.00    +0.000 OA
ATOM     10  H   UNL     1       6.254   3.873  19.629  0.00  0.00    +0.000 HD
ENDROOT
BRANCH   6  11
ATOM     11  N   UNL     1       3.942   4.182  18.647  0.00  0.00    +0.000 N 
ATOM     12  C   UNL     1       3.286   3.946  19.937  0.00  0.00    +0.000 C 
ATOM     13  C   UNL     1       1.787   3.784  19.700  0.00  0.00    +0.000 C 
ATOM     14  C   UNL     1       1.484   2.706  18.660  0.00  0.00    +0.000 C 
ATOM     15  C   UNL     1       2.316   2.868  17.389  0.00  0.00    +0.000 C 
ATOM     16  C   UNL     1       3.796   3.075  17.691  0.00  0.00    +0.000 C 
BRANCH  14  17
ATOM     17  O   UNL     1       1.673   1.406  19.219  0.00  0.00    +0.000 OA
ATOM     18  H   UNL     1       2.521   1.378  19.688  0.00  0.00    +0.000 HD
ENDBRANCH  14  17
ENDBRANCH   6  11
BRANCH   7  19
ATOM     19  C   UNL     1       3.648   6.703  17.167  0.00  0.00    +0.000 C 
BRANCH  19  20
ATOM     20  C   UNL     1       2.807   7.697  17.952  0.00  0.00    +0.000 A 
ATOM     21  C   UNL     1       2.390   8.889  17.337  0.00  0.00    +0.000 A 
ATOM     22  C   UNL     1       1.580   9.804  18.011  0.00  0.00    +0.000 A 
ATOM     23  C   UNL     1       1.141   9.526  19.303  0.00  0.00    +0.000 A 
ATOM     24  C   UNL     1       1.511   8.329  19.932  0.00  0.00    +0.000 A 
ATOM     25  C   UNL     1       2.350   7.430  19.250  0.00  0.00    +0.000 A 
BRANCH  24  26
ATOM     26  C   UNL     1       1.008   7.976  21.309  0.00  0.00    +0.000 C 
ATOM     27  F   UNL     1       1.214   6.673  21.650  0.00  0.00    +0.000 F 
ATOM     28  F   UNL     1       1.602   8.715  22.286  0.00  0.00    +0.000 F 
ATOM     29  F   UNL     1      -0.331   8.188  21.444  0.00  0.00    +0.000 F 
ENDBRANCH  24  26
ENDBRANCH  19  20
ENDBRANCH   7  19
TORSDOF 5
ENDMDL
MODEL 5
REMARK VINA RESULT:      -8.2      0.645      1.306
REMARK  Name = 
REMARK  6 active torsions:
REMARK  status: ('A' for Active; 'I' for Inactive)
REMARK    1  A    between atoms: C_1  and  N_2
REMARK    2  A    between atoms: C_6  and  N_7
REMARK    3  A    between atoms: C_10  and  O_11
REMARK    4  A    between atoms: C_14  and  C_15
REMARK    5  A    between atoms: C_15  and  C_16
REMARK    6  A    between atoms: C_20  and  C_21
REMARK                            x       y       z     vdW  Elec       q    Type
REMARK                         _______ _______ _______ _____ _____    ______ ____
ROOT
ATOM      1  C   UNL     1       7.878   7.215  17.702  0.00  0.00    +0.000 C 
ATOM      2  N   UNL     1       6.726   6.473  18.172  0.00  0.00    +0.000 N 
ATOM      3  C   UNL     1       6.908   5.435  19.057  0.00  0.00    +0.000 A 
ATOM      4  O   UNL     1       7.999   5.069  19.492  0.00  0.00    +0.000 OA
ATOM      5  N   UNL     1       5.776   4.796  19.464  0.00  0.00    +0.000 N 
ATOM      6  C   UNL     1       4.511   5.056  19.038  0.00  0.00    +0.000 A 
ATOM      7  C   UNL     1       4.308   6.053  18.153  0.00  0.00    +0.000 A 
ATOM      8  C   UNL     1       5.478   6.873  17.725  0.00  0.00    +0.000 A 
ATOM      9  O   UNL     1       5.310   7.849  16.996  0.00  0.00    +0.000 OA
ATOM     10  H   UNL     1       5.919   4.030  20.106  0.00  0.00    +0.000 HD
ENDROOT
BRANCH   6  11
ATOM     11  N   UNL     1       3.468   4.285  19.531  0.00  0.00    +0.000 N 
ATOM     12  C   UNL     1       2.762   3.327  18.674  0.00  0.00    +0.000 C 
ATOM     13  C   UNL     1       2.427   2.088  19.499  0.00  0.00    +0.000 C 
ATOM     14  C   UNL     1       1.661   2.439  20.775  0.00  0.00    +0.000 C 
ATOM     15  C   UNL     1       2.321   3.569  21.563  0.00  0.00    +0.000 C 
ATOM     16  C   UNL     1       2.677   4.758  20.677  0.00  0.00    +0.000 C 
BRANCH  14  17
ATOM     17  O   UNL     1       0.306   2.766  20.469  0.00  0.00    +0.000 OA
ATOM     18  H   UNL     1      -0.285   2.253  21.042  0.00  0.00    +0.000 HD
ENDBRANCH  14  17
ENDBRANCH   6  11
BRANCH   7  19
ATOM     19  C   UNL     1       2.952   6.471  17.636  0.00  0.00    +0.000 C 
BRANCH  19  20
ATOM     20  C   UNL     1       2.359   7.726  18.257  0.00  0.00    +0.000 A 
ATOM     21  C   UNL     1       2.235   8.889  17.481  0.00  0.00    +0.000 A 
ATOM     22  C   UNL     1       1.654  10.047  18.003  0.00  0.00    +0.000 A 
ATOM     23  C   UNL     1       1.154  10.050  19.303  0.00  0.00    +0.000 A 
ATOM     24  C   UNL     1       1.232   8.894  20.091  0.00  0.00    +0.000 A 
ATOM     25  C   UNL     1       1.844   7.744  19.561  0.00  0.00    +0.000 A 
BRANCH  24  26
ATOM     26  C   UNL     1       0.651   8.850  21.483  0.00  0.00    +0.000 C 
ATOM     27  F   UNL     1       1.532   8.425  22.430  0.00  0.00    +0.000 F 
ATOM     28  F   UNL     1       0.211  10.068  21.902  0.00  0.00    +0.000 F 
ATOM     29  F   UNL     1      -0.422   8.014  21.571  0.00  0.00    +0.000 F 
ENDBRANCH  24  26
ENDBRANCH  19  20
ENDBRANCH   7  19
TORSDOF 5
ENDMDL
MODEL 6
REMARK VINA RESULT:      -8.2      2.866      3.581
REMARK  Name = 
REMARK  6 active torsions:
REMARK  status: ('A' for Active; 'I' for Inactive)
REMARK    1  A    between atoms: C_1  and  N_2
REMARK    2  A    between atoms: C_6  and  N_7
REMARK    3  A    between atoms: C_10  and  O_11
REMARK    4  A    between atoms: C_14  and  C_15
REMARK    5  A    between atoms: C_15  and  C_16
REMARK    6  A    between atoms: C_20  and  C_21
REMARK                            x       y       z     vdW  Elec       q    Type
REMARK                         _______ _______ _______ _____ _____    ______ ____
ROOT
ATOM      1  C   UNL     1       7.883   5.351  13.375  0.00  0.00    +0.000 C 
ATOM      2  N   UNL     1       6.911   4.845  14.323  0.00  0.00    +0.000 N 
ATOM      3  C   UNL     1       6.067   3.826  13.945  0.00  0.00    +0.000 A 
ATOM      4  O   UNL     1       6.064   3.295  12.835  0.00  0.00    +0.000 OA
ATOM      5  N   UNL     1       5.192   3.395  14.896  0.00  0.00    +0.000 N 
ATOM      6  C   UNL     1       5.047   3.911  16.145  0.00  0.00    +0.000 A 
ATOM      7  C   UNL     1       5.846   4.926  16.533  0.00  0.00    +0.000 A 
ATOM      8  C   UNL     1       6.902   5.399  15.592  0.00  0.00    +0.000 A 
ATOM      9  O   UNL     1       7.709   6.255  15.953  0.00  0.00    +0.000 OA
ATOM     10  H   UNL     1       4.570   2.653  14.607  0.00  0.00    +0.000 HD
ENDROOT
BRANCH   6  11
ATOM     11  N   UNL     1       4.080   3.374  16.983  0.00  0.00    +0.000 N 
ATOM     12  C   UNL     1       4.400   2.287  17.912  0.00  0.00    +0.000 C 
ATOM     13  C   UNL     1       3.631   2.511  19.211  0.00  0.00    +0.000 C 
ATOM     14  C   UNL     1       2.132   2.677  18.967  0.00  0.00    +0.000 C 
ATOM     15  C   UNL     1       1.826   3.689  17.864  0.00  0.00    +0.000 C 
ATOM     16  C   UNL     1       2.660   3.444  16.611  0.00  0.00    +0.000 C 
BRANCH  14  17
ATOM     17  O   UNL     1       1.531   1.417  18.672  0.00  0.00    +0.000 OA
ATOM     18  H   UNL     1       0.578   1.540  18.533  0.00  0.00    +0.000 HD
ENDBRANCH  14  17
ENDBRANCH   6  11
BRANCH   7  19
ATOM     19  C   UNL     1       5.817   5.557  17.905  0.00  0.00    +0.000 C 
BRANCH  19  20
ATOM     20  C   UNL     1       4.538   6.292  18.274  0.00  0.00    +0.000 A 
ATOM     21  C   UNL     1       4.070   7.324  17.444  0.00  0.00    +0.000 A 
ATOM     22  C   UNL     1       2.875   7.990  17.726  0.00  0.00    +0.000 A 
ATOM     23  C   UNL     1       2.109   7.611  18.825  0.00  0.00    +0.000 A 
ATOM     24  C   UNL     1       2.532   6.562  19.652  0.00  0.00    +0.000 A 
ATOM     25  C   UNL     1       3.750   5.918  19.371  0.00  0.00    +0.000 A 
BRANCH  24  26
ATOM     26  C   UNL     1       1.697   6.093  20.818  0.00  0.00    +0.000 C 
ATOM     27  F   UNL     1       0.604   5.368  20.451  0.00  0.00    +0.000 F 
ATOM     28  F   UNL     1       2.399   5.302  21.675  0.00  0.00    +0.000 F 
ATOM     29  F   UNL     1       1.224   7.128  21.568  0.00  0.00    +0.000 F 
ENDBRANCH  24  26
ENDBRANCH  19  20
ENDBRANCH   7  19
TORSDOF 5
ENDMDL
MODEL 7
REMARK VINA RESULT:      -8.1      1.872      4.690
REMARK  Name = 
REMARK  6 active torsions:
REMARK  status: ('A' for Active; 'I' for Inactive)
REMARK    1  A    between atoms: C_1  and  N_2
REMARK    2  A    between atoms: C_6  and  N_7
REMARK    3  A    between atoms: C_10  and  O_11
REMARK    4  A    between atoms: C_14  and  C_15
REMARK    5  A    between atoms: C_15  and  C_16
REMARK    6  A    between atoms: C_20  and  C_21
REMARK                            x       y       z     vdW  Elec       q    Type
REMARK                         _______ _______ _______ _____ _____    ______ ____
ROOT
ATOM      1  C   UNL     1       0.384   2.278  19.014  0.00  0.00    +0.000 C 
ATOM      2  N   UNL     1       1.548   3.083  18.702  0.00  0.00    +0.000 N 
ATOM      3  C   UNL     1       2.388   2.687  17.686  0.00  0.00    +0.000 A 
ATOM      4  O   UNL     1       2.235   1.675  17.004  0.00  0.00    +0.000 OA
ATOM      5  N   UNL     1       3.452   3.504  17.443  0.00  0.00    +0.000 N 
ATOM      6  C   UNL     1       3.776   4.626  18.139  0.00  0.00    +0.000 A 
ATOM      7  C   UNL     1       2.982   5.022  19.154  0.00  0.00    +0.000 A 
ATOM      8  C   UNL     1       1.740   4.244  19.430  0.00  0.00    +0.000 A 
ATOM      9  O   UNL     1       0.946   4.637  20.284  0.00  0.00    +0.000 OA
ATOM     10  H   UNL     1       4.068   3.202  16.703  0.00  0.00    +0.000 HD
ENDROOT
BRANCH   6  11
ATOM     11  N   UNL     1       4.918   5.328  17.781  0.00  0.00    +0.000 N 
ATOM     12  C   UNL     1       4.909   6.266  16.654  0.00  0.00    +0.000 C 
ATOM     13  C   UNL     1       5.781   7.467  17.009  0.00  0.00    +0.000 C 
ATOM     14  C   UNL     1       7.187   7.047  17.436  0.00  0.00    +0.000 C 
ATOM     15  C   UNL     1       7.174   5.936  18.486  0.00  0.00    +0.000 C 
ATOM     16  C   UNL     1       6.248   4.788  18.098  0.00  0.00    +0.000 C 
BRANCH  14  17
ATOM     17  O   UNL     1       7.957   6.653  16.301  0.00  0.00    +0.000 OA
ATOM     18  H   UNL     1       8.034   7.402  15.690  0.00  0.00    +0.000 HD
ENDBRANCH  14  17
ENDBRANCH   6  11
BRANCH   7  19
ATOM     19  C   UNL     1       3.206   6.270  19.975  0.00  0.00    +0.000 C 
BRANCH  19  20
ATOM     20  C   UNL     1       2.388   7.488  19.573  0.00  0.00    +0.000 A 
ATOM     21  C   UNL     1       2.357   7.887  18.228  0.00  0.00    +0.000 A 
ATOM     22  C   UNL     1       1.582   8.972  17.815  0.00  0.00    +0.000 A 
ATOM     23  C   UNL     1       0.794   9.657  18.737  0.00  0.00    +0.000 A 
ATOM     24  C   UNL     1       0.777   9.261  20.081  0.00  0.00    +0.000 A 
ATOM     25  C   UNL     1       1.584   8.183  20.487  0.00  0.00    +0.000 A 
BRANCH  24  26
ATOM     26  C   UNL     1      -0.107   9.947  21.092  0.00  0.00    +0.000 C 
ATOM     27  F   UNL     1      -0.695   9.093  21.975  0.00  0.00    +0.000 F 
ATOM     28  F   UNL     1       0.573  10.854  21.847  0.00  0.00    +0.000 F 
ATOM     29  F   UNL     1      -1.126  10.638  20.507  0.00  0.00    +0.000 F 
ENDBRANCH  24  26
ENDBRANCH  19  20
ENDBRANCH   7  19
TORSDOF 5
ENDMDL
MODEL 8
REMARK VINA RESULT:      -8.1      1.868      4.416
REMARK  Name = 
REMARK  6 active torsions:
REMARK  status: ('A' for Active; 'I' for Inactive)
REMARK    1  A    between atoms: C_1  and  N_2
REMARK    2  A    between atoms: C_6  and  N_7
REMARK    3  A    between atoms: C_10  and  O_11
REMARK    4  A    between atoms: C_14  and  C_15
REMARK    5  A    between atoms: C_15  and  C_16
REMARK    6  A    between atoms: C_20  and  C_21
REMARK                            x       y       z     vdW  Elec       q    Type
REMARK                         _______ _______ _______ _____ _____    ______ ____
ROOT
ATOM      1  C   UNL     1       2.259   2.246  21.937  0.00  0.00    +0.000 C 
ATOM      2  N   UNL     1       2.980   2.773  20.796  0.00  0.00    +0.000 N 
ATOM      3  C   UNL     1       4.293   2.409  20.602  0.00  0.00    +0.000 A 
ATOM      4  O   UNL     1       4.928   1.657  21.340  0.00  0.00    +0.000 OA
ATOM      5  N   UNL     1       4.898   2.932  19.499  0.00  0.00    +0.000 N 
ATOM      6  C   UNL     1       4.342   3.808  18.620  0.00  0.00    +0.000 A 
ATOM      7  C   UNL     1       3.064   4.199  18.800  0.00  0.00    +0.000 A 
ATOM      8  C   UNL     1       2.291   3.601  19.927  0.00  0.00    +0.000 A 
ATOM      9  O   UNL     1       1.096   3.862  20.058  0.00  0.00    +0.000 OA
ATOM     10  H   UNL     1       5.863   2.668  19.369  0.00  0.00    +0.000 HD
ENDROOT
BRANCH   6  11
ATOM     11  N   UNL     1       5.111   4.272  17.562  0.00  0.00    +0.000 N 
ATOM     12  C   UNL     1       5.827   5.549  17.647  0.00  0.00    +0.000 C 
ATOM     13  C   UNL     1       7.173   5.403  16.944  0.00  0.00    +0.000 C 
ATOM     14  C   UNL     1       7.020   4.888  15.513  0.00  0.00    +0.000 C 
ATOM     15  C   UNL     1       6.120   3.657  15.426  0.00  0.00    +0.000 C 
ATOM     16  C   UNL     1       4.812   3.844  16.188  0.00  0.00    +0.000 C 
BRANCH  14  17
ATOM     17  O   UNL     1       6.535   5.924  14.659  0.00  0.00    +0.000 OA
ATOM     18  H   UNL     1       5.907   6.477  15.150  0.00  0.00    +0.000 HD
ENDBRANCH  14  17
ENDBRANCH   6  11
BRANCH   7  19
ATOM     19  C   UNL     1       2.318   5.129  17.874  0.00  0.00    +0.000 C 
BRANCH  19  20
ATOM     20  C   UNL     1       2.241   6.584  18.312  0.00  0.00    +0.000 A 
ATOM     21  C   UNL     1       2.662   7.594  17.432  0.00  0.00    +0.000 A 
ATOM     22  C   UNL     1       2.563   8.942  17.781  0.00  0.00    +0.000 A 
ATOM     23  C   UNL     1       2.006   9.306  19.005  0.00  0.00    +0.000 A 
ATOM     24  C   UNL     1       1.544   8.323  19.890  0.00  0.00    +0.000 A 
ATOM     25  C   UNL     1       1.676   6.968  19.535  0.00  0.00    +0.000 A 
BRANCH  24  26
ATOM     26  C   UNL     1       0.887   8.687  21.198  0.00  0.00    +0.000 C 
ATOM     27  F   UNL     1       0.423   9.967  21.239  0.00  0.00    +0.000 F 
ATOM     28  F   UNL     1      -0.181   7.893  21.482  0.00  0.00    +0.000 F 
ATOM     29  F   UNL     1       1.736   8.564  22.257  0.00  0.00    +0.000 F 
ENDBRANCH  24  26
ENDBRANCH  19  20
ENDBRANCH   7  19
TORSDOF 5
ENDMDL
MODEL 9
REMARK VINA RESULT:      -8.0      3.406      5.390
REMARK  Name = 
REMARK  6 active torsions:
REMARK  status: ('A' for Active; 'I' for Inactive)
REMARK    1  A    between atoms: C_1  and  N_2
REMARK    2  A    between atoms: C_6  and  N_7
REMARK    3  A    between atoms: C_10  and  O_11
REMARK    4  A    between atoms: C_14  and  C_15
REMARK    5  A    between atoms: C_15  and  C_16
REMARK    6  A    between atoms: C_20  and  C_21
REMARK                            x       y       z     vdW  Elec       q    Type
REMARK                         _______ _______ _______ _____ _____    ______ ____
ROOT
ATOM      1  C   UNL     1       1.456  10.415  18.968  0.00  0.00    +0.000 C 
ATOM      2  N   UNL     1       1.738   9.021  19.250  0.00  0.00    +0.000 N 
ATOM      3  C   UNL     1       1.607   8.554  20.537  0.00  0.00    +0.000 A 
ATOM      4  O   UNL     1       1.266   9.240  21.500  0.00  0.00    +0.000 OA
ATOM      5  N   UNL     1       1.875   7.231  20.719  0.00  0.00    +0.000 N 
ATOM      6  C   UNL     1       2.304   6.361  19.766  0.00  0.00    +0.000 A 
ATOM      7  C   UNL     1       2.463   6.799  18.500  0.00  0.00    +0.000 A 
ATOM      8  C   UNL     1       2.099   8.211  18.187  0.00  0.00    +0.000 A 
ATOM      9  O   UNL     1       2.139   8.612  17.024  0.00  0.00    +0.000 OA
ATOM     10  H   UNL     1       1.786   6.898  21.668  0.00  0.00    +0.000 HD
ENDROOT
BRANCH   6  11
ATOM     11  N   UNL     1       2.563   5.047  20.128  0.00  0.00    +0.000 N 
ATOM     12  C   UNL     1       1.597   4.270  20.910  0.00  0.00    +0.000 C 
ATOM     13  C   UNL     1       1.603   2.830  20.406  0.00  0.00    +0.000 C 
ATOM     14  C   UNL     1       3.008   2.228  20.409  0.00  0.00    +0.000 C 
ATOM     15  C   UNL     1       4.038   3.140  19.744  0.00  0.00    +0.000 C 
ATOM     16  C   UNL     1       3.950   4.575  20.252  0.00  0.00    +0.000 C 
BRANCH  14  17
ATOM     17  O   UNL     1       3.411   1.906  21.739  0.00  0.00    +0.000 OA
ATOM     18  H   UNL     1       3.239   2.664  22.320  0.00  0.00    +0.000 HD
ENDBRANCH  14  17
ENDBRANCH   6  11
BRANCH   7  19
ATOM     19  C   UNL     1       2.889   5.927  17.344  0.00  0.00    +0.000 C 
BRANCH  19  20
ATOM     20  C   UNL     1       4.389   5.755  17.156  0.00  0.00    +0.000 A 
ATOM     21  C   UNL     1       4.876   4.614  16.499  0.00  0.00    +0.000 A 
ATOM     22  C   UNL     1       6.243   4.443  16.269  0.00  0.00    +0.000 A 
ATOM     23  C   UNL     1       7.144   5.430  16.660  0.00  0.00    +0.000 A 
ATOM     24  C   UNL     1       6.685   6.596  17.287  0.00  0.00    +0.000 A 
ATOM     25  C   UNL     1       5.309   6.741  17.537  0.00  0.00    +0.000 A 
BRANCH  24  26
ATOM     26  C   UNL     1       7.630   7.706  17.674  0.00  0.00    +0.000 C 
ATOM     27  F   UNL     1       8.555   7.996  16.717  0.00  0.00    +0.000 F 
ATOM     28  F   UNL     1       6.982   8.875  17.933  0.00  0.00    +0.000 F 
ATOM     29  F   UNL     1       8.339   7.415  18.801  0.00  0.00    +0.000 F 
ENDBRANCH  24  26
ENDBRANCH  19  20
ENDBRANCH   7  19
TORSDOF 5
ENDMDL
