MODEL 1
REMARK VINA RESULT:      -8.4      0.000      0.000
REMARK  Name = 
REMARK  5 active torsions:
REMARK  status: ('A' for Active; 'I' for Inactive)
REMARK    1  A    between atoms: C_1  and  C_2
REMARK    2  A    between atoms: C_2  and  C_4
REMARK    3  A    between atoms: C_8  and  N_9
REMARK    4  A    between atoms: C_10  and  C_11
REMARK    5  A    between atoms: C_12  and  O_13
REMARK                            x       y       z     vdW  Elec       q    Type
REMARK                         _______ _______ _______ _____ _____    ______ ____
ROOT
ATOM      1  C   UNL     1       3.679   3.981  18.086  0.00  0.00    +0.000 A 
ATOM      2  C   UNL     1       3.637   2.661  18.568  0.00  0.00    +0.000 A 
ATOM      3  C   UNL     1       2.963   2.358  19.742  0.00  0.00    +0.000 A 
ATOM      4  C   UNL     1       2.305   3.368  20.439  0.00  0.00    +0.000 A 
ATOM      5  C   UNL     1       2.354   4.699  19.999  0.00  0.00    +0.000 A 
ATOM      6  C   UNL     1       1.664   5.696  20.708  0.00  0.00    +0.000 A 
ATOM      7  C   UNL     1       1.722   7.031  20.313  0.00  0.00    +0.000 A 
ATOM      8  C   UNL     1       2.498   7.393  19.221  0.00  0.00    +0.000 A 
ATOM      9  C   UNL     1       3.171   6.411  18.490  0.00  0.00    +0.000 A 
ATOM     10  C   UNL     1       3.085   5.038  18.830  0.00  0.00    +0.000 A 
ENDROOT
BRANCH   1  12
ATOM     11  N   UNL     1       5.431   4.172  16.415  0.00  0.00    +0.000 NA
ATOM     12  C   UNL     1       4.168   4.226  16.703  0.00  0.00    +0.000 C 
BRANCH  11  17
ATOM     13  C   UNL     1       5.857   3.526  12.728  0.00  0.00    +0.000 A 
ATOM     14  C   UNL     1       7.023   4.262  12.504  0.00  0.00    +0.000 A 
ATOM     15  C   UNL     1       7.597   4.984  13.550  0.00  0.00    +0.000 A 
ATOM     16  C   UNL     1       7.021   4.944  14.819  0.00  0.00    +0.000 A 
ATOM     17  C   UNL     1       5.866   4.194  15.076  0.00  0.00    +0.000 A 
ATOM     18  C   UNL     1       5.272   3.510  14.008  0.00  0.00    +0.000 A 
BRANCH  13  20
ATOM     19  C   UNL     1       3.958   3.225  11.000  0.00  0.00    +0.000 C 
ATOM     20  C   UNL     1       5.223   2.716  11.645  0.00  0.00    +0.000 C 
ATOM     21  O   UNL     1       5.746   1.665  11.279  0.00  0.00    +0.000 OA
ENDBRANCH  13  20
ENDBRANCH  11  17
ENDBRANCH   1  12
BRANCH   2  22
ATOM     22  O   UNL     1       4.203   1.603  17.909  0.00  0.00    +0.000 OA
ATOM     23  H   UNL     1       3.487   0.947  17.753  0.00  0.00    +0.000 HD
ENDBRANCH   2  22
TORSDOF 4
ENDMDL
MODEL 2
REMARK VINA RESULT:      -8.3      3.782      8.406
REMARK  Name = 
REMARK  5 active torsions:
REMARK  status: ('A' for Active; 'I' for Inactive)
REMARK    1  A    between atoms: C_1  and  C_2
REMARK    2  A    between atoms: C_2  and  C_4
REMARK    3  A    between atoms: C_8  and  N_9
REMARK    4  A    between atoms: C_10  and  C_11
REMARK    5  A    between atoms: C_12  and  O_13
REMARK                            x       y       z     vdW  Elec       q    Type
REMARK                         _______ _______ _______ _____ _____    ______ ____
ROOT
ATOM      1  C   UNL     1       3.097   5.936  18.632  0.00  0.00    +0.000 A 
ATOM      2  C   UNL     1       4.104   6.040  17.657  0.00  0.00    +0.000 A 
ATOM      3  C   UNL     1       4.426   4.957  16.852  0.00  0.00    +0.000 A 
ATOM      4  C   UNL     1       3.730   3.760  17.000  0.00  0.00    +0.000 A 
ATOM      5  C   UNL     1       2.741   3.615  17.985  0.00  0.00    +0.000 A 
ATOM      6  C   UNL     1       2.039   2.405  18.099  0.00  0.00    +0.000 A 
ATOM      7  C   UNL     1       1.075   2.221  19.088  0.00  0.00    +0.000 A 
ATOM      8  C   UNL     1       0.822   3.238  19.999  0.00  0.00    +0.000 A 
ATOM      9  C   UNL     1       1.493   4.458  19.885  0.00  0.00    +0.000 A 
ATOM     10  C   UNL     1       2.437   4.695  18.854  0.00  0.00    +0.000 A 
ENDROOT
BRANCH   1  12
ATOM     11  N   UNL     1       1.950   8.076  18.608  0.00  0.00    +0.000 NA
ATOM     12  C   UNL     1       2.594   7.175  19.282  0.00  0.00    +0.000 C 
BRANCH  11  17
ATOM     13  C   UNL     1       0.261  10.270  21.163  0.00  0.00    +0.000 A 
ATOM     14  C   UNL     1      -0.175  11.298  20.323  0.00  0.00    +0.000 A 
ATOM     15  C   UNL     1       0.144  11.266  18.966  0.00  0.00    +0.000 A 
ATOM     16  C   UNL     1       0.870  10.192  18.450  0.00  0.00    +0.000 A 
ATOM     17  C   UNL     1       1.297   9.137  19.265  0.00  0.00    +0.000 A 
ATOM     18  C   UNL     1       1.011   9.203  20.634  0.00  0.00    +0.000 A 
BRANCH  13  20
ATOM     19  C   UNL     1      -1.347  10.926  23.077  0.00  0.00    +0.000 C 
ATOM     20  C   UNL     1      -0.080  10.250  22.617  0.00  0.00    +0.000 C 
ATOM     21  O   UNL     1       0.657   9.670  23.412  0.00  0.00    +0.000 OA
ENDBRANCH  13  20
ENDBRANCH  11  17
ENDBRANCH   1  12
BRANCH   2  22
ATOM     22  O   UNL     1       4.789   7.200  17.406  0.00  0.00    +0.000 OA
ATOM     23  H   UNL     1       5.687   7.090  17.792  0.00  0.00    +0.000 HD
ENDBRANCH   2  22
TORSDOF 4
ENDMDL
MODEL 3
REMARK VINA RESULT:      -8.2      1.036      1.312
REMARK  Name = 
REMARK  5 active torsions:
REMARK  status: ('A' for Active; 'I' for Inactive)
REMARK    1  A    between atoms: C_1  and  C_2
REMARK    2  A    between atoms: C_2  and  C_4
REMARK    3  A    between atoms: C_8  and  N_9
REMARK    4  A    between atoms: C_10  and  C_11
REMARK    5  A    between atoms: C_12  and  O_13
REMARK                            x       y       z     vdW  Elec       q    Type
REMARK                         _______ _______ _______ _____ _____    ______ ____
ROOT
ATOM      1  C   UNL     1       4.198   5.392  17.797  0.00  0.00    +0.000 A 
ATOM      2  C   UNL     1       4.349   4.235  18.580  0.00  0.00    +0.000 A 
ATOM      3  C   UNL     1       3.705   4.118  19.803  0.00  0.00    +0.000 A 
ATOM      4  C   UNL     1       2.884   5.151  20.249  0.00  0.00    +0.000 A 
ATOM      5  C   UNL     1       2.737   6.331  19.503  0.00  0.00    +0.000 A 
ATOM      6  C   UNL     1       1.886   7.348  19.965  0.00  0.00    +0.000 A 
ATOM      7  C   UNL     1       1.746   8.543  19.263  0.00  0.00    +0.000 A 
ATOM      8  C   UNL     1       2.482   8.750  18.104  0.00  0.00    +0.000 A 
ATOM      9  C   UNL     1       3.314   7.740  17.617  0.00  0.00    +0.000 A 
ATOM     10  C   UNL     1       3.432   6.491  18.277  0.00  0.00    +0.000 A 
ENDROOT
BRANCH   1  12
ATOM     11  N   UNL     1       5.812   4.840  16.068  0.00  0.00    +0.000 NA
ATOM     12  C   UNL     1       4.675   5.374  16.388  0.00  0.00    +0.000 C 
BRANCH  11  17
ATOM     13  C   UNL     1       5.968   3.621  12.507  0.00  0.00    +0.000 A 
ATOM     14  C   UNL     1       7.144   4.259  12.102  0.00  0.00    +0.000 A 
ATOM     15  C   UNL     1       7.813   5.104  12.987  0.00  0.00    +0.000 A 
ATOM     16  C   UNL     1       7.321   5.284  14.280  0.00  0.00    +0.000 A 
ATOM     17  C   UNL     1       6.158   4.638  14.718  0.00  0.00    +0.000 A 
ATOM     18  C   UNL     1       5.469   3.829  13.806  0.00  0.00    +0.000 A 
BRANCH  13  20
ATOM     19  C   UNL     1       3.905   3.116  11.034  0.00  0.00    +0.000 C 
ATOM     20  C   UNL     1       5.234   2.687  11.602  0.00  0.00    +0.000 C 
ATOM     21  O   UNL     1       5.727   1.597  11.315  0.00  0.00    +0.000 OA
ENDBRANCH  13  20
ENDBRANCH  11  17
ENDBRANCH   1  12
BRANCH   2  22
ATOM     22  O   UNL     1       5.087   3.150  18.184  0.00  0.00    +0.000 OA
ATOM     23  H   UNL     1       5.431   2.724  19.001  0.00  0.00    +0.000 HD
ENDBRANCH   2  22
TORSDOF 4
ENDMDL
MODEL 4
REMARK VINA RESULT:      -8.0      1.059      1.174
REMARK  Name = 
REMARK  5 active torsions:
REMARK  status: ('A' for Active; 'I' for Inactive)
REMARK    1  A    between atoms: C_1  and  C_2
REMARK    2  A    between atoms: C_2  and  C_4
REMARK    3  A    between atoms: C_8  and  N_9
REMARK    4  A    between atoms: C_10  and  C_11
REMARK    5  A    between atoms: C_12  and  O_13
REMARK                            x       y       z     vdW  Elec       q    Type
REMARK                         _______ _______ _______ _____ _____    ______ ____
ROOT
ATOM      1  C   UNL     1       4.239   3.875  19.393  0.00  0.00    +0.000 A 
ATOM      2  C   UNL     1       4.148   2.658  20.089  0.00  0.00    +0.000 A 
ATOM      3  C   UNL     1       3.176   2.469  21.060  0.00  0.00    +0.000 A 
ATOM      4  C   UNL     1       2.268   3.489  21.332  0.00  0.00    +0.000 A 
ATOM      5  C   UNL     1       2.352   4.726  20.675  0.00  0.00    +0.000 A 
ATOM      6  C   UNL     1       1.411   5.731  20.952  0.00  0.00    +0.000 A 
ATOM      7  C   UNL     1       1.490   6.980  20.339  0.00  0.00    +0.000 A 
ATOM      8  C   UNL     1       2.531   7.252  19.463  0.00  0.00    +0.000 A 
ATOM      9  C   UNL     1       3.462   6.256  19.157  0.00  0.00    +0.000 A 
ATOM     10  C   UNL     1       3.375   4.958  19.719  0.00  0.00    +0.000 A 
ENDROOT
BRANCH   1  12
ATOM     11  N   UNL     1       4.604   3.866  16.992  0.00  0.00    +0.000 NA
ATOM     12  C   UNL     1       5.104   3.950  18.185  0.00  0.00    +0.000 C 
BRANCH  11  17
ATOM     13  C   UNL     1       6.116   3.897  13.541  0.00  0.00    +0.000 A 
ATOM     14  C   UNL     1       7.210   4.731  13.783  0.00  0.00    +0.000 A 
ATOM     15  C   UNL     1       7.385   5.296  15.046  0.00  0.00    +0.000 A 
ATOM     16  C   UNL     1       6.483   5.000  16.068  0.00  0.00    +0.000 A 
ATOM     17  C   UNL     1       5.392   4.147  15.859  0.00  0.00    +0.000 A 
ATOM     18  C   UNL     1       5.201   3.623  14.575  0.00  0.00    +0.000 A 
BRANCH  13  20
ATOM     19  C   UNL     1       4.529   3.279  11.597  0.00  0.00    +0.000 C 
ATOM     20  C   UNL     1       5.906   3.249  12.212  0.00  0.00    +0.000 C 
ATOM     21  O   UNL     1       6.852   2.723  11.629  0.00  0.00    +0.000 OA
ENDBRANCH  13  20
ENDBRANCH  11  17
ENDBRANCH   1  12
BRANCH   2  22
ATOM     22  O   UNL     1       4.961   1.585  19.836  0.00  0.00    +0.000 OA
ATOM     23  H   UNL     1       4.408   0.907  19.386  0.00  0.00    +0.000 HD
ENDBRANCH   2  22
TORSDOF 4
ENDMDL
MODEL 5
REMARK VINA RESULT:      -7.9      3.816      6.432
REMARK  Name = 
REMARK  5 active torsions:
REMARK  status: ('A' for Active; 'I' for Inactive)
REMARK    1  A    between atoms: C_1  and  C_2
REMARK    2  A    between atoms: C_2  and  C_4
REMARK    3  A    between atoms: C_8  and  N_9
REMARK    4  A    between atoms: C_10  and  C_11
REMARK    5  A    between atoms: C_12  and  O_13
REMARK                            x       y       z     vdW  Elec       q    Type
REMARK                         _______ _______ _______ _____ _____    ______ ____
ROOT
ATOM      1  C   UNL     1       1.222   9.406  19.454  0.00  0.00    +0.000 A 
ATOM      2  C   UNL     1       1.339  10.433  18.501  0.00  0.00    +0.000 A 
ATOM      3  C   UNL     1       0.804  11.689  18.746  0.00  0.00    +0.000 A 
ATOM      4  C   UNL     1       0.162  11.941  19.956  0.00  0.00    +0.000 A 
ATOM      5  C   UNL     1       0.004  10.928  20.914  0.00  0.00    +0.000 A 
ATOM      6  C   UNL     1      -0.628  11.212  22.135  0.00  0.00    +0.000 A 
ATOM      7  C   UNL     1      -0.829  10.219  23.090  0.00  0.00    +0.000 A 
ATOM      8  C   UNL     1      -0.428   8.917  22.824  0.00  0.00    +0.000 A 
ATOM      9  C   UNL     1       0.224   8.621  21.625  0.00  0.00    +0.000 A 
ATOM     10  C   UNL     1       0.495   9.621  20.658  0.00  0.00    +0.000 A 
ENDROOT
BRANCH   1  12
ATOM     11  N   UNL     1       2.160   7.604  18.123  0.00  0.00    +0.000 NA
ATOM     12  C   UNL     1       2.032   8.170  19.282  0.00  0.00    +0.000 C 
BRANCH  11  17
ATOM     13  C   UNL     1       5.275   5.616  17.394  0.00  0.00    +0.000 A 
ATOM     14  C   UNL     1       4.728   4.330  17.402  0.00  0.00    +0.000 A 
ATOM     15  C   UNL     1       3.376   4.155  17.696  0.00  0.00    +0.000 A 
ATOM     16  C   UNL     1       2.573   5.266  17.953  0.00  0.00    +0.000 A 
ATOM     17  C   UNL     1       3.091   6.566  17.927  0.00  0.00    +0.000 A 
ATOM     18  C   UNL     1       4.459   6.727  17.676  0.00  0.00    +0.000 A 
BRANCH  13  20
ATOM     19  C   UNL     1       7.352   7.152  17.473  0.00  0.00    +0.000 C 
ATOM     20  C   UNL     1       6.711   5.852  17.057  0.00  0.00    +0.000 C 
ATOM     21  O   UNL     1       7.354   4.985  16.470  0.00  0.00    +0.000 OA
ENDBRANCH  13  20
ENDBRANCH  11  17
ENDBRANCH   1  12
BRANCH   2  22
ATOM     22  O   UNL     1       2.009  10.285  17.316  0.00  0.00    +0.000 OA
ATOM     23  H   UNL     1       1.329  10.224  16.608  0.00  0.00    +0.000 HD
ENDBRANCH   2  22
TORSDOF 4
ENDMDL
MODEL 6
REMARK VINA RESULT:      -7.8      3.781      8.297
REMARK  Name = 
REMARK  5 active torsions:
REMARK  status: ('A' for Active; 'I' for Inactive)
REMARK    1  A    between atoms: C_1  and  C_2
REMARK    2  A    between atoms: C_2  and  C_4
REMARK    3  A    between atoms: C_8  and  N_9
REMARK    4  A    between atoms: C_10  and  C_11
REMARK    5  A    between atoms: C_12  and  O_13
REMARK                            x       y       z     vdW  Elec       q    Type
REMARK                         _______ _______ _______ _____ _____    ______ ____
ROOT
ATOM      1  C   UNL     1       3.187   5.652  17.786  0.00  0.00    +0.000 A 
ATOM      2  C   UNL     1       2.565   4.391  17.804  0.00  0.00    +0.000 A 
ATOM      3  C   UNL     1       3.310   3.232  17.651  0.00  0.00    +0.000 A 
ATOM      4  C   UNL     1       4.692   3.317  17.497  0.00  0.00    +0.000 A 
ATOM      5  C   UNL     1       5.337   4.562  17.445  0.00  0.00    +0.000 A 
ATOM      6  C   UNL     1       6.734   4.621  17.311  0.00  0.00    +0.000 A 
ATOM      7  C   UNL     1       7.398   5.842  17.223  0.00  0.00    +0.000 A 
ATOM      8  C   UNL     1       6.670   7.024  17.236  0.00  0.00    +0.000 A 
ATOM      9  C   UNL     1       5.283   6.985  17.394  0.00  0.00    +0.000 A 
ATOM     10  C   UNL     1       4.585   5.761  17.544  0.00  0.00    +0.000 A 
ENDROOT
BRANCH   1  12
ATOM     11  N   UNL     1       2.155   7.061  19.474  0.00  0.00    +0.000 NA
ATOM     12  C   UNL     1       2.410   6.843  18.221  0.00  0.00    +0.000 C 
BRANCH  11  17
ATOM     13  C   UNL     1       0.525   9.816  21.461  0.00  0.00    +0.000 A 
ATOM     14  C   UNL     1       0.395  10.774  20.452  0.00  0.00    +0.000 A 
ATOM     15  C   UNL     1       0.891  10.508  19.176  0.00  0.00    +0.000 A 
ATOM     16  C   UNL     1       1.487   9.276  18.907  0.00  0.00    +0.000 A 
ATOM     17  C   UNL     1       1.608   8.289  19.894  0.00  0.00    +0.000 A 
ATOM     18  C   UNL     1       1.148   8.585  21.183  0.00  0.00    +0.000 A 
BRANCH  13  20
ATOM     19  C   UNL     1      -1.244  10.906  22.998  0.00  0.00    +0.000 C 
ATOM     20  C   UNL     1      -0.016  10.047  22.834  0.00  0.00    +0.000 C 
ATOM     21  O   UNL     1       0.529   9.523  23.804  0.00  0.00    +0.000 OA
ENDBRANCH  13  20
ENDBRANCH  11  17
ENDBRANCH   1  12
BRANCH   2  22
ATOM     22  O   UNL     1       1.222   4.219  18.014  0.00  0.00    +0.000 OA
ATOM     23  H   UNL     1       1.055   3.250  18.018  0.00  0.00    +0.000 HD
ENDBRANCH   2  22
TORSDOF 4
ENDMDL
MODEL 7
REMARK VINA RESULT:      -7.7      4.174      8.040
REMARK  Name = 
REMARK  5 active torsions:
REMARK  status: ('A' for Active; 'I' for Inactive)
REMARK    1  A    between atoms: C_1  and  C_2
REMARK    2  A    between atoms: C_2  and  C_4
REMARK    3  A    between atoms: C_8  and  N_9
REMARK    4  A    between atoms: C_10  and  C_11
REMARK    5  A    between atoms: C_12  and  O_13
REMARK                            x       y       z     vdW  Elec       q    Type
REMARK                         _______ _______ _______ _____ _____    ______ ____
ROOT
ATOM      1  C   UNL     1       3.086   5.877  18.574  0.00  0.00    +0.000 A 
ATOM      2  C   UNL     1       4.113   5.972  17.619  0.00  0.00    +0.000 A 
ATOM      3  C   UNL     1       4.458   4.878  16.840  0.00  0.00    +0.000 A 
ATOM      4  C   UNL     1       3.767   3.678  16.993  0.00  0.00    +0.000 A 
ATOM      5  C   UNL     1       2.758   3.544  17.958  0.00  0.00    +0.000 A 
ATOM      6  C   UNL     1       2.061   2.331  18.078  0.00  0.00    +0.000 A 
ATOM      7  C   UNL     1       1.077   2.158  19.049  0.00  0.00    +0.000 A 
ATOM      8  C   UNL     1       0.799   3.187  19.937  0.00  0.00    +0.000 A 
ATOM      9  C   UNL     1       1.465   4.409  19.817  0.00  0.00    +0.000 A 
ATOM     10  C   UNL     1       2.428   4.636  18.803  0.00  0.00    +0.000 A 
ENDROOT
BRANCH   1  12
ATOM     11  N   UNL     1       2.173   8.125  18.466  0.00  0.00    +0.000 NA
ATOM     12  C   UNL     1       2.562   7.124  19.193  0.00  0.00    +0.000 C 
BRANCH  11  17
ATOM     13  C   UNL     1       0.733  11.526  19.208  0.00  0.00    +0.000 A 
ATOM     14  C   UNL     1       0.199  11.273  20.474  0.00  0.00    +0.000 A 
ATOM     15  C   UNL     1       0.281   9.991  21.016  0.00  0.00    +0.000 A 
ATOM     16  C   UNL     1       0.921   8.977  20.304  0.00  0.00    +0.000 A 
ATOM     17  C   UNL     1       1.486   9.210  19.044  0.00  0.00    +0.000 A 
ATOM     18  C   UNL     1       1.357  10.489  18.490  0.00  0.00    +0.000 A 
BRANCH  13  20
ATOM     19  C   UNL     1       1.991  13.578  18.265  0.00  0.00    +0.000 C 
ATOM     20  C   UNL     1       0.691  12.890  18.600  0.00  0.00    +0.000 C 
ATOM     21  O   UNL     1      -0.391  13.423  18.362  0.00  0.00    +0.000 OA
ENDBRANCH  13  20
ENDBRANCH  11  17
ENDBRANCH   1  12
BRANCH   2  22
ATOM     22  O   UNL     1       4.796   7.131  17.364  0.00  0.00    +0.000 OA
ATOM     23  H   UNL     1       4.385   7.833  17.917  0.00  0.00    +0.000 HD
ENDBRANCH   2  22
TORSDOF 4
ENDMDL
MODEL 8
REMARK VINA RESULT:      -7.7      3.862      6.842
REMARK  Name = 
REMARK  5 active torsions:
REMARK  status: ('A' for Active; 'I' for Inactive)
REMARK    1  A    between atoms: C_1  and  C_2
REMARK    2  A    between atoms: C_2  and  C_4
REMARK    3  A    between atoms: C_8  and  N_9
REMARK    4  A    between atoms: C_10  and  C_11
REMARK    5  A    between atoms: C_12  and  O_13
REMARK                            x       y       z     vdW  Elec       q    Type
REMARK                         _______ _______ _______ _____ _____    ______ ____
ROOT
ATOM      1  C   UNL     1       1.145   9.406  19.590  0.00  0.00    +0.000 A 
ATOM      2  C   UNL     1       1.290  10.330  18.541  0.00  0.00    +0.000 A 
ATOM      3  C   UNL     1       0.773  11.612  18.651  0.00  0.00    +0.000 A 
ATOM      4  C   UNL     1       0.120  11.993  19.821  0.00  0.00    +0.000 A 
ATOM      5  C   UNL     1      -0.067  11.084  20.873  0.00  0.00    +0.000 A 
ATOM      6  C   UNL     1      -0.710  11.499  22.050  0.00  0.00    +0.000 A 
ATOM      7  C   UNL     1      -0.939  10.610  23.098  0.00  0.00    +0.000 A 
ATOM      8  C   UNL     1      -0.555   9.282  22.969  0.00  0.00    +0.000 A 
ATOM      9  C   UNL     1       0.107   8.857  21.815  0.00  0.00    +0.000 A 
ATOM     10  C   UNL     1       0.407   9.751  20.757  0.00  0.00    +0.000 A 
ENDROOT
BRANCH   1  12
ATOM     11  N   UNL     1       2.082   7.474  18.457  0.00  0.00    +0.000 NA
ATOM     12  C   UNL     1       1.937   8.147  19.555  0.00  0.00    +0.000 C 
BRANCH  11  17
ATOM     13  C   UNL     1       3.981   4.274  19.048  0.00  0.00    +0.000 A 
ATOM     14  C   UNL     1       5.052   4.484  18.176  0.00  0.00    +0.000 A 
ATOM     15  C   UNL     1       5.089   5.635  17.389  0.00  0.00    +0.000 A 
ATOM     16  C   UNL     1       4.072   6.582  17.499  0.00  0.00    +0.000 A 
ATOM     17  C   UNL     1       3.000   6.408  18.382  0.00  0.00    +0.000 A 
ATOM     18  C   UNL     1       2.949   5.227  19.133  0.00  0.00    +0.000 A 
BRANCH  13  20
ATOM     19  C   UNL     1       2.629   2.771  20.659  0.00  0.00    +0.000 C 
ATOM     20  C   UNL     1       3.914   3.070  19.929  0.00  0.00    +0.000 C 
ATOM     21  O   UNL     1       4.891   2.330  20.031  0.00  0.00    +0.000 OA
ENDBRANCH  13  20
ENDBRANCH  11  17
ENDBRANCH   1  12
BRANCH   2  22
ATOM     22  O   UNL     1       1.973  10.054  17.387  0.00  0.00    +0.000 OA
ATOM     23  H   UNL     1       2.688  10.726  17.310  0.00  0.00    +0.000 HD
ENDBRANCH   2  22
TORSDOF 4
ENDMDL
MODEL 9
REMARK VINA RESULT:      -7.6      4.201      7.688
REMARK  Name = 
REMARK  5 active torsions:
REMARK  status: ('A' for Active; 'I' for Inactive)
REMARK    1  A    between atoms: C_1  and  C_2
REMARK    2  A    between atoms: C_2  and  C_4
REMARK    3  A    between atoms: C_8  and  N_9
REMARK    4  A    between atoms: C_10  and  C_11
REMARK    5  A    between atoms: C_12  and  O_13
REMARK                            x       y       z     vdW  Elec       q    Type
REMARK                         _______ _______ _______ _____ _____    ______ ____
ROOT
ATOM      1  C   UNL     1       3.072   6.065  18.224  0.00  0.00    +0.000 A 
ATOM      2  C   UNL     1       4.112   6.031  17.280  0.00  0.00    +0.000 A 
ATOM      3  C   UNL     1       4.508   4.832  16.706  0.00  0.00    +0.000 A 
ATOM      4  C   UNL     1       3.854   3.653  17.055  0.00  0.00    +0.000 A 
ATOM      5  C   UNL     1       2.832   3.650  18.016  0.00  0.00    +0.000 A 
ATOM      6  C   UNL     1       2.174   2.452  18.334  0.00  0.00    +0.000 A 
ATOM      7  C   UNL     1       1.178   2.413  19.308  0.00  0.00    +0.000 A 
ATOM      8  C   UNL     1       0.849   3.570  20.001  0.00  0.00    +0.000 A 
ATOM      9  C   UNL     1       1.477   4.776  19.681  0.00  0.00    +0.000 A 
ATOM     10  C   UNL     1       2.451   4.859  18.655  0.00  0.00    +0.000 A 
ENDROOT
BRANCH   1  12
ATOM     11  N   UNL     1       2.235   8.289  17.725  0.00  0.00    +0.000 NA
ATOM     12  C   UNL     1       2.495   7.380  18.612  0.00  0.00    +0.000 C 
BRANCH  11  17
ATOM     13  C   UNL     1      -0.527  10.759  18.407  0.00  0.00    +0.000 A 
ATOM     14  C   UNL     1       0.243  11.906  18.613  0.00  0.00    +0.000 A 
ATOM     15  C   UNL     1       1.635  11.822  18.575  0.00  0.00    +0.000 A 
ATOM     16  C   UNL     1       2.248  10.599  18.302  0.00  0.00    +0.000 A 
ATOM     17  C   UNL     1       1.499   9.440  18.068  0.00  0.00    +0.000 A 
ATOM     18  C   UNL     1       0.104   9.526  18.154  0.00  0.00    +0.000 A 
BRANCH  13  20
ATOM     19  C   UNL     1      -2.785   9.777  17.621  0.00  0.00    +0.000 C 
ATOM     20  C   UNL     1      -2.020  10.808  18.411  0.00  0.00    +0.000 C 
ATOM     21  O   UNL     1      -2.603  11.667  19.070  0.00  0.00    +0.000 OA
ENDBRANCH  13  20
ENDBRANCH  11  17
ENDBRANCH   1  12
BRANCH   2  22
ATOM     22  O   UNL     1       4.762   7.152  16.838  0.00  0.00    +0.000 OA
ATOM     23  H   UNL     1       4.488   7.892  17.426  0.00  0.00    +0.000 HD
ENDBRANCH   2  22
TORSDOF 4
ENDMDL
