MODEL 1
REMARK VINA RESULT:      -9.4      0.000      0.000
REMARK  Name = 
REMARK  6 active torsions:
REMARK  status: ('A' for Active; 'I' for Inactive)
REMARK    1  A    between atoms: C_2  and  C_3
REMARK    2  A    between atoms: C_3  and  C_4
REMARK    3  A    between atoms: C_4  and  C_5
REMARK    4  A    between atoms: C_5  and  N_6
REMARK    5  A    between atoms: C_9  and  C_10
REMARK    6  A    between atoms: N_23  and  C_24
REMARK                            x       y       z     vdW  Elec       q    Type
REMARK                         _______ _______ _______ _____ _____    ______ ____
ROOT
ATOM      1  N   UNL     1       6.514   5.452  17.010  0.00  0.00    +0.000 N 
ATOM      2  C   UNL     1       5.417   5.123  17.801  0.00  0.00    +0.000 C 
ATOM      3  O   UNL     1       5.173   5.681  18.870  0.00  0.00    +0.000 OA
ATOM      4  C   UNL     1       4.691   3.868  17.287  0.00  0.00    +0.000 C 
ATOM      5  O   UNL     1       4.426   3.862  15.884  0.00  0.00    +0.000 OA
ATOM      6  C   UNL     1       5.516   4.258  15.154  0.00  0.00    +0.000 A 
ATOM      7  C   UNL     1       5.541   3.877  13.816  0.00  0.00    +0.000 A 
ATOM      8  C   UNL     1       6.612   4.266  13.022  0.00  0.00    +0.000 A 
ATOM      9  C   UNL     1       7.618   5.018  13.605  0.00  0.00    +0.000 A 
ATOM     10  N   UNL     1       7.626   5.397  14.905  0.00  0.00    +0.000 NA
ATOM     11  C   UNL     1       6.571   5.022  15.667  0.00  0.00    +0.000 A 
ENDROOT
BRANCH   4  12
ATOM     12  C   UNL     1       3.426   3.523  18.052  0.00  0.00    +0.000 A 
ATOM     13  C   UNL     1       2.171   4.013  17.666  0.00  0.00    +0.000 A 
ATOM     14  C   UNL     1       1.018   3.627  18.354  0.00  0.00    +0.000 A 
ATOM     15  C   UNL     1       1.108   2.762  19.444  0.00  0.00    +0.000 A 
ATOM     16  C   UNL     1       2.350   2.295  19.860  0.00  0.00    +0.000 A 
ATOM     17  C   UNL     1       3.503   2.675  19.173  0.00  0.00    +0.000 A 
ENDBRANCH   4  12
BRANCH   1  18
ATOM     18  C   UNL     1       7.652   6.119  17.610  0.00  0.00    +0.000 C 
BRANCH  18  19
ATOM     19  C   UNL     1       7.611   7.643  17.572  0.00  0.00    +0.000 C 
BRANCH  19  20
ATOM     20  C   UNL     1       8.441   8.162  18.741  0.00  0.00    +0.000 C 
BRANCH  20  22
ATOM     21  O   UNL     1       8.311  10.339  17.798  0.00  0.00    +0.000 OA
ATOM     22  C   UNL     1       8.791   9.631  18.677  0.00  0.00    +0.000 C 
ATOM     23  N   UNL     1       9.607  10.061  19.704  0.00  0.00    +0.000 N 
ATOM     24  H   UNL     1      10.130   9.368  20.230  0.00  0.00    +0.000 HD
BRANCH  23  25
ATOM     25  C   UNL     1       9.868  11.409  20.045  0.00  0.00    +0.000 A 
ATOM     26  C   UNL     1       9.168  12.097  21.042  0.00  0.00    +0.000 A 
ATOM     27  C   UNL     1       9.503  13.417  21.360  0.00  0.00    +0.000 A 
ATOM     28  C   UNL     1      10.535  14.056  20.678  0.00  0.00    +0.000 A 
ATOM     29 BR   UNL     1      10.984  15.837  21.121  0.00  0.00    +0.000 Br
ATOM     30  C   UNL     1      11.245  13.388  19.685  0.00  0.00    +0.000 A 
ATOM     31  C   UNL     1      10.909  12.070  19.386  0.00  0.00    +0.000 A 
ATOM     32  F   UNL     1      11.606  11.423  18.437  0.00  0.00    +0.000 F 
ENDBRANCH  23  25
ENDBRANCH  20  22
ENDBRANCH  19  20
ENDBRANCH  18  19
ENDBRANCH   1  18
TORSDOF 6
ENDMDL
MODEL 2
REMARK VINA RESULT:      -9.0      0.889      1.501
REMARK  Name = 
REMARK  6 active torsions:
REMARK  status: ('A' for Active; 'I' for Inactive)
REMARK    1  A    between atoms: C_2  and  C_3
REMARK    2  A    between atoms: C_3  and  C_4
REMARK    3  A    between atoms: C_4  and  C_5
REMARK    4  A    between atoms: C_5  and  N_6
REMARK    5  A    between atoms: C_9  and  C_10
REMARK    6  A    between atoms: N_23  and  C_24
REMARK                            x       y       z     vdW  Elec       q    Type
REMARK                         _______ _______ _______ _____ _____    ______ ____
ROOT
ATOM      1  N   UNL     1       6.593   5.608  16.731  0.00  0.00    +0.000 N 
ATOM      2  C   UNL     1       5.532   5.278  17.569  0.00  0.00    +0.000 C 
ATOM      3  O   UNL     1       5.299   5.875  18.619  0.00  0.00    +0.000 OA
ATOM      4  C   UNL     1       4.835   3.978  17.133  0.00  0.00    +0.000 C 
ATOM      5  O   UNL     1       4.529   3.901  15.740  0.00  0.00    +0.000 OA
ATOM      6  C   UNL     1       5.583   4.300  14.961  0.00  0.00    +0.000 A 
ATOM      7  C   UNL     1       5.582   3.860  13.641  0.00  0.00    +0.000 A 
ATOM      8  C   UNL     1       6.615   4.248  12.797  0.00  0.00    +0.000 A 
ATOM      9  C   UNL     1       7.611   5.059  13.316  0.00  0.00    +0.000 A 
ATOM     10  N   UNL     1       7.643   5.496  14.597  0.00  0.00    +0.000 NA
ATOM     11  C   UNL     1       6.625   5.120  15.406  0.00  0.00    +0.000 A 
ENDROOT
BRANCH   4  12
ATOM     12  C   UNL     1       3.605   3.625  17.952  0.00  0.00    +0.000 A 
ATOM     13  C   UNL     1       3.680   2.792  19.076  0.00  0.00    +0.000 A 
ATOM     14  C   UNL     1       2.542   2.536  19.844  0.00  0.00    +0.000 A 
ATOM     15  C   UNL     1       1.315   3.096  19.489  0.00  0.00    +0.000 A 
ATOM     16  C   UNL     1       1.219   3.897  18.356  0.00  0.00    +0.000 A 
ATOM     17  C   UNL     1       2.355   4.158  17.589  0.00  0.00    +0.000 A 
ENDBRANCH   4  12
BRANCH   1  18
ATOM     18  C   UNL     1       7.723   6.339  17.265  0.00  0.00    +0.000 C 
BRANCH  18  19
ATOM     19  C   UNL     1       7.474   7.818  17.542  0.00  0.00    +0.000 C 
BRANCH  19  20
ATOM     20  C   UNL     1       8.453   8.263  18.623  0.00  0.00    +0.000 C 
BRANCH  20  22
ATOM     21  O   UNL     1       8.197  10.496  17.855  0.00  0.00    +0.000 OA
ATOM     22  C   UNL     1       8.764   9.741  18.639  0.00  0.00    +0.000 C 
ATOM     23  N   UNL     1       9.652  10.121  19.625  0.00  0.00    +0.000 N 
ATOM     24  H   UNL     1      10.232   9.407  20.054  0.00  0.00    +0.000 HD
BRANCH  23  25
ATOM     25  C   UNL     1       9.910  11.447  20.042  0.00  0.00    +0.000 A 
ATOM     26  C   UNL     1      10.641  12.364  19.278  0.00  0.00    +0.000 A 
ATOM     27  C   UNL     1      10.825  13.675  19.728  0.00  0.00    +0.000 A 
ATOM     28  C   UNL     1      10.285  14.073  20.948  0.00  0.00    +0.000 A 
ATOM     29 BR   UNL     1      10.533  15.849  21.545  0.00  0.00    +0.000 Br
ATOM     30  C   UNL     1       9.552  13.177  21.721  0.00  0.00    +0.000 A 
ATOM     31  C   UNL     1       9.366  11.878  21.256  0.00  0.00    +0.000 A 
ATOM     32  F   UNL     1       8.646  11.020  21.998  0.00  0.00    +0.000 F 
ENDBRANCH  23  25
ENDBRANCH  20  22
ENDBRANCH  19  20
ENDBRANCH  18  19
ENDBRANCH   1  18
TORSDOF 6
ENDMDL
MODEL 3
REMARK VINA RESULT:      -8.8      1.563      4.332
REMARK  Name = 
REMARK  6 active torsions:
REMARK  status: ('A' for Active; 'I' for Inactive)
REMARK    1  A    between atoms: C_2  and  C_3
REMARK    2  A    between atoms: C_3  and  C_4
REMARK    3  A    between atoms: C_4  and  C_5
REMARK    4  A    between atoms: C_5  and  N_6
REMARK    5  A    between atoms: C_9  and  C_10
REMARK    6  A    between atoms: N_23  and  C_24
REMARK                            x       y       z     vdW  Elec       q    Type
REMARK                         _______ _______ _______ _____ _____    ______ ____
ROOT
ATOM      1  N   UNL     1       6.616   4.816  18.027  0.00  0.00    +0.000 N 
ATOM      2  C   UNL     1       7.003   4.538  16.720  0.00  0.00    +0.000 C 
ATOM      3  O   UNL     1       8.134   4.156  16.425  0.00  0.00    +0.000 OA
ATOM      4  C   UNL     1       5.931   4.959  15.699  0.00  0.00    +0.000 C 
ATOM      5  O   UNL     1       4.603   4.544  16.020  0.00  0.00    +0.000 OA
ATOM      6  C   UNL     1       4.296   4.778  17.335  0.00  0.00    +0.000 A 
ATOM      7  C   UNL     1       2.944   4.841  17.656  0.00  0.00    +0.000 A 
ATOM      8  C   UNL     1       2.571   5.057  18.976  0.00  0.00    +0.000 A 
ATOM      9  C   UNL     1       3.573   5.206  19.921  0.00  0.00    +0.000 A 
ATOM     10  N   UNL     1       4.896   5.158  19.638  0.00  0.00    +0.000 NA
ATOM     11  C   UNL     1       5.247   4.936  18.349  0.00  0.00    +0.000 A 
ENDROOT
BRANCH   4  12
ATOM     12  C   UNL     1       6.257   4.585  14.264  0.00  0.00    +0.000 A 
ATOM     13  C   UNL     1       7.345   5.146  13.583  0.00  0.00    +0.000 A 
ATOM     14  C   UNL     1       7.655   4.735  12.284  0.00  0.00    +0.000 A 
ATOM     15  C   UNL     1       6.872   3.774  11.646  0.00  0.00    +0.000 A 
ATOM     16  C   UNL     1       5.768   3.233  12.298  0.00  0.00    +0.000 A 
ATOM     17  C   UNL     1       5.458   3.638  13.596  0.00  0.00    +0.000 A 
ENDBRANCH   4  12
BRANCH   1  18
ATOM     18  C   UNL     1       7.626   5.115  19.022  0.00  0.00    +0.000 C 
BRANCH  18  19
ATOM     19  C   UNL     1       7.823   6.597  19.329  0.00  0.00    +0.000 C 
BRANCH  19  20
ATOM     20  C   UNL     1       7.919   7.341  18.001  0.00  0.00    +0.000 C 
BRANCH  20  22
ATOM     21  O   UNL     1       7.490   9.621  17.489  0.00  0.00    +0.000 OA
ATOM     22  C   UNL     1       8.183   8.824  18.114  0.00  0.00    +0.000 C 
ATOM     23  N   UNL     1       9.186   9.153  19.004  0.00  0.00    +0.000 N 
ATOM     24  H   UNL     1       9.841   8.429  19.282  0.00  0.00    +0.000 HD
BRANCH  23  25
ATOM     25  C   UNL     1       9.457  10.446  19.506  0.00  0.00    +0.000 A 
ATOM     26  C   UNL     1       9.135  10.848  20.807  0.00  0.00    +0.000 A 
ATOM     27  C   UNL     1       9.468  12.130  21.256  0.00  0.00    +0.000 A 
ATOM     28  C   UNL     1      10.119  13.017  20.403  0.00  0.00    +0.000 A 
ATOM     29 BR   UNL     1      10.572  14.744  21.022  0.00  0.00    +0.000 Br
ATOM     30  C   UNL     1      10.451  12.636  19.107  0.00  0.00    +0.000 A 
ATOM     31  C   UNL     1      10.124  11.353  18.675  0.00  0.00    +0.000 A 
ATOM     32  F   UNL     1      10.458  10.983  17.428  0.00  0.00    +0.000 F 
ENDBRANCH  23  25
ENDBRANCH  20  22
ENDBRANCH  19  20
ENDBRANCH  18  19
ENDBRANCH   1  18
TORSDOF 6
ENDMDL
MODEL 4
REMARK VINA RESULT:      -8.7      1.724      2.070
REMARK  Name = 
REMARK  6 active torsions:
REMARK  status: ('A' for Active; 'I' for Inactive)
REMARK    1  A    between atoms: C_2  and  C_3
REMARK    2  A    between atoms: C_3  and  C_4
REMARK    3  A    between atoms: C_4  and  C_5
REMARK    4  A    between atoms: C_5  and  N_6
REMARK    5  A    between atoms: C_9  and  C_10
REMARK    6  A    between atoms: N_23  and  C_24
REMARK                            x       y       z     vdW  Elec       q    Type
REMARK                         _______ _______ _______ _____ _____    ______ ____
ROOT
ATOM      1  N   UNL     1       6.613   5.325  17.558  0.00  0.00    +0.000 N 
ATOM      2  C   UNL     1       5.594   5.035  18.460  0.00  0.00    +0.000 C 
ATOM      3  O   UNL     1       5.506   5.570  19.563  0.00  0.00    +0.000 OA
ATOM      4  C   UNL     1       4.738   3.843  17.998  0.00  0.00    +0.000 C 
ATOM      5  O   UNL     1       4.317   3.900  16.635  0.00  0.00    +0.000 OA
ATOM      6  C   UNL     1       5.341   4.255  15.796  0.00  0.00    +0.000 A 
ATOM      7  C   UNL     1       5.192   3.918  14.455  0.00  0.00    +0.000 A 
ATOM      8  C   UNL     1       6.189   4.269  13.554  0.00  0.00    +0.000 A 
ATOM      9  C   UNL     1       7.299   4.941  14.039  0.00  0.00    +0.000 A 
ATOM     10  N   UNL     1       7.476   5.275  15.338  0.00  0.00    +0.000 NA
ATOM     11  C   UNL     1       6.492   4.937  16.205  0.00  0.00    +0.000 A 
ENDROOT
BRANCH   4  12
ATOM     12  C   UNL     1       3.547   3.547  18.894  0.00  0.00    +0.000 A 
ATOM     13  C   UNL     1       3.680   2.815  20.081  0.00  0.00    +0.000 A 
ATOM     14  C   UNL     1       2.577   2.613  20.915  0.00  0.00    +0.000 A 
ATOM     15  C   UNL     1       1.329   3.124  20.564  0.00  0.00    +0.000 A 
ATOM     16  C   UNL     1       1.175   3.824  19.371  0.00  0.00    +0.000 A 
ATOM     17  C   UNL     1       2.275   4.031  18.538  0.00  0.00    +0.000 A 
ENDBRANCH   4  12
BRANCH   1  18
ATOM     18  C   UNL     1       7.850   5.903  18.041  0.00  0.00    +0.000 C 
BRANCH  18  19
ATOM     19  C   UNL     1       7.709   7.238  18.765  0.00  0.00    +0.000 C 
BRANCH  19  20
ATOM     20  C   UNL     1       8.078   8.344  17.782  0.00  0.00    +0.000 C 
BRANCH  20  22
ATOM     21  O   UNL     1       9.240   9.519  19.489  0.00  0.00    +0.000 OA
ATOM     22  C   UNL     1       8.666   9.588  18.407  0.00  0.00    +0.000 C 
ATOM     23  N   UNL     1       8.547  10.721  17.628  0.00  0.00    +0.000 N 
ATOM     24  H   UNL     1       7.863  10.723  16.878  0.00  0.00    +0.000 HD
BRANCH  23  25
ATOM     25  C   UNL     1       9.231  11.942  17.832  0.00  0.00    +0.000 A 
ATOM     26  C   UNL     1      10.606  12.020  18.078  0.00  0.00    +0.000 A 
ATOM     27  C   UNL     1      11.230  13.262  18.230  0.00  0.00    +0.000 A 
ATOM     28  C   UNL     1      10.479  14.432  18.143  0.00  0.00    +0.000 A 
ATOM     29 BR   UNL     1      11.333  16.106  18.342  0.00  0.00    +0.000 Br
ATOM     30  C   UNL     1       9.111  14.376  17.896  0.00  0.00    +0.000 A 
ATOM     31  C   UNL     1       8.504  13.133  17.734  0.00  0.00    +0.000 A 
ATOM     32  F   UNL     1       7.186  13.083  17.482  0.00  0.00    +0.000 F 
ENDBRANCH  23  25
ENDBRANCH  20  22
ENDBRANCH  19  20
ENDBRANCH  18  19
ENDBRANCH   1  18
TORSDOF 6
ENDMDL
MODEL 5
REMARK VINA RESULT:      -8.7      0.675      1.077
REMARK  Name = 
REMARK  6 active torsions:
REMARK  status: ('A' for Active; 'I' for Inactive)
REMARK    1  A    between atoms: C_2  and  C_3
REMARK    2  A    between atoms: C_3  and  C_4
REMARK    3  A    between atoms: C_4  and  C_5
REMARK    4  A    between atoms: C_5  and  N_6
REMARK    5  A    between atoms: C_9  and  C_10
REMARK    6  A    between atoms: N_23  and  C_24
REMARK                            x       y       z     vdW  Elec       q    Type
REMARK                         _______ _______ _______ _____ _____    ______ ____
ROOT
ATOM      1  N   UNL     1       6.606   5.594  16.208  0.00  0.00    +0.000 N 
ATOM      2  C   UNL     1       5.548   5.223  17.033  0.00  0.00    +0.000 C 
ATOM      3  O   UNL     1       5.263   5.827  18.066  0.00  0.00    +0.000 OA
ATOM      4  C   UNL     1       4.930   3.879  16.609  0.00  0.00    +0.000 C 
ATOM      5  O   UNL     1       4.658   3.759  15.213  0.00  0.00    +0.000 OA
ATOM      6  C   UNL     1       5.704   4.200  14.446  0.00  0.00    +0.000 A 
ATOM      7  C   UNL     1       5.753   3.736  13.135  0.00  0.00    +0.000 A 
ATOM      8  C   UNL     1       6.780   4.164  12.304  0.00  0.00    +0.000 A 
ATOM      9  C   UNL     1       7.720   5.037  12.825  0.00  0.00    +0.000 A 
ATOM     10  N   UNL     1       7.704   5.499  14.097  0.00  0.00    +0.000 NA
ATOM     11  C   UNL     1       6.691   5.084  14.895  0.00  0.00    +0.000 A 
ENDROOT
BRANCH   4  12
ATOM     12  C   UNL     1       3.706   3.476  17.411  0.00  0.00    +0.000 A 
ATOM     13  C   UNL     1       3.705   2.349  18.243  0.00  0.00    +0.000 A 
ATOM     14  C   UNL     1       2.584   2.039  19.016  0.00  0.00    +0.000 A 
ATOM     15  C   UNL     1       1.445   2.842  18.953  0.00  0.00    +0.000 A 
ATOM     16  C   UNL     1       1.418   3.945  18.105  0.00  0.00    +0.000 A 
ATOM     17  C   UNL     1       2.539   4.259  17.336  0.00  0.00    +0.000 A 
ENDBRANCH   4  12
BRANCH   1  18
ATOM     18  C   UNL     1       7.685   6.395  16.749  0.00  0.00    +0.000 C 
BRANCH  18  19
ATOM     19  C   UNL     1       7.260   7.699  17.416  0.00  0.00    +0.000 C 
BRANCH  19  20
ATOM     20  C   UNL     1       8.278   8.020  18.506  0.00  0.00    +0.000 C 
BRANCH  20  22
ATOM     21  O   UNL     1       8.450  10.232  17.657  0.00  0.00    +0.000 OA
ATOM     22  C   UNL     1       8.697   9.470  18.586  0.00  0.00    +0.000 C 
ATOM     23  N   UNL     1       9.289   9.821  19.783  0.00  0.00    +0.000 N 
ATOM     24  H   UNL     1       9.654   9.083  20.376  0.00  0.00    +0.000 HD
BRANCH  23  25
ATOM     25  C   UNL     1       9.527  11.140  20.233  0.00  0.00    +0.000 A 
ATOM     26  C   UNL     1       8.714  11.791  21.166  0.00  0.00    +0.000 A 
ATOM     27  C   UNL     1       9.028  13.082  21.602  0.00  0.00    +0.000 A 
ATOM     28  C   UNL     1      10.154  13.730  21.101  0.00  0.00    +0.000 A 
ATOM     29 BR   UNL     1      10.575  15.471  21.702  0.00  0.00    +0.000 Br
ATOM     30  C   UNL     1      10.978  13.098  20.174  0.00  0.00    +0.000 A 
ATOM     31  C   UNL     1      10.660  11.808  19.758  0.00  0.00    +0.000 A 
ATOM     32  F   UNL     1      11.465  11.195  18.874  0.00  0.00    +0.000 F 
ENDBRANCH  23  25
ENDBRANCH  20  22
ENDBRANCH  19  20
ENDBRANCH  18  19
ENDBRANCH   1  18
TORSDOF 6
ENDMDL
MODEL 6
REMARK VINA RESULT:      -8.6      1.377      1.712
REMARK  Name = 
REMARK  6 active torsions:
REMARK  status: ('A' for Active; 'I' for Inactive)
REMARK    1  A    between atoms: C_2  and  C_3
REMARK    2  A    between atoms: C_3  and  C_4
REMARK    3  A    between atoms: C_4  and  C_5
REMARK    4  A    between atoms: C_5  and  N_6
REMARK    5  A    between atoms: C_9  and  C_10
REMARK    6  A    between atoms: N_23  and  C_24
REMARK                            x       y       z     vdW  Elec       q    Type
REMARK                         _______ _______ _______ _____ _____    ______ ____
ROOT
ATOM      1  N   UNL     1       6.660   4.711  17.917  0.00  0.00    +0.000 N 
ATOM      2  C   UNL     1       5.628   4.518  18.831  0.00  0.00    +0.000 C 
ATOM      3  O   UNL     1       5.677   4.927  19.990  0.00  0.00    +0.000 OA
ATOM      4  C   UNL     1       4.543   3.574  18.285  0.00  0.00    +0.000 C 
ATOM      5  O   UNL     1       4.105   3.870  16.958  0.00  0.00    +0.000 OA
ATOM      6  C   UNL     1       5.155   4.119  16.114  0.00  0.00    +0.000 A 
ATOM      7  C   UNL     1       4.907   3.976  14.753  0.00  0.00    +0.000 A 
ATOM      8  C   UNL     1       5.929   4.233  13.848  0.00  0.00    +0.000 A 
ATOM      9  C   UNL     1       7.161   4.618  14.348  0.00  0.00    +0.000 A 
ATOM     10  N   UNL     1       7.436   4.757  15.666  0.00  0.00    +0.000 NA
ATOM     11  C   UNL     1       6.429   4.515  16.538  0.00  0.00    +0.000 A 
ENDROOT
BRANCH   4  12
ATOM     12  C   UNL     1       3.343   3.409  19.200  0.00  0.00    +0.000 A 
ATOM     13  C   UNL     1       2.078   3.906  18.858  0.00  0.00    +0.000 A 
ATOM     14  C   UNL     1       0.981   3.684  19.692  0.00  0.00    +0.000 A 
ATOM     15  C   UNL     1       1.137   2.979  20.885  0.00  0.00    +0.000 A 
ATOM     16  C   UNL     1       2.394   2.509  21.255  0.00  0.00    +0.000 A 
ATOM     17  C   UNL     1       3.491   2.726  20.421  0.00  0.00    +0.000 A 
ENDBRANCH   4  12
BRANCH   1  18
ATOM     18  C   UNL     1       7.999   4.981  18.399  0.00  0.00    +0.000 C 
BRANCH  18  19
ATOM     19  C   UNL     1       8.195   6.344  19.056  0.00  0.00    +0.000 C 
BRANCH  19  20
ATOM     20  C   UNL     1       7.478   7.383  18.201  0.00  0.00    +0.000 C 
BRANCH  20  22
ATOM     21  O   UNL     1       8.161   9.255  16.908  0.00  0.00    +0.000 OA
ATOM     22  C   UNL     1       8.238   8.671  17.984  0.00  0.00    +0.000 C 
ATOM     23  N   UNL     1       8.925   9.114  19.096  0.00  0.00    +0.000 N 
ATOM     24  H   UNL     1       9.115   8.453  19.842  0.00  0.00    +0.000 HD
BRANCH  23  25
ATOM     25  C   UNL     1       9.487  10.401  19.263  0.00  0.00    +0.000 A 
ATOM     26  C   UNL     1      10.001  11.158  18.205  0.00  0.00    +0.000 A 
ATOM     27  C   UNL     1      10.506  12.442  18.432  0.00  0.00    +0.000 A 
ATOM     28  C   UNL     1      10.504  12.973  19.719  0.00  0.00    +0.000 A 
ATOM     29 BR   UNL     1      11.181  14.712  20.013  0.00  0.00    +0.000 Br
ATOM     30  C   UNL     1       9.994  12.237  20.785  0.00  0.00    +0.000 A 
ATOM     31  C   UNL     1       9.484  10.964  20.544  0.00  0.00    +0.000 A 
ATOM     32  F   UNL     1       8.980  10.262  21.572  0.00  0.00    +0.000 F 
ENDBRANCH  23  25
ENDBRANCH  20  22
ENDBRANCH  19  20
ENDBRANCH  18  19
ENDBRANCH   1  18
TORSDOF 6
ENDMDL
MODEL 7
REMARK VINA RESULT:      -8.6      1.548      1.584
REMARK  Name = 
REMARK  6 active torsions:
REMARK  status: ('A' for Active; 'I' for Inactive)
REMARK    1  A    between atoms: C_2  and  C_3
REMARK    2  A    between atoms: C_3  and  C_4
REMARK    3  A    between atoms: C_4  and  C_5
REMARK    4  A    between atoms: C_5  and  N_6
REMARK    5  A    between atoms: C_9  and  C_10
REMARK    6  A    between atoms: N_23  and  C_24
REMARK                            x       y       z     vdW  Elec       q    Type
REMARK                         _______ _______ _______ _____ _____    ______ ____
ROOT
ATOM      1  N   UNL     1       6.732   5.732  16.848  0.00  0.00    +0.000 N 
ATOM      2  C   UNL     1       5.703   5.458  17.744  0.00  0.00    +0.000 C 
ATOM      3  O   UNL     1       5.539   6.091  18.785  0.00  0.00    +0.000 OA
ATOM      4  C   UNL     1       4.948   4.168  17.379  0.00  0.00    +0.000 C 
ATOM      5  O   UNL     1       4.575   4.061  16.005  0.00  0.00    +0.000 OA
ATOM      6  C   UNL     1       5.601   4.405  15.166  0.00  0.00    +0.000 A 
ATOM      7  C   UNL     1       5.524   3.929  13.861  0.00  0.00    +0.000 A 
ATOM      8  C   UNL     1       6.527   4.261  12.959  0.00  0.00    +0.000 A 
ATOM      9  C   UNL     1       7.570   5.056  13.406  0.00  0.00    +0.000 A 
ATOM     10  N   UNL     1       7.676   5.527  14.671  0.00  0.00    +0.000 NA
ATOM     11  C   UNL     1       6.687   5.206  15.538  0.00  0.00    +0.000 A 
ENDROOT
BRANCH   4  12
ATOM     12  C   UNL     1       3.750   3.876  18.265  0.00  0.00    +0.000 A 
ATOM     13  C   UNL     1       2.454   4.272  17.908  0.00  0.00    +0.000 A 
ATOM     14  C   UNL     1       1.364   3.934  18.713  0.00  0.00    +0.000 A 
ATOM     15  C   UNL     1       1.558   3.214  19.891  0.00  0.00    +0.000 A 
ATOM     16  C   UNL     1       2.843   2.844  20.276  0.00  0.00    +0.000 A 
ATOM     17  C   UNL     1       3.933   3.175  19.471  0.00  0.00    +0.000 A 
ENDBRANCH   4  12
BRANCH   1  18
ATOM     18  C   UNL     1       7.908   6.442  17.306  0.00  0.00    +0.000 C 
BRANCH  18  19
ATOM     19  C   UNL     1       7.696   7.918  17.628  0.00  0.00    +0.000 C 
BRANCH  19  20
ATOM     20  C   UNL     1       8.665   8.298  18.743  0.00  0.00    +0.000 C 
BRANCH  20  22
ATOM     21  O   UNL     1       8.986  10.189  20.143  0.00  0.00    +0.000 OA
ATOM     22  C   UNL     1       8.796   9.780  19.002  0.00  0.00    +0.000 C 
ATOM     23  N   UNL     1       8.750  10.559  17.863  0.00  0.00    +0.000 N 
ATOM     24  H   UNL     1       8.360  10.155  17.017  0.00  0.00    +0.000 HD
BRANCH  23  25
ATOM     25  C   UNL     1       9.112  11.923  17.776  0.00  0.00    +0.000 A 
ATOM     26  C   UNL     1       8.183  12.968  17.823  0.00  0.00    +0.000 A 
ATOM     27  C   UNL     1       8.610  14.298  17.774  0.00  0.00    +0.000 A 
ATOM     28  C   UNL     1       9.968  14.589  17.672  0.00  0.00    +0.000 A 
ATOM     29 BR   UNL     1      10.535  16.391  17.614  0.00  0.00    +0.000 Br
ATOM     30  C   UNL     1      10.908  13.564  17.627  0.00  0.00    +0.000 A 
ATOM     31  C   UNL     1      10.470  12.243  17.689  0.00  0.00    +0.000 A 
ATOM     32  F   UNL     1      11.381  11.257  17.660  0.00  0.00    +0.000 F 
ENDBRANCH  23  25
ENDBRANCH  20  22
ENDBRANCH  19  20
ENDBRANCH  18  19
ENDBRANCH   1  18
TORSDOF 6
ENDMDL
MODEL 8
REMARK VINA RESULT:      -8.6      5.413      8.178
REMARK  Name = 
REMARK  6 active torsions:
REMARK  status: ('A' for Active; 'I' for Inactive)
REMARK    1  A    between atoms: C_2  and  C_3
REMARK    2  A    between atoms: C_3  and  C_4
REMARK    3  A    between atoms: C_4  and  C_5
REMARK    4  A    between atoms: C_5  and  N_6
REMARK    5  A    between atoms: C_9  and  C_10
REMARK    6  A    between atoms: N_23  and  C_24
REMARK                            x       y       z     vdW  Elec       q    Type
REMARK                         _______ _______ _______ _____ _____    ______ ____
ROOT
ATOM      1  N   UNL     1       4.165   5.024  19.161  0.00  0.00    +0.000 N 
ATOM      2  C   UNL     1       3.626   6.259  18.813  0.00  0.00    +0.000 C 
ATOM      3  O   UNL     1       4.065   6.943  17.890  0.00  0.00    +0.000 OA
ATOM      4  C   UNL     1       2.578   6.739  19.832  0.00  0.00    +0.000 C 
ATOM      5  O   UNL     1       1.608   5.757  20.201  0.00  0.00    +0.000 OA
ATOM      6  C   UNL     1       2.184   4.542  20.468  0.00  0.00    +0.000 A 
ATOM      7  C   UNL     1       1.442   3.660  21.247  0.00  0.00    +0.000 A 
ATOM      8  C   UNL     1       1.966   2.407  21.535  0.00  0.00    +0.000 A 
ATOM      9  C   UNL     1       3.217   2.092  21.033  0.00  0.00    +0.000 A 
ATOM     10  N   UNL     1       3.966   2.931  20.280  0.00  0.00    +0.000 NA
ATOM     11  C   UNL     1       3.440   4.146  19.996  0.00  0.00    +0.000 A 
ENDROOT
BRANCH   4  12
ATOM     12  C   UNL     1       1.882   8.032  19.448  0.00  0.00    +0.000 A 
ATOM     13  C   UNL     1       1.191   8.807  20.388  0.00  0.00    +0.000 A 
ATOM     14  C   UNL     1       0.614  10.024  20.017  0.00  0.00    +0.000 A 
ATOM     15  C   UNL     1       0.705  10.471  18.699  0.00  0.00    +0.000 A 
ATOM     16  C   UNL     1       1.359   9.695  17.746  0.00  0.00    +0.000 A 
ATOM     17  C   UNL     1       1.940   8.482  18.116  0.00  0.00    +0.000 A 
ENDBRANCH   4  12
BRANCH   1  18
ATOM     18  C   UNL     1       5.524   4.705  18.775  0.00  0.00    +0.000 C 
BRANCH  18  19
ATOM     19  C   UNL     1       6.606   5.567  19.418  0.00  0.00    +0.000 C 
BRANCH  19  20
ATOM     20  C   UNL     1       7.495   6.110  18.304  0.00  0.00    +0.000 C 
BRANCH  20  22
ATOM     21  O   UNL     1       8.170   4.147  17.150  0.00  0.00    +0.000 OA
ATOM     22  C   UNL     1       7.600   5.231  17.080  0.00  0.00    +0.000 C 
ATOM     23  N   UNL     1       6.956   5.733  15.967  0.00  0.00    +0.000 N 
ATOM     24  H   UNL     1       6.725   6.722  15.947  0.00  0.00    +0.000 HD
BRANCH  23  25
ATOM     25  C   UNL     1       6.662   5.015  14.785  0.00  0.00    +0.000 A 
ATOM     26  C   UNL     1       7.516   4.975  13.678  0.00  0.00    +0.000 A 
ATOM     27  C   UNL     1       7.185   4.211  12.554  0.00  0.00    +0.000 A 
ATOM     28  C   UNL     1       5.995   3.489  12.531  0.00  0.00    +0.000 A 
ATOM     29 BR   UNL     1       5.562   2.453  11.011  0.00  0.00    +0.000 Br
ATOM     30  C   UNL     1       5.133   3.513  13.623  0.00  0.00    +0.000 A 
ATOM     31  C   UNL     1       5.480   4.268  14.741  0.00  0.00    +0.000 A 
ATOM     32  F   UNL     1       4.653   4.278  15.799  0.00  0.00    +0.000 F 
ENDBRANCH  23  25
ENDBRANCH  20  22
ENDBRANCH  19  20
ENDBRANCH  18  19
ENDBRANCH   1  18
TORSDOF 6
ENDMDL
MODEL 9
REMARK VINA RESULT:      -8.5      6.169      8.243
REMARK  Name = 
REMARK  6 active torsions:
REMARK  status: ('A' for Active; 'I' for Inactive)
REMARK    1  A    between atoms: C_2  and  C_3
REMARK    2  A    between atoms: C_3  and  C_4
REMARK    3  A    between atoms: C_4  and  C_5
REMARK    4  A    between atoms: C_5  and  N_6
REMARK    5  A    between atoms: C_9  and  C_10
REMARK    6  A    between atoms: N_23  and  C_24
REMARK                            x       y       z     vdW  Elec       q    Type
REMARK                         _______ _______ _______ _____ _____    ______ ____
ROOT
ATOM      1  N   UNL     1       3.203   6.234  18.901  0.00  0.00    +0.000 N 
ATOM      2  C   UNL     1       4.076   6.197  17.817  0.00  0.00    +0.000 C 
ATOM      3  O   UNL     1       4.537   7.212  17.296  0.00  0.00    +0.000 OA
ATOM      4  C   UNL     1       4.220   4.778  17.241  0.00  0.00    +0.000 C 
ATOM      5  O   UNL     1       4.447   3.757  18.213  0.00  0.00    +0.000 OA
ATOM      6  C   UNL     1       3.608   3.878  19.290  0.00  0.00    +0.000 A 
ATOM      7  C   UNL     1       3.418   2.736  20.061  0.00  0.00    +0.000 A 
ATOM      8  C   UNL     1       2.593   2.803  21.177  0.00  0.00    +0.000 A 
ATOM      9  C   UNL     1       1.989   4.015  21.470  0.00  0.00    +0.000 A 
ATOM     10  N   UNL     1       2.148   5.140  20.734  0.00  0.00    +0.000 NA
ATOM     11  C   UNL     1       2.963   5.065  19.655  0.00  0.00    +0.000 A 
ENDROOT
BRANCH   4  12
ATOM     12  C   UNL     1       5.239   4.661  16.121  0.00  0.00    +0.000 A 
ATOM     13  C   UNL     1       4.882   4.222  14.840  0.00  0.00    +0.000 A 
ATOM     14  C   UNL     1       5.830   4.184  13.815  0.00  0.00    +0.000 A 
ATOM     15  C   UNL     1       7.147   4.567  14.063  0.00  0.00    +0.000 A 
ATOM     16  C   UNL     1       7.524   4.973  15.339  0.00  0.00    +0.000 A 
ATOM     17  C   UNL     1       6.579   5.016  16.364  0.00  0.00    +0.000 A 
ENDBRANCH   4  12
BRANCH   1  18
ATOM     18  C   UNL     1       2.444   7.439  19.165  0.00  0.00    +0.000 C 
BRANCH  18  19
ATOM     19  C   UNL     1       1.830   8.106  17.938  0.00  0.00    +0.000 C 
BRANCH  19  20
ATOM     20  C   UNL     1       1.860   9.615  18.162  0.00  0.00    +0.000 C 
BRANCH  20  22
ATOM     21  O   UNL     1      -0.490   9.955  18.240  0.00  0.00    +0.000 OA
ATOM     22  C   UNL     1       0.599  10.202  18.750  0.00  0.00    +0.000 C 
ATOM     23  N   UNL     1       0.802  10.941  19.898  0.00  0.00    +0.000 N 
ATOM     24  H   UNL     1       1.740  11.275  20.097  0.00  0.00    +0.000 HD
BRANCH  23  25
ATOM     25  C   UNL     1      -0.202  11.370  20.796  0.00  0.00    +0.000 A 
ATOM     26  C   UNL     1      -1.131  12.369  20.488  0.00  0.00    +0.000 A 
ATOM     27  C   UNL     1      -2.126  12.719  21.406  0.00  0.00    +0.000 A 
ATOM     28  C   UNL     1      -2.192  12.075  22.639  0.00  0.00    +0.000 A 
ATOM     29 BR   UNL     1      -3.546  12.549  23.869  0.00  0.00    +0.000 Br
ATOM     30  C   UNL     1      -1.279  11.077  22.963  0.00  0.00    +0.000 A 
ATOM     31  C   UNL     1      -0.300  10.729  22.036  0.00  0.00    +0.000 A 
ATOM     32  F   UNL     1       0.571   9.756  22.346  0.00  0.00    +0.000 F 
ENDBRANCH  23  25
ENDBRANCH  20  22
ENDBRANCH  19  20
ENDBRANCH  18  19
ENDBRANCH   1  18
TORSDOF 6
ENDMDL
