MODEL 1
REMARK VINA RESULT:      -7.7      0.000      0.000
REMARK  Name = 
REMARK  7 active torsions:
REMARK  status: ('A' for Active; 'I' for Inactive)
REMARK    1  A    between atoms: C_1  and  C_2
REMARK    2  A    between atoms: C_4  and  C_5
REMARK    3  A    between atoms: C_6  and  N_7
REMARK    4  A    between atoms: C_8  and  C_10
REMARK    5  A    between atoms: C_10  and  C_17
REMARK    6  A    between atoms: C_11  and  C_12
REMARK    7  A    between atoms: C_23  and  C_24
REMARK                            x       y       z     vdW  Elec       q    Type
REMARK                         _______ _______ _______ _____ _____    ______ ____
ROOT
ATOM      1  N   UNL     1       1.879   9.076  19.463  0.00  0.00    +0.000 N 
ATOM      2  C   UNL     1       1.803   8.381  18.262  0.00  0.00    +0.000 C 
ATOM      3  O   UNL     1       1.006   8.611  17.359  0.00  0.00    +0.000 OA
ATOM      4  H   UNL     1       2.270   8.549  20.230  0.00  0.00    +0.000 HD
ENDROOT
BRANCH   1  10
ATOM      5  C   UNL     1      -1.740  13.264  21.035  0.00  0.00    +0.000 C 
ATOM      6  C   UNL     1      -0.791  12.176  20.627  0.00  0.00    +0.000 A 
ATOM      7  C   UNL     1      -0.853  10.908  21.204  0.00  0.00    +0.000 A 
ATOM      8  C   UNL     1       0.038   9.889  20.820  0.00  0.00    +0.000 A 
ATOM      9  C   UNL     1      -0.129   8.529  21.447  0.00  0.00    +0.000 C 
ATOM     10  C   UNL     1       1.010  10.141  19.824  0.00  0.00    +0.000 A 
ATOM     11  C   UNL     1       1.119  11.437  19.280  0.00  0.00    +0.000 A 
ATOM     12  C   UNL     1       2.202  11.860  18.326  0.00  0.00    +0.000 C 
ATOM     13  C   UNL     1       0.195  12.429  19.671  0.00  0.00    +0.000 A 
ENDBRANCH   1  10
BRANCH   2  14
ATOM     14  C   UNL     1       2.717   7.181  18.184  0.00  0.00    +0.000 C 
ATOM     15  C   UNL     1       3.897   7.280  17.531  0.00  0.00    +0.000 C 
BRANCH  14  16
ATOM     16  C   UNL     1       2.264   5.878  18.734  0.00  0.00    +0.000 A 
ATOM     17  C   UNL     1       1.811   4.868  17.877  0.00  0.00    +0.000 A 
ATOM     18  C   UNL     1       1.287   3.682  18.400  0.00  0.00    +0.000 A 
ATOM     19  C   UNL     1       1.212   3.498  19.779  0.00  0.00    +0.000 A 
ATOM     20  C   UNL     1       1.663   4.496  20.640  0.00  0.00    +0.000 A 
ATOM     21  C   UNL     1       2.190   5.682  20.121  0.00  0.00    +0.000 A 
ENDBRANCH  14  16
BRANCH  15  22
ATOM     22  C   UNL     1       4.802   6.188  17.439  0.00  0.00    +0.000 A 
ATOM     23  C   UNL     1       5.072   5.350  16.364  0.00  0.00    +0.000 A 
ATOM     24  C   UNL     1       5.999   4.373  16.796  0.00  0.00    +0.000 A 
ATOM     25  C   UNL     1       6.275   4.672  18.105  0.00  0.00    +0.000 A 
ATOM     26  O   UNL     1       5.575   5.767  18.499  0.00  0.00    +0.000 OA
ENDBRANCH  15  22
ENDBRANCH   2  14
TORSDOF 4
ENDMDL
MODEL 2
REMARK VINA RESULT:      -7.5      0.152      1.746
REMARK  Name = 
REMARK  7 active torsions:
REMARK  status: ('A' for Active; 'I' for Inactive)
REMARK    1  A    between atoms: C_1  and  C_2
REMARK    2  A    between atoms: C_4  and  C_5
REMARK    3  A    between atoms: C_6  and  N_7
REMARK    4  A    between atoms: C_8  and  C_10
REMARK    5  A    between atoms: C_10  and  C_17
REMARK    6  A    between atoms: C_11  and  C_12
REMARK    7  A    between atoms: C_23  and  C_24
REMARK                            x       y       z     vdW  Elec       q    Type
REMARK                         _______ _______ _______ _____ _____    ______ ____
ROOT
ATOM      1  N   UNL     1       1.911   9.031  19.462  0.00  0.00    +0.000 N 
ATOM      2  C   UNL     1       1.768   8.288  18.297  0.00  0.00    +0.000 C 
ATOM      3  O   UNL     1       0.902   8.463  17.446  0.00  0.00    +0.000 OA
ATOM      4  H   UNL     1       2.370   8.544  20.218  0.00  0.00    +0.000 HD
ENDROOT
BRANCH   1  10
ATOM      5  C   UNL     1      -1.508  13.430  20.903  0.00  0.00    +0.000 C 
ATOM      6  C   UNL     1      -0.622  12.279  20.526  0.00  0.00    +0.000 A 
ATOM      7  C   UNL     1       0.357  12.412  19.541  0.00  0.00    +0.000 A 
ATOM      8  C   UNL     1       1.186  11.331  19.188  0.00  0.00    +0.000 A 
ATOM      9  C   UNL     1       2.257  11.569  18.156  0.00  0.00    +0.000 C 
ATOM     10  C   UNL     1       1.041  10.088  19.846  0.00  0.00    +0.000 A 
ATOM     11  C   UNL     1       0.015   9.928  20.800  0.00  0.00    +0.000 A 
ATOM     12  C   UNL     1      -0.327   8.618  21.456  0.00  0.00    +0.000 C 
ATOM     13  C   UNL     1      -0.784  11.038  21.146  0.00  0.00    +0.000 A 
ENDBRANCH   1  10
BRANCH   2  14
ATOM     14  C   UNL     1       2.707   7.109  18.197  0.00  0.00    +0.000 C 
ATOM     15  C   UNL     1       3.882   7.244  17.541  0.00  0.00    +0.000 C 
BRANCH  14  16
ATOM     16  C   UNL     1       2.283   5.789  18.726  0.00  0.00    +0.000 A 
ATOM     17  C   UNL     1       1.817   4.795  17.857  0.00  0.00    +0.000 A 
ATOM     18  C   UNL     1       1.320   3.591  18.365  0.00  0.00    +0.000 A 
ATOM     19  C   UNL     1       1.285   3.372  19.741  0.00  0.00    +0.000 A 
ATOM     20  C   UNL     1       1.750   4.354  20.614  0.00  0.00    +0.000 A 
ATOM     21  C   UNL     1       2.250   5.558  20.109  0.00  0.00    +0.000 A 
ENDBRANCH  14  16
BRANCH  15  22
ATOM     22  C   UNL     1       4.809   6.172  17.429  0.00  0.00    +0.000 A 
ATOM     23  C   UNL     1       5.103   5.367  16.336  0.00  0.00    +0.000 A 
ATOM     24  C   UNL     1       6.047   4.398  16.751  0.00  0.00    +0.000 A 
ATOM     25  C   UNL     1       6.309   4.671  18.068  0.00  0.00    +0.000 A 
ATOM     26  O   UNL     1       5.585   5.742  18.484  0.00  0.00    +0.000 OA
ENDBRANCH  15  22
ENDBRANCH   2  14
TORSDOF 4
ENDMDL
MODEL 3
REMARK VINA RESULT:      -6.9      1.103      1.545
REMARK  Name = 
REMARK  7 active torsions:
REMARK  status: ('A' for Active; 'I' for Inactive)
REMARK    1  A    between atoms: C_1  and  C_2
REMARK    2  A    between atoms: C_4  and  C_5
REMARK    3  A    between atoms: C_6  and  N_7
REMARK    4  A    between atoms: C_8  and  C_10
REMARK    5  A    between atoms: C_10  and  C_17
REMARK    6  A    between atoms: C_11  and  C_12
REMARK    7  A    between atoms: C_23  and  C_24
REMARK                            x       y       z     vdW  Elec       q    Type
REMARK                         _______ _______ _______ _____ _____    ______ ____
ROOT
ATOM      1  N   UNL     1       1.235   8.541  19.464  0.00  0.00    +0.000 N 
ATOM      2  C   UNL     1       2.200   8.613  18.466  0.00  0.00    +0.000 C 
ATOM      3  O   UNL     1       2.405   9.585  17.747  0.00  0.00    +0.000 OA
ATOM      4  H   UNL     1       0.918   7.606  19.676  0.00  0.00    +0.000 HD
ENDROOT
BRANCH   1  10
ATOM      5  C   UNL     1      -2.395  12.776  20.877  0.00  0.00    +0.000 C 
ATOM      6  C   UNL     1      -1.447  11.676  20.503  0.00  0.00    +0.000 A 
ATOM      7  C   UNL     1      -0.478  11.220  21.398  0.00  0.00    +0.000 A 
ATOM      8  C   UNL     1       0.411  10.188  21.045  0.00  0.00    +0.000 A 
ATOM      9  C   UNL     1       1.390   9.712  22.086  0.00  0.00    +0.000 C 
ATOM     10  C   UNL     1       0.322   9.588  19.768  0.00  0.00    +0.000 A 
ATOM     11  C   UNL     1      -0.613  10.083  18.837  0.00  0.00    +0.000 A 
ATOM     12  C   UNL     1      -0.700   9.624  17.407  0.00  0.00    +0.000 C 
ATOM     13  C   UNL     1      -1.504  11.103  19.231  0.00  0.00    +0.000 A 
ENDBRANCH   1  10
BRANCH   2  14
ATOM     14  C   UNL     1       2.930   7.314  18.218  0.00  0.00    +0.000 C 
ATOM     15  C   UNL     1       4.052   7.312  17.462  0.00  0.00    +0.000 C 
BRANCH  14  16
ATOM     16  C   UNL     1       2.351   6.042  18.717  0.00  0.00    +0.000 A 
ATOM     17  C   UNL     1       2.467   5.694  20.068  0.00  0.00    +0.000 A 
ATOM     18  C   UNL     1       2.014   4.450  20.517  0.00  0.00    +0.000 A 
ATOM     19  C   UNL     1       1.446   3.546  19.621  0.00  0.00    +0.000 A 
ATOM     20  C   UNL     1       1.324   3.885  18.275  0.00  0.00    +0.000 A 
ATOM     21  C   UNL     1       1.772   5.129  17.823  0.00  0.00    +0.000 A 
ENDBRANCH  14  16
BRANCH  15  22
ATOM     22  C   UNL     1       4.786   6.121  17.208  0.00  0.00    +0.000 A 
ATOM     23  C   UNL     1       4.924   5.401  16.028  0.00  0.00    +0.000 A 
ATOM     24  C   UNL     1       5.701   4.252  16.309  0.00  0.00    +0.000 A 
ATOM     25  C   UNL     1       6.025   4.335  17.638  0.00  0.00    +0.000 A 
ATOM     26  O   UNL     1       5.495   5.458  18.186  0.00  0.00    +0.000 OA
ENDBRANCH  15  22
ENDBRANCH   2  14
TORSDOF 4
ENDMDL
MODEL 4
REMARK VINA RESULT:      -6.9      0.998      1.471
REMARK  Name = 
REMARK  7 active torsions:
REMARK  status: ('A' for Active; 'I' for Inactive)
REMARK    1  A    between atoms: C_1  and  C_2
REMARK    2  A    between atoms: C_4  and  C_5
REMARK    3  A    between atoms: C_6  and  N_7
REMARK    4  A    between atoms: C_8  and  C_10
REMARK    5  A    between atoms: C_10  and  C_17
REMARK    6  A    between atoms: C_11  and  C_12
REMARK    7  A    between atoms: C_23  and  C_24
REMARK                            x       y       z     vdW  Elec       q    Type
REMARK                         _______ _______ _______ _____ _____    ______ ____
ROOT
ATOM      1  N   UNL     1       2.281   8.638  19.250  0.00  0.00    +0.000 N 
ATOM      2  C   UNL     1       2.138   7.871  18.100  0.00  0.00    +0.000 C 
ATOM      3  O   UNL     1       1.219   7.965  17.294  0.00  0.00    +0.000 OA
ATOM      4  H   UNL     1       2.816   8.199  19.985  0.00  0.00    +0.000 HD
ENDROOT
BRANCH   1  10
ATOM      5  C   UNL     1      -1.560  12.518  21.069  0.00  0.00    +0.000 C 
ATOM      6  C   UNL     1      -0.553  11.511  20.596  0.00  0.00    +0.000 A 
ATOM      7  C   UNL     1      -0.421  10.271  21.221  0.00  0.00    +0.000 A 
ATOM      8  C   UNL     1       0.524   9.328  20.775  0.00  0.00    +0.000 A 
ATOM      9  C   UNL     1       0.566   7.990  21.465  0.00  0.00    +0.000 C 
ATOM     10  C   UNL     1       1.351   9.628  19.668  0.00  0.00    +0.000 A 
ATOM     11  C   UNL     1       1.266  10.902  19.069  0.00  0.00    +0.000 A 
ATOM     12  C   UNL     1       2.190  11.385  17.985  0.00  0.00    +0.000 C 
ATOM     13  C   UNL     1       0.292  11.815  19.526  0.00  0.00    +0.000 A 
ENDBRANCH   1  10
BRANCH   2  14
ATOM     14  C   UNL     1       3.161   6.768  17.963  0.00  0.00    +0.000 C 
ATOM     15  C   UNL     1       4.304   6.997  17.276  0.00  0.00    +0.000 C 
BRANCH  14  16
ATOM     16  C   UNL     1       2.855   5.415  18.491  0.00  0.00    +0.000 A 
ATOM     17  C   UNL     1       3.288   5.040  19.769  0.00  0.00    +0.000 A 
ATOM     18  C   UNL     1       3.092   3.733  20.224  0.00  0.00    +0.000 A 
ATOM     19  C   UNL     1       2.463   2.793  19.409  0.00  0.00    +0.000 A 
ATOM     20  C   UNL     1       2.025   3.158  18.137  0.00  0.00    +0.000 A 
ATOM     21  C   UNL     1       2.218   4.465  17.679  0.00  0.00    +0.000 A 
ENDBRANCH  14  16
BRANCH  15  22
ATOM     22  C   UNL     1       5.307   6.000  17.128  0.00  0.00    +0.000 A 
ATOM     23  C   UNL     1       6.360   5.672  17.973  0.00  0.00    +0.000 A 
ATOM     24  C   UNL     1       7.119   4.655  17.346  0.00  0.00    +0.000 A 
ATOM     25  C   UNL     1       6.481   4.388  16.162  0.00  0.00    +0.000 A 
ATOM     26  O   UNL     1       5.385   5.177  16.026  0.00  0.00    +0.000 OA
ENDBRANCH  15  22
ENDBRANCH   2  14
TORSDOF 4
ENDMDL
MODEL 5
REMARK VINA RESULT:      -6.6      1.579      3.099
REMARK  Name = 
REMARK  7 active torsions:
REMARK  status: ('A' for Active; 'I' for Inactive)
REMARK    1  A    between atoms: C_1  and  C_2
REMARK    2  A    between atoms: C_4  and  C_5
REMARK    3  A    between atoms: C_6  and  N_7
REMARK    4  A    between atoms: C_8  and  C_10
REMARK    5  A    between atoms: C_10  and  C_17
REMARK    6  A    between atoms: C_11  and  C_12
REMARK    7  A    between atoms: C_23  and  C_24
REMARK                            x       y       z     vdW  Elec       q    Type
REMARK                         _______ _______ _______ _____ _____    ______ ____
ROOT
ATOM      1  N   UNL     1       1.238   8.122  19.743  0.00  0.00    +0.000 N 
ATOM      2  C   UNL     1       2.285   8.006  18.837  0.00  0.00    +0.000 C 
ATOM      3  O   UNL     1       2.774   8.931  18.197  0.00  0.00    +0.000 OA
ATOM      4  H   UNL     1       0.696   7.279  19.871  0.00  0.00    +0.000 HD
ENDROOT
BRANCH   1  10
ATOM      5  C   UNL     1      -1.436  13.037  21.092  0.00  0.00    +0.000 C 
ATOM      6  C   UNL     1      -0.735  11.759  20.735  0.00  0.00    +0.000 A 
ATOM      7  C   UNL     1       0.092  11.106  21.650  0.00  0.00    +0.000 A 
ATOM      8  C   UNL     1       0.747   9.908  21.312  0.00  0.00    +0.000 A 
ATOM      9  C   UNL     1       1.578   9.234  22.373  0.00  0.00    +0.000 C 
ATOM     10  C   UNL     1       0.563   9.340  20.031  0.00  0.00    +0.000 A 
ATOM     11  C   UNL     1      -0.223  10.023  19.081  0.00  0.00    +0.000 A 
ATOM     12  C   UNL     1      -0.373   9.593  17.647  0.00  0.00    +0.000 C 
ATOM     13  C   UNL     1      -0.884  11.211  19.459  0.00  0.00    +0.000 A 
ENDBRANCH   1  10
BRANCH   2  14
ATOM     14  C   UNL     1       2.719   6.584  18.574  0.00  0.00    +0.000 C 
ATOM     15  C   UNL     1       1.862   5.566  18.819  0.00  0.00    +0.000 C 
BRANCH  14  16
ATOM     16  C   UNL     1       4.115   6.311  18.150  0.00  0.00    +0.000 A 
ATOM     17  C   UNL     1       4.494   6.478  16.813  0.00  0.00    +0.000 A 
ATOM     18  C   UNL     1       5.779   6.121  16.394  0.00  0.00    +0.000 A 
ATOM     19  C   UNL     1       6.693   5.596  17.306  0.00  0.00    +0.000 A 
ATOM     20  C   UNL     1       6.326   5.429  18.640  0.00  0.00    +0.000 A 
ATOM     21  C   UNL     1       5.043   5.787  19.062  0.00  0.00    +0.000 A 
ENDBRANCH  14  16
BRANCH  15  22
ATOM     22  C   UNL     1       2.214   4.211  18.576  0.00  0.00    +0.000 A 
ATOM     23  C   UNL     1       2.257   3.509  17.378  0.00  0.00    +0.000 A 
ATOM     24  C   UNL     1       2.600   2.168  17.673  0.00  0.00    +0.000 A 
ATOM     25  C   UNL     1       2.776   2.116  19.031  0.00  0.00    +0.000 A 
ATOM     26  O   UNL     1       2.563   3.338  19.584  0.00  0.00    +0.000 OA
ENDBRANCH  15  22
ENDBRANCH   2  14
TORSDOF 4
ENDMDL
MODEL 6
REMARK VINA RESULT:      -6.6      1.151      1.905
REMARK  Name = 
REMARK  7 active torsions:
REMARK  status: ('A' for Active; 'I' for Inactive)
REMARK    1  A    between atoms: C_1  and  C_2
REMARK    2  A    between atoms: C_4  and  C_5
REMARK    3  A    between atoms: C_6  and  N_7
REMARK    4  A    between atoms: C_8  and  C_10
REMARK    5  A    between atoms: C_10  and  C_17
REMARK    6  A    between atoms: C_11  and  C_12
REMARK    7  A    between atoms: C_23  and  C_24
REMARK                            x       y       z     vdW  Elec       q    Type
REMARK                         _______ _______ _______ _____ _____    ______ ____
ROOT
ATOM      1  N   UNL     1       1.124   8.734  19.289  0.00  0.00    +0.000 N 
ATOM      2  C   UNL     1       2.159   8.824  18.367  0.00  0.00    +0.000 C 
ATOM      3  O   UNL     1       2.422   9.813  17.691  0.00  0.00    +0.000 OA
ATOM      4  H   UNL     1       0.786   7.796  19.452  0.00  0.00    +0.000 HD
ENDROOT
BRANCH   1  10
ATOM      5  C   UNL     1      -2.690  12.951  20.176  0.00  0.00    +0.000 C 
ATOM      6  C   UNL     1      -1.698  11.848  19.951  0.00  0.00    +0.000 A 
ATOM      7  C   UNL     1      -1.691  11.112  18.766  0.00  0.00    +0.000 A 
ATOM      8  C   UNL     1      -0.760  10.078  18.557  0.00  0.00    +0.000 A 
ATOM      9  C   UNL     1      -0.779   9.368  17.228  0.00  0.00    +0.000 C 
ATOM     10  C   UNL     1       0.197   9.779  19.554  0.00  0.00    +0.000 A 
ATOM     11  C   UNL     1       0.158  10.478  20.778  0.00  0.00    +0.000 A 
ATOM     12  C   UNL     1       1.028  10.149  21.961  0.00  0.00    +0.000 C 
ATOM     13  C   UNL     1      -0.774  11.523  20.946  0.00  0.00    +0.000 A 
ENDBRANCH   1  10
BRANCH   2  14
ATOM     14  C   UNL     1       2.897   7.527  18.137  0.00  0.00    +0.000 C 
ATOM     15  C   UNL     1       4.017   7.519  17.379  0.00  0.00    +0.000 C 
BRANCH  14  16
ATOM     16  C   UNL     1       2.328   6.258  18.658  0.00  0.00    +0.000 A 
ATOM     17  C   UNL     1       2.385   5.966  20.025  0.00  0.00    +0.000 A 
ATOM     18  C   UNL     1       1.944   4.727  20.501  0.00  0.00    +0.000 A 
ATOM     19  C   UNL     1       1.444   3.774  19.615  0.00  0.00    +0.000 A 
ATOM     20  C   UNL     1       1.381   4.057  18.252  0.00  0.00    +0.000 A 
ATOM     21  C   UNL     1       1.818   5.296  17.774  0.00  0.00    +0.000 A 
ENDBRANCH  14  16
BRANCH  15  22
ATOM     22  C   UNL     1       4.759   6.330  17.142  0.00  0.00    +0.000 A 
ATOM     23  C   UNL     1       4.979   5.646  15.953  0.00  0.00    +0.000 A 
ATOM     24  C   UNL     1       5.723   4.481  16.253  0.00  0.00    +0.000 A 
ATOM     25  C   UNL     1       5.947   4.518  17.605  0.00  0.00    +0.000 A 
ATOM     26  O   UNL     1       5.387   5.629  18.148  0.00  0.00    +0.000 OA
ENDBRANCH  15  22
ENDBRANCH   2  14
TORSDOF 4
ENDMDL
MODEL 7
REMARK VINA RESULT:      -6.6      1.196      2.399
REMARK  Name = 
REMARK  7 active torsions:
REMARK  status: ('A' for Active; 'I' for Inactive)
REMARK    1  A    between atoms: C_1  and  C_2
REMARK    2  A    between atoms: C_4  and  C_5
REMARK    3  A    between atoms: C_6  and  N_7
REMARK    4  A    between atoms: C_8  and  C_10
REMARK    5  A    between atoms: C_10  and  C_17
REMARK    6  A    between atoms: C_11  and  C_12
REMARK    7  A    between atoms: C_23  and  C_24
REMARK                            x       y       z     vdW  Elec       q    Type
REMARK                         _______ _______ _______ _____ _____    ______ ____
ROOT
ATOM      1  N   UNL     1       2.335   8.406  19.263  0.00  0.00    +0.000 N 
ATOM      2  C   UNL     1       2.177   7.533  18.193  0.00  0.00    +0.000 C 
ATOM      3  O   UNL     1       1.196   7.479  17.459  0.00  0.00    +0.000 OA
ATOM      4  H   UNL     1       2.960   8.079  19.985  0.00  0.00    +0.000 HD
ENDROOT
BRANCH   1  10
ATOM      5  C   UNL     1      -1.570  12.343  20.804  0.00  0.00    +0.000 C 
ATOM      6  C   UNL     1      -0.557  11.312  20.401  0.00  0.00    +0.000 A 
ATOM      7  C   UNL     1       0.309  11.528  19.329  0.00  0.00    +0.000 A 
ATOM      8  C   UNL     1       1.258  10.560  18.953  0.00  0.00    +0.000 A 
ATOM      9  C   UNL     1       2.196  10.891  17.822  0.00  0.00    +0.000 C 
ATOM     10  C   UNL     1       1.352   9.347  19.675  0.00  0.00    +0.000 A 
ATOM     11  C   UNL     1       0.441   9.096  20.721  0.00  0.00    +0.000 A 
ATOM     12  C   UNL     1       0.350   7.788  21.460  0.00  0.00    +0.000 C 
ATOM     13  C   UNL     1      -0.483  10.097  21.086  0.00  0.00    +0.000 A 
ENDBRANCH   1  10
BRANCH   2  14
ATOM     14  C   UNL     1       3.284   6.513  18.062  0.00  0.00    +0.000 C 
ATOM     15  C   UNL     1       4.465   6.875  17.512  0.00  0.00    +0.000 C 
BRANCH  14  16
ATOM     16  C   UNL     1       3.026   5.101  18.440  0.00  0.00    +0.000 A 
ATOM     17  C   UNL     1       3.296   4.656  19.740  0.00  0.00    +0.000 A 
ATOM     18  C   UNL     1       3.153   3.304  20.067  0.00  0.00    +0.000 A 
ATOM     19  C   UNL     1       2.742   2.389  19.100  0.00  0.00    +0.000 A 
ATOM     20  C   UNL     1       2.468   2.823  17.804  0.00  0.00    +0.000 A 
ATOM     21  C   UNL     1       2.607   4.174  17.474  0.00  0.00    +0.000 A 
ENDBRANCH  14  16
BRANCH  15  22
ATOM     22  C   UNL     1       5.545   5.959  17.377  0.00  0.00    +0.000 A 
ATOM     23  C   UNL     1       6.561   5.651  18.273  0.00  0.00    +0.000 A 
ATOM     24  C   UNL     1       7.431   4.730  17.643  0.00  0.00    +0.000 A 
ATOM     25  C   UNL     1       6.894   4.495  16.403  0.00  0.00    +0.000 A 
ATOM     26  O   UNL     1       5.755   5.215  16.236  0.00  0.00    +0.000 OA
ENDBRANCH  15  22
ENDBRANCH   2  14
TORSDOF 4
ENDMDL
MODEL 8
REMARK VINA RESULT:      -6.6      1.642      2.294
REMARK  Name = 
REMARK  7 active torsions:
REMARK  status: ('A' for Active; 'I' for Inactive)
REMARK    1  A    between atoms: C_1  and  C_2
REMARK    2  A    between atoms: C_4  and  C_5
REMARK    3  A    between atoms: C_6  and  N_7
REMARK    4  A    between atoms: C_8  and  C_10
REMARK    5  A    between atoms: C_10  and  C_17
REMARK    6  A    between atoms: C_11  and  C_12
REMARK    7  A    between atoms: C_23  and  C_24
REMARK                            x       y       z     vdW  Elec       q    Type
REMARK                         _______ _______ _______ _____ _____    ______ ____
ROOT
ATOM      1  N   UNL     1       1.715   8.580  19.287  0.00  0.00    +0.000 N 
ATOM      2  C   UNL     1       1.822   7.220  19.552  0.00  0.00    +0.000 C 
ATOM      3  O   UNL     1       1.176   6.609  20.397  0.00  0.00    +0.000 OA
ATOM      4  H   UNL     1       2.544   8.998  18.890  0.00  0.00    +0.000 HD
ENDROOT
BRANCH   1  10
ATOM      5  C   UNL     1      -1.857  12.208  21.970  0.00  0.00    +0.000 C 
ATOM      6  C   UNL     1      -0.928  11.257  21.275  0.00  0.00    +0.000 A 
ATOM      7  C   UNL     1      -1.070  10.968  19.918  0.00  0.00    +0.000 A 
ATOM      8  C   UNL     1      -0.197  10.076  19.268  0.00  0.00    +0.000 A 
ATOM      9  C   UNL     1      -0.380   9.859  17.789  0.00  0.00    +0.000 C 
ATOM     10  C   UNL     1       0.853   9.465  19.992  0.00  0.00    +0.000 A 
ATOM     11  C   UNL     1       0.967   9.705  21.376  0.00  0.00    +0.000 A 
ATOM     12  C   UNL     1       1.950   9.002  22.273  0.00  0.00    +0.000 C 
ATOM     13  C   UNL     1       0.089  10.622  21.991  0.00  0.00    +0.000 A 
ENDBRANCH   1  10
BRANCH   2  14
ATOM     14  C   UNL     1       2.929   6.528  18.792  0.00  0.00    +0.000 C 
ATOM     15  C   UNL     1       3.818   7.265  18.088  0.00  0.00    +0.000 C 
BRANCH  14  16
ATOM     16  C   UNL     1       2.966   5.045  18.741  0.00  0.00    +0.000 A 
ATOM     17  C   UNL     1       3.819   4.329  19.589  0.00  0.00    +0.000 A 
ATOM     18  C   UNL     1       3.931   2.941  19.468  0.00  0.00    +0.000 A 
ATOM     19  C   UNL     1       3.194   2.260  18.501  0.00  0.00    +0.000 A 
ATOM     20  C   UNL     1       2.340   2.964  17.654  0.00  0.00    +0.000 A 
ATOM     21  C   UNL     1       2.224   4.352  17.774  0.00  0.00    +0.000 A 
ENDBRANCH  14  16
BRANCH  15  22
ATOM     22  C   UNL     1       4.887   6.667  17.367  0.00  0.00    +0.000 A 
ATOM     23  C   UNL     1       4.942   6.262  16.039  0.00  0.00    +0.000 A 
ATOM     24  C   UNL     1       6.204   5.661  15.820  0.00  0.00    +0.000 A 
ATOM     25  C   UNL     1       6.874   5.751  17.012  0.00  0.00    +0.000 A 
ATOM     26  O   UNL     1       6.102   6.366  17.945  0.00  0.00    +0.000 OA
ENDBRANCH  15  22
ENDBRANCH   2  14
TORSDOF 4
ENDMDL
MODEL 9
REMARK VINA RESULT:      -6.5      1.630      2.564
REMARK  Name = 
REMARK  7 active torsions:
REMARK  status: ('A' for Active; 'I' for Inactive)
REMARK    1  A    between atoms: C_1  and  C_2
REMARK    2  A    between atoms: C_4  and  C_5
REMARK    3  A    between atoms: C_6  and  N_7
REMARK    4  A    between atoms: C_8  and  C_10
REMARK    5  A    between atoms: C_10  and  C_17
REMARK    6  A    between atoms: C_11  and  C_12
REMARK    7  A    between atoms: C_23  and  C_24
REMARK                            x       y       z     vdW  Elec       q    Type
REMARK                         _______ _______ _______ _____ _____    ______ ____
ROOT
ATOM      1  N   UNL     1       2.631   7.849  18.955  0.00  0.00    +0.000 N 
ATOM      2  C   UNL     1       2.286   6.800  18.110  0.00  0.00    +0.000 C 
ATOM      3  O   UNL     1       1.142   6.489  17.797  0.00  0.00    +0.000 OA
ATOM      4  H   UNL     1       3.517   7.736  19.426  0.00  0.00    +0.000 HD
ENDROOT
BRANCH   1  10
ATOM      5  C   UNL     1      -1.139  11.406  21.454  0.00  0.00    +0.000 C 
ATOM      6  C   UNL     1      -0.162  10.474  20.802  0.00  0.00    +0.000 A 
ATOM      7  C   UNL     1       0.486  10.818  19.615  0.00  0.00    +0.000 A 
ATOM      8  C   UNL     1       1.403   9.942  19.005  0.00  0.00    +0.000 A 
ATOM      9  C   UNL     1       2.104  10.409  17.756  0.00  0.00    +0.000 C 
ATOM     10  C   UNL     1       1.689   8.693  19.604  0.00  0.00    +0.000 A 
ATOM     11  C   UNL     1       0.995   8.312  20.770  0.00  0.00    +0.000 A 
ATOM     12  C   UNL     1       1.108   6.956  21.411  0.00  0.00    +0.000 C 
ATOM     13  C   UNL     1       0.099   9.224  21.367  0.00  0.00    +0.000 A 
ENDBRANCH   1  10
BRANCH   2  14
ATOM     14  C   UNL     1       3.453   5.942  17.683  0.00  0.00    +0.000 C 
ATOM     15  C   UNL     1       4.429   6.475  16.913  0.00  0.00    +0.000 C 
BRANCH  14  16
ATOM     16  C   UNL     1       3.464   4.497  18.026  0.00  0.00    +0.000 A 
ATOM     17  C   UNL     1       2.783   3.575  17.222  0.00  0.00    +0.000 A 
ATOM     18  C   UNL     1       2.705   2.232  17.601  0.00  0.00    +0.000 A 
ATOM     19  C   UNL     1       3.305   1.801  18.783  0.00  0.00    +0.000 A 
ATOM     20  C   UNL     1       3.987   2.712  19.589  0.00  0.00    +0.000 A 
ATOM     21  C   UNL     1       4.069   4.055  19.211  0.00  0.00    +0.000 A 
ENDBRANCH  14  16
BRANCH  15  22
ATOM     22  C   UNL     1       5.557   5.717  16.495  0.00  0.00    +0.000 A 
ATOM     23  C   UNL     1       5.791   5.072  15.286  0.00  0.00    +0.000 A 
ATOM     24  C   UNL     1       7.030   4.397  15.387  0.00  0.00    +0.000 A 
ATOM     25  C   UNL     1       7.510   4.681  16.640  0.00  0.00    +0.000 A 
ATOM     26  O   UNL     1       6.644   5.483  17.309  0.00  0.00    +0.000 OA
ENDBRANCH  15  22
ENDBRANCH   2  14
TORSDOF 4
ENDMDL
