MODEL 1
REMARK VINA RESULT:      -5.8      0.000      0.000
REMARK  Name = 
REMARK  7 active torsions:
REMARK  status: ('A' for Active; 'I' for Inactive)
REMARK    1  A    between atoms: C_1  and  O_2
REMARK    2  A    between atoms: O_2  and  C_3
REMARK    3  A    between atoms: C_6  and  C_7
REMARK    4  A    between atoms: C_12  and  C_13
REMARK    5  A    between atoms: C_15  and  C_16
REMARK    6  A    between atoms: N_20  and  O_21
REMARK    7  A    between atoms: O_21  and  C_22
REMARK                            x       y       z     vdW  Elec       q    Type
REMARK                         _______ _______ _______ _____ _____    ______ ____
ROOT
ATOM      1  C   UNL     1      -0.075  11.035  20.692  0.00  0.00    +0.000 A 
ATOM      2  C   UNL     1       0.292   9.888  21.386  0.00  0.00    +0.000 A 
ATOM      3 BR   UNL     1       0.068   9.476  23.222  0.00  0.00    +0.000 Br
ATOM      4  C   UNL     1       0.940   8.979  20.525  0.00  0.00    +0.000 A 
ATOM      5  C   UNL     1       1.370   7.644  20.660  0.00  0.00    +0.000 A 
ATOM      6  C   UNL     1       2.179   7.066  19.676  0.00  0.00    +0.000 A 
ATOM      7  C   UNL     1       2.543   7.807  18.550  0.00  0.00    +0.000 A 
ATOM      8  C   UNL     1       2.009   9.095  18.340  0.00  0.00    +0.000 A 
ATOM      9  C   UNL     1       1.207   9.672  19.349  0.00  0.00    +0.000 A 
ATOM     10  N   UNL     1       0.596  10.920  19.472  0.00  0.00    +0.000 N 
ENDROOT
BRANCH   1  14
ATOM     11  C   UNL     1      -2.925  14.036  21.980  0.00  0.00    +0.000 A 
ATOM     12  C   UNL     1      -1.708  13.900  22.653  0.00  0.00    +0.000 A 
ATOM     13  C   UNL     1      -0.739  12.959  22.240  0.00  0.00    +0.000 A 
ATOM     14  C   UNL     1      -0.974  12.130  21.140  0.00  0.00    +0.000 A 
ATOM     15  C   UNL     1      -2.185  12.334  20.446  0.00  0.00    +0.000 A 
ATOM     16  C   UNL     1      -3.161  13.240  20.873  0.00  0.00    +0.000 A 
BRANCH  11  18
ATOM     17  C   UNL     1      -4.517  14.545  23.664  0.00  0.00    +0.000 C 
ATOM     18  O   UNL     1      -3.808  14.948  22.493  0.00  0.00    +0.000 OA
ENDBRANCH  11  18
ENDBRANCH   1  14
BRANCH   6  19
ATOM     19  C   UNL     1       2.637   5.722  19.881  0.00  0.00    +0.000 C 
ATOM     20  N   UNL     1       2.978   4.625  20.043  0.00  0.00    +0.000 NA
ENDBRANCH   6  19
BRANCH   7  21
ATOM     21  C   UNL     1       3.522   7.304  17.627  0.00  0.00    +0.000 C 
ATOM     22  N   UNL     1       4.333   6.864  16.923  0.00  0.00    +0.000 NA
ENDBRANCH   7  21
BRANCH  10  23
ATOM     23  O   UNL     1       0.529  11.874  18.435  0.00  0.00    +0.000 OA
ATOM     24  C   UNL     1       1.568  12.845  18.549  0.00  0.00    +0.000 C 
ENDBRANCH  10  23
TORSDOF 5
ENDMDL
MODEL 2
REMARK VINA RESULT:      -5.7      0.255      1.006
REMARK  Name = 
REMARK  7 active torsions:
REMARK  status: ('A' for Active; 'I' for Inactive)
REMARK    1  A    between atoms: C_1  and  O_2
REMARK    2  A    between atoms: O_2  and  C_3
REMARK    3  A    between atoms: C_6  and  C_7
REMARK    4  A    between atoms: C_12  and  C_13
REMARK    5  A    between atoms: C_15  and  C_16
REMARK    6  A    between atoms: N_20  and  O_21
REMARK    7  A    between atoms: O_21  and  C_22
REMARK                            x       y       z     vdW  Elec       q    Type
REMARK                         _______ _______ _______ _____ _____    ______ ____
ROOT
ATOM      1  C   UNL     1      -0.175  10.997  20.697  0.00  0.00    +0.000 A 
ATOM      2  C   UNL     1       0.218   9.868  21.408  0.00  0.00    +0.000 A 
ATOM      3 BR   UNL     1      -0.002   9.477  23.249  0.00  0.00    +0.000 Br
ATOM      4  C   UNL     1       0.888   8.962  20.561  0.00  0.00    +0.000 A 
ATOM      5  C   UNL     1       1.348   7.639  20.715  0.00  0.00    +0.000 A 
ATOM      6  C   UNL     1       2.172   7.066  19.742  0.00  0.00    +0.000 A 
ATOM      7  C   UNL     1       2.523   7.800  18.607  0.00  0.00    +0.000 A 
ATOM      8  C   UNL     1       1.959   9.072  18.377  0.00  0.00    +0.000 A 
ATOM      9  C   UNL     1       1.142   9.644  19.376  0.00  0.00    +0.000 A 
ATOM     10  N   UNL     1       0.502  10.880  19.480  0.00  0.00    +0.000 N 
ENDROOT
BRANCH   1  14
ATOM     11  C   UNL     1      -2.636  14.331  21.966  0.00  0.00    +0.000 A 
ATOM     12  C   UNL     1      -3.063  13.512  20.917  0.00  0.00    +0.000 A 
ATOM     13  C   UNL     1      -2.306  12.395  20.500  0.00  0.00    +0.000 A 
ATOM     14  C   UNL     1      -1.099  12.077  21.127  0.00  0.00    +0.000 A 
ATOM     15  C   UNL     1      -0.727  12.886  22.221  0.00  0.00    +0.000 A 
ATOM     16  C   UNL     1      -1.456  14.013  22.615  0.00  0.00    +0.000 A 
BRANCH  11  18
ATOM     17  C   UNL     1      -4.462  15.192  23.212  0.00  0.00    +0.000 C 
ATOM     18  O   UNL     1      -3.425  15.411  22.257  0.00  0.00    +0.000 OA
ENDBRANCH  11  18
ENDBRANCH   1  14
BRANCH   6  19
ATOM     19  C   UNL     1       2.661   5.737  19.967  0.00  0.00    +0.000 C 
ATOM     20  N   UNL     1       3.078   4.666  20.126  0.00  0.00    +0.000 NA
ENDBRANCH   6  19
BRANCH   7  21
ATOM     21  C   UNL     1       3.515   7.306  17.693  0.00  0.00    +0.000 C 
ATOM     22  N   UNL     1       4.275   6.882  16.924  0.00  0.00    +0.000 NA
ENDBRANCH   7  21
BRANCH  10  23
ATOM     23  O   UNL     1       0.416  11.817  18.429  0.00  0.00    +0.000 OA
ATOM     24  C   UNL     1       1.397  12.845  18.563  0.00  0.00    +0.000 C 
ENDBRANCH  10  23
TORSDOF 5
ENDMDL
MODEL 3
REMARK VINA RESULT:      -5.7      5.578      9.169
REMARK  Name = 
REMARK  7 active torsions:
REMARK  status: ('A' for Active; 'I' for Inactive)
REMARK    1  A    between atoms: C_1  and  O_2
REMARK    2  A    between atoms: O_2  and  C_3
REMARK    3  A    between atoms: C_6  and  C_7
REMARK    4  A    between atoms: C_12  and  C_13
REMARK    5  A    between atoms: C_15  and  C_16
REMARK    6  A    between atoms: N_20  and  O_21
REMARK    7  A    between atoms: O_21  and  C_22
REMARK                            x       y       z     vdW  Elec       q    Type
REMARK                         _______ _______ _______ _____ _____    ______ ____
ROOT
ATOM      1  C   UNL     1      -4.216  11.602  18.853  0.00  0.00    +0.000 A 
ATOM      2  C   UNL     1      -3.412  12.254  19.781  0.00  0.00    +0.000 A 
ATOM      3 BR   UNL     1      -1.522  12.354  19.866  0.00  0.00    +0.000 Br
ATOM      4  C   UNL     1      -4.204  12.870  20.771  0.00  0.00    +0.000 A 
ATOM      5  C   UNL     1      -3.928  13.760  21.828  0.00  0.00    +0.000 A 
ATOM      6  C   UNL     1      -4.912  14.041  22.782  0.00  0.00    +0.000 A 
ATOM      7  C   UNL     1      -6.174  13.453  22.674  0.00  0.00    +0.000 A 
ATOM      8  C   UNL     1      -6.503  12.671  21.548  0.00  0.00    +0.000 A 
ATOM      9  C   UNL     1      -5.496  12.383  20.602  0.00  0.00    +0.000 A 
ATOM     10  N   UNL     1      -5.482  11.606  19.443  0.00  0.00    +0.000 N 
ENDROOT
BRANCH   1  14
ATOM     11  C   UNL     1      -3.083  10.223  14.903  0.00  0.00    +0.000 A 
ATOM     12  C   UNL     1      -2.394   9.757  16.026  0.00  0.00    +0.000 A 
ATOM     13  C   UNL     1      -2.758  10.155  17.331  0.00  0.00    +0.000 A 
ATOM     14  C   UNL     1      -3.823  11.034  17.537  0.00  0.00    +0.000 A 
ATOM     15  C   UNL     1      -4.536  11.438  16.389  0.00  0.00    +0.000 A 
ATOM     16  C   UNL     1      -4.158  11.074  15.093  0.00  0.00    +0.000 A 
BRANCH  11  18
ATOM     17  C   UNL     1      -3.577   9.758  12.629  0.00  0.00    +0.000 C 
ATOM     18  O   UNL     1      -2.618   9.807  13.684  0.00  0.00    +0.000 OA
ENDBRANCH  11  18
ENDBRANCH   1  14
BRANCH   6  19
ATOM     19  C   UNL     1      -4.569  14.909  23.871  0.00  0.00    +0.000 C 
ATOM     20  N   UNL     1      -4.270  15.626  24.732  0.00  0.00    +0.000 NA
ENDBRANCH   6  19
BRANCH   7  21
ATOM     21  C   UNL     1      -7.132  13.574  23.738  0.00  0.00    +0.000 C 
ATOM     22  N   UNL     1      -7.916  13.615  24.593  0.00  0.00    +0.000 NA
ENDBRANCH   7  21
BRANCH  10  23
ATOM     23  O   UNL     1      -6.633  11.036  18.859  0.00  0.00    +0.000 OA
ATOM     24  C   UNL     1      -6.896   9.735  19.384  0.00  0.00    +0.000 C 
ENDBRANCH  10  23
TORSDOF 5
ENDMDL
MODEL 4
REMARK VINA RESULT:      -5.7      3.089      8.073
REMARK  Name = 
REMARK  7 active torsions:
REMARK  status: ('A' for Active; 'I' for Inactive)
REMARK    1  A    between atoms: C_1  and  O_2
REMARK    2  A    between atoms: O_2  and  C_3
REMARK    3  A    between atoms: C_6  and  C_7
REMARK    4  A    between atoms: C_12  and  C_13
REMARK    5  A    between atoms: C_15  and  C_16
REMARK    6  A    between atoms: N_20  and  O_21
REMARK    7  A    between atoms: O_21  and  C_22
REMARK                            x       y       z     vdW  Elec       q    Type
REMARK                         _______ _______ _______ _____ _____    ______ ____
ROOT
ATOM      1  C   UNL     1      -0.127  10.802  19.564  0.00  0.00    +0.000 A 
ATOM      2  C   UNL     1      -1.404  10.971  19.042  0.00  0.00    +0.000 A 
ATOM      3 BR   UNL     1      -2.204  10.138  17.540  0.00  0.00    +0.000 Br
ATOM      4  C   UNL     1      -2.115  11.936  19.784  0.00  0.00    +0.000 A 
ATOM      5  C   UNL     1      -3.455  12.372  19.789  0.00  0.00    +0.000 A 
ATOM      6  C   UNL     1      -3.818  13.511  20.516  0.00  0.00    +0.000 A 
ATOM      7  C   UNL     1      -2.855  14.203  21.252  0.00  0.00    +0.000 A 
ATOM      8  C   UNL     1      -1.543  13.699  21.364  0.00  0.00    +0.000 A 
ATOM      9  C   UNL     1      -1.186  12.558  20.613  0.00  0.00    +0.000 A 
ATOM     10  N   UNL     1       0.016  11.867  20.456  0.00  0.00    +0.000 N 
ENDROOT
BRANCH   1  14
ATOM     11  C   UNL     1       2.559   7.496  18.759  0.00  0.00    +0.000 A 
ATOM     12  C   UNL     1       2.339   8.468  17.779  0.00  0.00    +0.000 A 
ATOM     13  C   UNL     1       1.500   9.579  18.017  0.00  0.00    +0.000 A 
ATOM     14  C   UNL     1       0.860   9.737  19.248  0.00  0.00    +0.000 A 
ATOM     15  C   UNL     1       1.150   8.773  20.236  0.00  0.00    +0.000 A 
ATOM     16  C   UNL     1       1.952   7.654  19.993  0.00  0.00    +0.000 A 
BRANCH  11  18
ATOM     17  C   UNL     1       4.263   6.672  17.330  0.00  0.00    +0.000 C 
ATOM     18  O   UNL     1       3.354   6.440  18.405  0.00  0.00    +0.000 OA
ENDBRANCH  11  18
ENDBRANCH   1  14
BRANCH   6  19
ATOM     19  C   UNL     1      -5.182  13.950  20.447  0.00  0.00    +0.000 C 
ATOM     20  N   UNL     1      -6.288  14.299  20.423  0.00  0.00    +0.000 NA
ENDBRANCH   6  19
BRANCH   7  21
ATOM     21  C   UNL     1      -3.162  15.475  21.847  0.00  0.00    +0.000 C 
ATOM     22  N   UNL     1      -3.409  16.525  22.275  0.00  0.00    +0.000 NA
ENDBRANCH   7  21
BRANCH  10  23
ATOM     23  O   UNL     1       1.174  12.112  21.224  0.00  0.00    +0.000 OA
ATOM     24  C   UNL     1       2.038  13.050  20.581  0.00  0.00    +0.000 C 
ENDBRANCH  10  23
TORSDOF 5
ENDMDL
MODEL 5
REMARK VINA RESULT:      -5.6      2.784      7.848
REMARK  Name = 
REMARK  7 active torsions:
REMARK  status: ('A' for Active; 'I' for Inactive)
REMARK    1  A    between atoms: C_1  and  O_2
REMARK    2  A    between atoms: O_2  and  C_3
REMARK    3  A    between atoms: C_6  and  C_7
REMARK    4  A    between atoms: C_12  and  C_13
REMARK    5  A    between atoms: C_15  and  C_16
REMARK    6  A    between atoms: N_20  and  O_21
REMARK    7  A    between atoms: O_21  and  C_22
REMARK                            x       y       z     vdW  Elec       q    Type
REMARK                         _______ _______ _______ _____ _____    ______ ____
ROOT
ATOM      1  C   UNL     1      -0.019  10.186  20.201  0.00  0.00    +0.000 A 
ATOM      2  C   UNL     1      -0.270  10.417  21.549  0.00  0.00    +0.000 A 
ATOM      3 BR   UNL     1       0.320   9.441  23.062  0.00  0.00    +0.000 Br
ATOM      4  C   UNL     1      -1.111  11.537  21.708  0.00  0.00    +0.000 A 
ATOM      5  C   UNL     1      -1.545  12.283  22.822  0.00  0.00    +0.000 A 
ATOM      6  C   UNL     1      -2.559  13.235  22.676  0.00  0.00    +0.000 A 
ATOM      7  C   UNL     1      -3.127  13.460  21.421  0.00  0.00    +0.000 A 
ATOM      8  C   UNL     1      -2.608  12.819  20.277  0.00  0.00    +0.000 A 
ATOM      9  C   UNL     1      -1.596  11.849  20.442  0.00  0.00    +0.000 A 
ATOM     10  N   UNL     1      -0.934  11.012  19.543  0.00  0.00    +0.000 N 
ENDROOT
BRANCH   1  14
ATOM     11  C   UNL     1       2.743   7.297  18.525  0.00  0.00    +0.000 A 
ATOM     12  C   UNL     1       2.410   8.444  17.798  0.00  0.00    +0.000 A 
ATOM     13  C   UNL     1       1.543   9.425  18.327  0.00  0.00    +0.000 A 
ATOM     14  C   UNL     1       0.987   9.275  19.599  0.00  0.00    +0.000 A 
ATOM     15  C   UNL     1       1.391   8.139  20.331  0.00  0.00    +0.000 A 
ATOM     16  C   UNL     1       2.221   7.148  19.798  0.00  0.00    +0.000 A 
BRANCH  11  18
ATOM     17  C   UNL     1       3.053   5.060  17.798  0.00  0.00    +0.000 C 
ATOM     18  O   UNL     1       3.557   6.392  17.899  0.00  0.00    +0.000 OA
ENDBRANCH  11  18
ENDBRANCH   1  14
BRANCH   6  19
ATOM     19  C   UNL     1      -3.007  13.930  23.848  0.00  0.00    +0.000 C 
ATOM     20  N   UNL     1      -3.382  14.516  24.776  0.00  0.00    +0.000 NA
ENDBRANCH   6  19
BRANCH   7  21
ATOM     21  C   UNL     1      -4.293  14.288  21.282  0.00  0.00    +0.000 C 
ATOM     22  N   UNL     1      -5.263  14.912  21.149  0.00  0.00    +0.000 NA
ENDBRANCH   7  21
BRANCH  10  23
ATOM     23  O   UNL     1      -1.054  11.104  18.140  0.00  0.00    +0.000 OA
ATOM     24  C   UNL     1      -2.055  10.217  17.642  0.00  0.00    +0.000 C 
ENDBRANCH  10  23
TORSDOF 5
ENDMDL
MODEL 6
REMARK VINA RESULT:      -5.6      2.904      3.931
REMARK  Name = 
REMARK  7 active torsions:
REMARK  status: ('A' for Active; 'I' for Inactive)
REMARK    1  A    between atoms: C_1  and  O_2
REMARK    2  A    between atoms: O_2  and  C_3
REMARK    3  A    between atoms: C_6  and  C_7
REMARK    4  A    between atoms: C_12  and  C_13
REMARK    5  A    between atoms: C_15  and  C_16
REMARK    6  A    between atoms: N_20  and  O_21
REMARK    7  A    between atoms: O_21  and  C_22
REMARK                            x       y       z     vdW  Elec       q    Type
REMARK                         _______ _______ _______ _____ _____    ______ ____
ROOT
ATOM      1  C   UNL     1       1.520   9.014  19.291  0.00  0.00    +0.000 A 
ATOM      2  C   UNL     1       1.258   8.293  20.451  0.00  0.00    +0.000 A 
ATOM      3 BR   UNL     1       0.556   8.898  22.103  0.00  0.00    +0.000 Br
ATOM      4  C   UNL     1       1.628   6.943  20.284  0.00  0.00    +0.000 A 
ATOM      5  C   UNL     1       1.447   5.779  21.057  0.00  0.00    +0.000 A 
ATOM      6  C   UNL     1       2.117   4.599  20.714  0.00  0.00    +0.000 A 
ATOM      7  C   UNL     1       2.948   4.572  19.593  0.00  0.00    +0.000 A 
ATOM      8  C   UNL     1       3.029   5.689  18.736  0.00  0.00    +0.000 A 
ATOM      9  C   UNL     1       2.361   6.877  19.103  0.00  0.00    +0.000 A 
ATOM     10  N   UNL     1       2.297   8.144  18.522  0.00  0.00    +0.000 N 
ENDROOT
BRANCH   1  14
ATOM     11  C   UNL     1       0.027  13.008  18.509  0.00  0.00    +0.000 A 
ATOM     12  C   UNL     1       1.405  12.772  18.530  0.00  0.00    +0.000 A 
ATOM     13  C   UNL     1       1.927  11.478  18.744  0.00  0.00    +0.000 A 
ATOM     14  C   UNL     1       1.076  10.389  18.946  0.00  0.00    +0.000 A 
ATOM     15  C   UNL     1      -0.307  10.648  18.858  0.00  0.00    +0.000 A 
ATOM     16  C   UNL     1      -0.829  11.934  18.680  0.00  0.00    +0.000 A 
BRANCH  11  18
ATOM     17  C   UNL     1       0.496  15.303  18.881  0.00  0.00    +0.000 C 
ATOM     18  O   UNL     1      -0.368  14.307  18.337  0.00  0.00    +0.000 OA
ENDBRANCH  11  18
ENDBRANCH   1  14
BRANCH   6  19
ATOM     19  C   UNL     1       1.947   3.455  21.562  0.00  0.00    +0.000 C 
ATOM     20  N   UNL     1       1.787   2.546  22.265  0.00  0.00    +0.000 NA
ENDBRANCH   6  19
BRANCH   7  21
ATOM     21  C   UNL     1       3.790   3.437  19.333  0.00  0.00    +0.000 C 
ATOM     22  N   UNL     1       4.515   2.551  19.139  0.00  0.00    +0.000 NA
ENDBRANCH   7  21
BRANCH  10  23
ATOM     23  O   UNL     1       2.811   8.455  17.245  0.00  0.00    +0.000 OA
ATOM     24  C   UNL     1       4.043   7.777  16.999  0.00  0.00    +0.000 C 
ENDBRANCH  10  23
TORSDOF 5
ENDMDL
MODEL 7
REMARK VINA RESULT:      -5.6      2.305      2.830
REMARK  Name = 
REMARK  7 active torsions:
REMARK  status: ('A' for Active; 'I' for Inactive)
REMARK    1  A    between atoms: C_1  and  O_2
REMARK    2  A    between atoms: O_2  and  C_3
REMARK    3  A    between atoms: C_6  and  C_7
REMARK    4  A    between atoms: C_12  and  C_13
REMARK    5  A    between atoms: C_15  and  C_16
REMARK    6  A    between atoms: N_20  and  O_21
REMARK    7  A    between atoms: O_21  and  C_22
REMARK                            x       y       z     vdW  Elec       q    Type
REMARK                         _______ _______ _______ _____ _____    ______ ____
ROOT
ATOM      1  C   UNL     1       0.913   9.973  19.916  0.00  0.00    +0.000 A 
ATOM      2  C   UNL     1       0.903   9.067  20.971  0.00  0.00    +0.000 A 
ATOM      3 BR   UNL     1       0.434   9.347  22.785  0.00  0.00    +0.000 Br
ATOM      4  C   UNL     1       1.348   7.802  20.537  0.00  0.00    +0.000 A 
ATOM      5  C   UNL     1       1.390   6.525  21.131  0.00  0.00    +0.000 A 
ATOM      6  C   UNL     1       2.087   5.485  20.508  0.00  0.00    +0.000 A 
ATOM      7  C   UNL     1       2.724   5.708  19.286  0.00  0.00    +0.000 A 
ATOM      8  C   UNL     1       2.574   6.940  18.617  0.00  0.00    +0.000 A 
ATOM      9  C   UNL     1       1.882   7.986  19.265  0.00  0.00    +0.000 A 
ATOM     10  N   UNL     1       1.622   9.310  18.911  0.00  0.00    +0.000 N 
ENDROOT
BRANCH   1  14
ATOM     11  C   UNL     1      -0.569  14.043  19.745  0.00  0.00    +0.000 A 
ATOM     12  C   UNL     1      -1.193  13.043  18.993  0.00  0.00    +0.000 A 
ATOM     13  C   UNL     1      -0.762  11.700  19.052  0.00  0.00    +0.000 A 
ATOM     14  C   UNL     1       0.310  11.329  19.866  0.00  0.00    +0.000 A 
ATOM     15  C   UNL     1       0.879  12.349  20.658  0.00  0.00    +0.000 A 
ATOM     16  C   UNL     1       0.478  13.686  20.577  0.00  0.00    +0.000 A 
BRANCH  11  18
ATOM     17  C   UNL     1      -0.312  16.141  18.669  0.00  0.00    +0.000 C 
ATOM     18  O   UNL     1      -1.040  15.317  19.578  0.00  0.00    +0.000 OA
ENDBRANCH  11  18
ENDBRANCH   1  14
BRANCH   6  19
ATOM     19  C   UNL     1       2.150   4.218  21.177  0.00  0.00    +0.000 C 
ATOM     20  N   UNL     1       2.182   3.205  21.742  0.00  0.00    +0.000 NA
ENDBRANCH   6  19
BRANCH   7  21
ATOM     21  C   UNL     1       3.601   4.718  18.725  0.00  0.00    +0.000 C 
ATOM     22  N   UNL     1       4.339   3.960  18.246  0.00  0.00    +0.000 NA
ENDBRANCH   7  21
BRANCH  10  23
ATOM     23  O   UNL     1       1.894   9.856  17.638  0.00  0.00    +0.000 OA
ATOM     24  C   UNL     1       2.659  11.057  17.738  0.00  0.00    +0.000 C 
ENDBRANCH  10  23
TORSDOF 5
ENDMDL
MODEL 8
REMARK VINA RESULT:      -5.5      3.080      8.007
REMARK  Name = 
REMARK  7 active torsions:
REMARK  status: ('A' for Active; 'I' for Inactive)
REMARK    1  A    between atoms: C_1  and  O_2
REMARK    2  A    between atoms: O_2  and  C_3
REMARK    3  A    between atoms: C_6  and  C_7
REMARK    4  A    between atoms: C_12  and  C_13
REMARK    5  A    between atoms: C_15  and  C_16
REMARK    6  A    between atoms: N_20  and  O_21
REMARK    7  A    between atoms: O_21  and  C_22
REMARK                            x       y       z     vdW  Elec       q    Type
REMARK                         _______ _______ _______ _____ _____    ______ ____
ROOT
ATOM      1  C   UNL     1      -0.140  10.798  19.725  0.00  0.00    +0.000 A 
ATOM      2  C   UNL     1      -1.436  11.044  19.288  0.00  0.00    +0.000 A 
ATOM      3 BR   UNL     1      -2.413  10.200  17.901  0.00  0.00    +0.000 Br
ATOM      4  C   UNL     1      -2.009  12.105  20.020  0.00  0.00    +0.000 A 
ATOM      5  C   UNL     1      -3.305  12.651  20.095  0.00  0.00    +0.000 A 
ATOM      6  C   UNL     1      -3.521  13.854  20.776  0.00  0.00    +0.000 A 
ATOM      7  C   UNL     1      -2.452  14.503  21.397  0.00  0.00    +0.000 A 
ATOM      8  C   UNL     1      -1.179  13.897  21.444  0.00  0.00    +0.000 A 
ATOM      9  C   UNL     1      -0.973  12.692  20.740  0.00  0.00    +0.000 A 
ATOM     10  N   UNL     1       0.155  11.895  20.539  0.00  0.00    +0.000 N 
ENDROOT
BRANCH   1  14
ATOM     11  C   UNL     1       2.595   7.608  18.661  0.00  0.00    +0.000 A 
ATOM     12  C   UNL     1       2.029   7.642  19.938  0.00  0.00    +0.000 A 
ATOM     13  C   UNL     1       1.106   8.644  20.310  0.00  0.00    +0.000 A 
ATOM     14  C   UNL     1       0.732   9.639  19.404  0.00  0.00    +0.000 A 
ATOM     15  C   UNL     1       1.272   9.542  18.105  0.00  0.00    +0.000 A 
ATOM     16  C   UNL     1       2.212   8.572  17.744  0.00  0.00    +0.000 A 
BRANCH  11  18
ATOM     17  C   UNL     1       3.587   5.586  19.405  0.00  0.00    +0.000 C 
ATOM     18  O   UNL     1       3.510   6.618  18.423  0.00  0.00    +0.000 OA
ENDBRANCH  11  18
ENDBRANCH   1  14
BRANCH   6  19
ATOM     19  C   UNL     1      -4.847  14.400  20.779  0.00  0.00    +0.000 C 
ATOM     20  N   UNL     1      -5.913  14.856  20.753  0.00  0.00    +0.000 NA
ENDBRANCH   6  19
BRANCH   7  21
ATOM     21  C   UNL     1      -2.610  15.826  21.934  0.00  0.00    +0.000 C 
ATOM     22  N   UNL     1      -2.795  16.885  22.373  0.00  0.00    +0.000 NA
ENDBRANCH   7  21
BRANCH  10  23
ATOM     23  O   UNL     1       1.385  12.084  21.204  0.00  0.00    +0.000 OA
ATOM     24  C   UNL     1       2.205  13.035  20.526  0.00  0.00    +0.000 C 
ENDBRANCH  10  23
TORSDOF 5
ENDMDL
MODEL 9
REMARK VINA RESULT:      -5.5      3.172      8.173
REMARK  Name = 
REMARK  7 active torsions:
REMARK  status: ('A' for Active; 'I' for Inactive)
REMARK    1  A    between atoms: C_1  and  O_2
REMARK    2  A    between atoms: O_2  and  C_3
REMARK    3  A    between atoms: C_6  and  C_7
REMARK    4  A    between atoms: C_12  and  C_13
REMARK    5  A    between atoms: C_15  and  C_16
REMARK    6  A    between atoms: N_20  and  O_21
REMARK    7  A    between atoms: O_21  and  C_22
REMARK                            x       y       z     vdW  Elec       q    Type
REMARK                         _______ _______ _______ _____ _____    ______ ____
ROOT
ATOM      1  C   UNL     1      -0.182  10.633  20.367  0.00  0.00    +0.000 A 
ATOM      2  C   UNL     1      -1.161  11.428  19.782  0.00  0.00    +0.000 A 
ATOM      3 BR   UNL     1      -1.509  11.744  17.947  0.00  0.00    +0.000 Br
ATOM      4  C   UNL     1      -1.931  12.068  20.775  0.00  0.00    +0.000 A 
ATOM      5  C   UNL     1      -3.110  12.840  20.749  0.00  0.00    +0.000 A 
ATOM      6  C   UNL     1      -3.528  13.519  21.898  0.00  0.00    +0.000 A 
ATOM      7  C   UNL     1      -2.786  13.415  23.077  0.00  0.00    +0.000 A 
ATOM      8  C   UNL     1      -1.684  12.539  23.151  0.00  0.00    +0.000 A 
ATOM      9  C   UNL     1      -1.264  11.872  21.980  0.00  0.00    +0.000 A 
ATOM     10  N   UNL     1      -0.199  11.012  21.712  0.00  0.00    +0.000 N 
ENDROOT
BRANCH   1  14
ATOM     11  C   UNL     1       2.514   7.888  18.370  0.00  0.00    +0.000 A 
ATOM     12  C   UNL     1       2.072   7.609  19.667  0.00  0.00    +0.000 A 
ATOM     13  C   UNL     1       1.165   8.460  20.335  0.00  0.00    +0.000 A 
ATOM     14  C   UNL     1       0.683   9.615  19.716  0.00  0.00    +0.000 A 
ATOM     15  C   UNL     1       1.099   9.836  18.387  0.00  0.00    +0.000 A 
ATOM     16  C   UNL     1       2.023   9.015  17.734  0.00  0.00    +0.000 A 
BRANCH  11  18
ATOM     17  C   UNL     1       3.743   5.875  18.627  0.00  0.00    +0.000 C 
ATOM     18  O   UNL     1       3.426   7.019  17.835  0.00  0.00    +0.000 OA
ENDBRANCH  11  18
ENDBRANCH   1  14
BRANCH   6  19
ATOM     19  C   UNL     1      -4.703  14.337  21.810  0.00  0.00    +0.000 C 
ATOM     20  N   UNL     1      -5.662  14.987  21.769  0.00  0.00    +0.000 NA
ENDBRANCH   6  19
BRANCH   7  21
ATOM     21  C   UNL     1      -3.085  14.249  24.207  0.00  0.00    +0.000 C 
ATOM     22  N   UNL     1      -3.273  14.941  25.121  0.00  0.00    +0.000 NA
ENDBRANCH   7  21
BRANCH  10  23
ATOM     23  O   UNL     1       0.647  10.468  22.702  0.00  0.00    +0.000 OA
ATOM     24  C   UNL     1      -0.019   9.462  23.464  0.00  0.00    +0.000 C 
ENDBRANCH  10  23
TORSDOF 5
ENDMDL
