MODEL 1
REMARK VINA RESULT:      -7.6      0.000      0.000
REMARK  Name = 
REMARK  4 active torsions:
REMARK  status: ('A' for Active; 'I' for Inactive)
REMARK    1  A    between atoms: C_1  and  C_2
REMARK    2  A    between atoms: C_2  and  C_3
REMARK    3  A    between atoms: N_11  and  C_12
REMARK    4  A    between atoms: C_12  and  C_13
REMARK                            x       y       z     vdW  Elec       q    Type
REMARK                         _______ _______ _______ _____ _____    ______ ____
ROOT
ATOM      1  C   UNL     1       4.228   2.247  20.085  0.00  0.00    +0.000 C 
ATOM      2  C   UNL     1       3.346   3.259  19.342  0.00  0.00    +0.000 C 
ATOM      3  C   UNL     1       2.474   2.473  18.348  0.00  0.00    +0.000 C 
ATOM      4  O   UNL     1       2.409   3.775  20.306  0.00  0.00    +0.000 OA
ATOM      5  C   UNL     1       2.327   5.123  20.238  0.00  0.00    +0.000 C 
ATOM      6  O   UNL     1       1.440   5.782  20.762  0.00  0.00    +0.000 OA
ATOM      7  C   UNL     1       3.513   5.684  19.540  0.00  0.00    +0.000 C 
ATOM      8  C   UNL     1       4.105   4.505  18.750  0.00  0.00    +0.000 C 
ATOM      9  C   UNL     1       5.638   4.476  19.002  0.00  0.00    +0.000 C 
ATOM     10  C   UNL     1       6.378   5.606  18.276  0.00  0.00    +0.000 C 
ATOM     11  N   UNL     1       6.173   5.568  16.825  0.00  0.00    +0.000 NA
ATOM     12  C   UNL     1       4.742   5.752  16.547  0.00  0.00    +0.000 C 
ATOM     13  C   UNL     1       3.844   4.704  17.226  0.00  0.00    +0.000 C 
ENDROOT
BRANCH  11  14
ATOM     14  C   UNL     1       6.696   4.348  16.173  0.00  0.00    +0.000 C 
BRANCH  14  15
ATOM     15  C   UNL     1       6.814   4.410  14.664  0.00  0.00    +0.000 A 
ATOM     16  C   UNL     1       7.690   5.327  14.058  0.00  0.00    +0.000 A 
ATOM     17  C   UNL     1       7.838   5.365  12.671  0.00  0.00    +0.000 A 
ATOM     18  C   UNL     1       7.124   4.477  11.871  0.00  0.00    +0.000 A 
ATOM     19  C   UNL     1       6.250   3.562  12.458  0.00  0.00    +0.000 A 
ATOM     20  C   UNL     1       6.091   3.532  13.846  0.00  0.00    +0.000 A 
ENDBRANCH  14  15
ENDBRANCH  11  14
TORSDOF 2
ENDMDL
MODEL 2
REMARK VINA RESULT:      -7.5      0.174      1.089
REMARK  Name = 
REMARK  4 active torsions:
REMARK  status: ('A' for Active; 'I' for Inactive)
REMARK    1  A    between atoms: C_1  and  C_2
REMARK    2  A    between atoms: C_2  and  C_3
REMARK    3  A    between atoms: N_11  and  C_12
REMARK    4  A    between atoms: C_12  and  C_13
REMARK                            x       y       z     vdW  Elec       q    Type
REMARK                         _______ _______ _______ _____ _____    ______ ____
ROOT
ATOM      1  C   UNL     1       4.418   2.322  20.116  0.00  0.00    +0.000 C 
ATOM      2  C   UNL     1       3.496   3.243  19.306  0.00  0.00    +0.000 C 
ATOM      3  C   UNL     1       2.722   2.365  18.309  0.00  0.00    +0.000 C 
ATOM      4  O   UNL     1       2.488   3.720  20.217  0.00  0.00    +0.000 OA
ATOM      5  C   UNL     1       2.313   5.056  20.100  0.00  0.00    +0.000 C 
ATOM      6  O   UNL     1       1.362   5.665  20.568  0.00  0.00    +0.000 OA
ATOM      7  C   UNL     1       3.482   5.679  19.427  0.00  0.00    +0.000 C 
ATOM      8  C   UNL     1       4.188   4.521  18.700  0.00  0.00    +0.000 C 
ATOM      9  C   UNL     1       5.708   4.612  19.009  0.00  0.00    +0.000 C 
ATOM     10  C   UNL     1       6.393   5.769  18.273  0.00  0.00    +0.000 C 
ATOM     11  N   UNL     1       6.249   5.670  16.817  0.00  0.00    +0.000 NA
ATOM     12  C   UNL     1       4.820   5.740  16.480  0.00  0.00    +0.000 C 
ATOM     13  C   UNL     1       3.973   4.653  17.162  0.00  0.00    +0.000 C 
ENDROOT
BRANCH  11  14
ATOM     14  C   UNL     1       6.882   4.470  16.228  0.00  0.00    +0.000 C 
BRANCH  14  15
ATOM     15  C   UNL     1       6.923   4.428  14.714  0.00  0.00    +0.000 A 
ATOM     16  C   UNL     1       6.065   3.570  14.005  0.00  0.00    +0.000 A 
ATOM     17  C   UNL     1       6.064   3.553  12.609  0.00  0.00    +0.000 A 
ATOM     18  C   UNL     1       6.910   4.404  11.903  0.00  0.00    +0.000 A 
ATOM     19  C   UNL     1       7.766   5.261  12.593  0.00  0.00    +0.000 A 
ATOM     20  C   UNL     1       7.778   5.269  13.990  0.00  0.00    +0.000 A 
ENDBRANCH  14  15
ENDBRANCH  11  14
TORSDOF 2
ENDMDL
MODEL 3
REMARK VINA RESULT:      -7.0      3.500      7.139
REMARK  Name = 
REMARK  4 active torsions:
REMARK  status: ('A' for Active; 'I' for Inactive)
REMARK    1  A    between atoms: C_1  and  C_2
REMARK    2  A    between atoms: C_2  and  C_3
REMARK    3  A    between atoms: N_11  and  C_12
REMARK    4  A    between atoms: C_12  and  C_13
REMARK                            x       y       z     vdW  Elec       q    Type
REMARK                         _______ _______ _______ _____ _____    ______ ____
ROOT
ATOM      1  C   UNL     1       7.652   5.590  19.097  0.00  0.00    +0.000 C 
ATOM      2  C   UNL     1       6.957   5.970  17.783  0.00  0.00    +0.000 C 
ATOM      3  C   UNL     1       7.319   7.431  17.472  0.00  0.00    +0.000 C 
ATOM      4  O   UNL     1       7.604   5.214  16.741  0.00  0.00    +0.000 OA
ATOM      5  C   UNL     1       6.699   4.633  15.921  0.00  0.00    +0.000 C 
ATOM      6  O   UNL     1       6.972   4.152  14.831  0.00  0.00    +0.000 OA
ATOM      7  C   UNL     1       5.366   4.568  16.576  0.00  0.00    +0.000 C 
ATOM      8  C   UNL     1       5.426   5.611  17.705  0.00  0.00    +0.000 C 
ATOM      9  C   UNL     1       4.874   4.954  19.000  0.00  0.00    +0.000 C 
ATOM     10  C   UNL     1       3.353   4.768  18.968  0.00  0.00    +0.000 C 
ATOM     11  N   UNL     1       2.638   6.034  18.783  0.00  0.00    +0.000 NA
ATOM     12  C   UNL     1       3.022   6.607  17.486  0.00  0.00    +0.000 C 
ATOM     13  C   UNL     1       4.535   6.838  17.340  0.00  0.00    +0.000 C 
ENDROOT
BRANCH  11  14
ATOM     14  C   UNL     1       2.837   7.006  19.881  0.00  0.00    +0.000 C 
BRANCH  14  15
ATOM     15  C   UNL     1       1.719   8.010  20.078  0.00  0.00    +0.000 A 
ATOM     16  C   UNL     1       0.957   8.000  21.259  0.00  0.00    +0.000 A 
ATOM     17  C   UNL     1      -0.047   8.946  21.470  0.00  0.00    +0.000 A 
ATOM     18  C   UNL     1      -0.293   9.924  20.510  0.00  0.00    +0.000 A 
ATOM     19  C   UNL     1       0.456   9.946  19.333  0.00  0.00    +0.000 A 
ATOM     20  C   UNL     1       1.452   8.991  19.115  0.00  0.00    +0.000 A 
ENDBRANCH  14  15
ENDBRANCH  11  14
TORSDOF 2
ENDMDL
MODEL 4
REMARK VINA RESULT:      -6.9      1.176      2.123
REMARK  Name = 
REMARK  4 active torsions:
REMARK  status: ('A' for Active; 'I' for Inactive)
REMARK    1  A    between atoms: C_1  and  C_2
REMARK    2  A    between atoms: C_2  and  C_3
REMARK    3  A    between atoms: N_11  and  C_12
REMARK    4  A    between atoms: C_12  and  C_13
REMARK                            x       y       z     vdW  Elec       q    Type
REMARK                         _______ _______ _______ _____ _____    ______ ____
ROOT
ATOM      1  C   UNL     1       1.340   4.496  17.808  0.00  0.00    +0.000 C 
ATOM      2  C   UNL     1       2.354   4.747  18.932  0.00  0.00    +0.000 C 
ATOM      3  C   UNL     1       2.274   6.237  19.305  0.00  0.00    +0.000 C 
ATOM      4  O   UNL     1       1.855   4.062  20.097  0.00  0.00    +0.000 OA
ATOM      5  C   UNL     1       2.831   3.345  20.699  0.00  0.00    +0.000 C 
ATOM      6  O   UNL     1       2.742   2.879  21.826  0.00  0.00    +0.000 OA
ATOM      7  C   UNL     1       3.964   3.115  19.765  0.00  0.00    +0.000 C 
ATOM      8  C   UNL     1       3.800   4.183  18.669  0.00  0.00    +0.000 C 
ATOM      9  C   UNL     1       3.956   3.487  17.289  0.00  0.00    +0.000 C 
ATOM     10  C   UNL     1       5.407   3.096  16.984  0.00  0.00    +0.000 C 
ATOM     11  N   UNL     1       6.312   4.249  16.996  0.00  0.00    +0.000 NA
ATOM     12  C   UNL     1       6.306   4.838  18.342  0.00  0.00    +0.000 C 
ATOM     13  C   UNL     1       4.909   5.269  18.819  0.00  0.00    +0.000 C 
ENDROOT
BRANCH  11  14
ATOM     14  C   UNL     1       6.010   5.264  15.963  0.00  0.00    +0.000 C 
BRANCH  14  15
ATOM     15  C   UNL     1       6.347   4.871  14.540  0.00  0.00    +0.000 A 
ATOM     16  C   UNL     1       7.479   5.409  13.904  0.00  0.00    +0.000 A 
ATOM     17  C   UNL     1       7.822   5.022  12.607  0.00  0.00    +0.000 A 
ATOM     18  C   UNL     1       7.048   4.081  11.935  0.00  0.00    +0.000 A 
ATOM     19  C   UNL     1       5.922   3.538  12.553  0.00  0.00    +0.000 A 
ATOM     20  C   UNL     1       5.569   3.935  13.845  0.00  0.00    +0.000 A 
ENDBRANCH  14  15
ENDBRANCH  11  14
TORSDOF 2
ENDMDL
MODEL 5
REMARK VINA RESULT:      -6.9      3.501      7.123
REMARK  Name = 
REMARK  4 active torsions:
REMARK  status: ('A' for Active; 'I' for Inactive)
REMARK    1  A    between atoms: C_1  and  C_2
REMARK    2  A    between atoms: C_2  and  C_3
REMARK    3  A    between atoms: N_11  and  C_12
REMARK    4  A    between atoms: C_12  and  C_13
REMARK                            x       y       z     vdW  Elec       q    Type
REMARK                         _______ _______ _______ _____ _____    ______ ____
ROOT
ATOM      1  C   UNL     1       7.590   5.404  18.990  0.00  0.00    +0.000 C 
ATOM      2  C   UNL     1       6.934   5.900  17.694  0.00  0.00    +0.000 C 
ATOM      3  C   UNL     1       7.375   7.357  17.479  0.00  0.00    +0.000 C 
ATOM      4  O   UNL     1       7.557   5.176  16.615  0.00  0.00    +0.000 OA
ATOM      5  C   UNL     1       6.635   4.695  15.751  0.00  0.00    +0.000 C 
ATOM      6  O   UNL     1       6.899   4.268  14.636  0.00  0.00    +0.000 OA
ATOM      7  C   UNL     1       5.291   4.660  16.385  0.00  0.00    +0.000 C 
ATOM      8  C   UNL     1       5.388   5.627  17.578  0.00  0.00    +0.000 C 
ATOM      9  C   UNL     1       4.784   4.921  18.823  0.00  0.00    +0.000 C 
ATOM     10  C   UNL     1       3.256   4.818  18.762  0.00  0.00    +0.000 C 
ATOM     11  N   UNL     1       2.610   6.128  18.648  0.00  0.00    +0.000 NA
ATOM     12  C   UNL     1       3.042   6.759  17.393  0.00  0.00    +0.000 C 
ATOM     13  C   UNL     1       4.567   6.919  17.279  0.00  0.00    +0.000 C 
ENDROOT
BRANCH  11  14
ATOM     14  C   UNL     1       2.843   7.019  19.806  0.00  0.00    +0.000 C 
BRANCH  14  15
ATOM     15  C   UNL     1       1.742   8.018  20.096  0.00  0.00    +0.000 A 
ATOM     16  C   UNL     1       1.437   9.028  19.167  0.00  0.00    +0.000 A 
ATOM     17  C   UNL     1       0.397   9.928  19.404  0.00  0.00    +0.000 A 
ATOM     18  C   UNL     1      -0.362   9.822  20.566  0.00  0.00    +0.000 A 
ATOM     19  C   UNL     1      -0.071   8.825  21.497  0.00  0.00    +0.000 A 
ATOM     20  C   UNL     1       0.978   7.932  21.268  0.00  0.00    +0.000 A 
ENDBRANCH  14  15
ENDBRANCH  11  14
TORSDOF 2
ENDMDL
MODEL 6
REMARK VINA RESULT:      -6.9      3.248      6.246
REMARK  Name = 
REMARK  4 active torsions:
REMARK  status: ('A' for Active; 'I' for Inactive)
REMARK    1  A    between atoms: C_1  and  C_2
REMARK    2  A    between atoms: C_2  and  C_3
REMARK    3  A    between atoms: N_11  and  C_12
REMARK    4  A    between atoms: C_12  and  C_13
REMARK                            x       y       z     vdW  Elec       q    Type
REMARK                         _______ _______ _______ _____ _____    ______ ____
ROOT
ATOM      1  C   UNL     1       8.399   4.432  18.043  0.00  0.00    +0.000 C 
ATOM      2  C   UNL     1       7.433   5.556  18.443  0.00  0.00    +0.000 C 
ATOM      3  C   UNL     1       7.330   5.555  19.977  0.00  0.00    +0.000 C 
ATOM      4  O   UNL     1       8.094   6.797  18.131  0.00  0.00    +0.000 OA
ATOM      5  C   UNL     1       7.267   7.642  17.476  0.00  0.00    +0.000 C 
ATOM      6  O   UNL     1       7.491   8.834  17.318  0.00  0.00    +0.000 OA
ATOM      7  C   UNL     1       6.119   6.901  16.890  0.00  0.00    +0.000 C 
ATOM      8  C   UNL     1       6.065   5.573  17.665  0.00  0.00    +0.000 C 
ATOM      9  C   UNL     1       5.919   4.419  16.635  0.00  0.00    +0.000 C 
ATOM     10  C   UNL     1       4.520   4.355  16.012  0.00  0.00    +0.000 C 
ATOM     11  N   UNL     1       3.467   4.179  17.016  0.00  0.00    +0.000 NA
ATOM     12  C   UNL     1       3.477   5.340  17.917  0.00  0.00    +0.000 C 
ATOM     13  C   UNL     1       4.829   5.566  18.615  0.00  0.00    +0.000 C 
ENDROOT
BRANCH  11  14
ATOM     14  C   UNL     1       3.560   2.911  17.772  0.00  0.00    +0.000 C 
BRANCH  14  15
ATOM     15  C   UNL     1       2.760   2.855  19.058  0.00  0.00    +0.000 A 
ATOM     16  C   UNL     1       3.408   2.649  20.288  0.00  0.00    +0.000 A 
ATOM     17  C   UNL     1       2.687   2.637  21.483  0.00  0.00    +0.000 A 
ATOM     18  C   UNL     1       1.311   2.846  21.466  0.00  0.00    +0.000 A 
ATOM     19  C   UNL     1       0.654   3.051  20.253  0.00  0.00    +0.000 A 
ATOM     20  C   UNL     1       1.373   3.049  19.055  0.00  0.00    +0.000 A 
ENDBRANCH  14  15
ENDBRANCH  11  14
TORSDOF 2
ENDMDL
MODEL 7
REMARK VINA RESULT:      -6.9      3.263      6.317
REMARK  Name = 
REMARK  4 active torsions:
REMARK  status: ('A' for Active; 'I' for Inactive)
REMARK    1  A    between atoms: C_1  and  C_2
REMARK    2  A    between atoms: C_2  and  C_3
REMARK    3  A    between atoms: N_11  and  C_12
REMARK    4  A    between atoms: C_12  and  C_13
REMARK                            x       y       z     vdW  Elec       q    Type
REMARK                         _______ _______ _______ _____ _____    ______ ____
ROOT
ATOM      1  C   UNL     1       8.360   4.398  18.004  0.00  0.00    +0.000 C 
ATOM      2  C   UNL     1       7.423   5.540  18.419  0.00  0.00    +0.000 C 
ATOM      3  C   UNL     1       7.343   5.541  19.955  0.00  0.00    +0.000 C 
ATOM      4  O   UNL     1       8.104   6.768  18.098  0.00  0.00    +0.000 OA
ATOM      5  C   UNL     1       7.284   7.630  17.455  0.00  0.00    +0.000 C 
ATOM      6  O   UNL     1       7.528   8.817  17.294  0.00  0.00    +0.000 OA
ATOM      7  C   UNL     1       6.112   6.912  16.886  0.00  0.00    +0.000 C 
ATOM      8  C   UNL     1       6.043   5.586  17.661  0.00  0.00    +0.000 C 
ATOM      9  C   UNL     1       5.859   4.435  16.634  0.00  0.00    +0.000 C 
ATOM     10  C   UNL     1       4.450   4.399  16.032  0.00  0.00    +0.000 C 
ATOM     11  N   UNL     1       3.409   4.243  17.052  0.00  0.00    +0.000 NA
ATOM     12  C   UNL     1       3.455   5.403  17.953  0.00  0.00    +0.000 C 
ATOM     13  C   UNL     1       4.822   5.602  18.630  0.00  0.00    +0.000 C 
ENDROOT
BRANCH  11  14
ATOM     14  C   UNL     1       3.488   2.973  17.807  0.00  0.00    +0.000 C 
BRANCH  14  15
ATOM     15  C   UNL     1       2.735   2.944  19.121  0.00  0.00    +0.000 A 
ATOM     16  C   UNL     1       1.347   3.157  19.148  0.00  0.00    +0.000 A 
ATOM     17  C   UNL     1       0.636   3.091  20.349  0.00  0.00    +0.000 A 
ATOM     18  C   UNL     1       1.302   2.797  21.535  0.00  0.00    +0.000 A 
ATOM     19  C   UNL     1       2.680   2.583  21.523  0.00  0.00    +0.000 A 
ATOM     20  C   UNL     1       3.395   2.663  20.325  0.00  0.00    +0.000 A 
ENDBRANCH  14  15
ENDBRANCH  11  14
TORSDOF 2
ENDMDL
MODEL 8
REMARK VINA RESULT:      -6.9      1.198      2.378
REMARK  Name = 
REMARK  4 active torsions:
REMARK  status: ('A' for Active; 'I' for Inactive)
REMARK    1  A    between atoms: C_1  and  C_2
REMARK    2  A    between atoms: C_2  and  C_3
REMARK    3  A    between atoms: N_11  and  C_12
REMARK    4  A    between atoms: C_12  and  C_13
REMARK                            x       y       z     vdW  Elec       q    Type
REMARK                         _______ _______ _______ _____ _____    ______ ____
ROOT
ATOM      1  C   UNL     1       1.234   4.463  17.763  0.00  0.00    +0.000 C 
ATOM      2  C   UNL     1       2.241   4.741  18.886  0.00  0.00    +0.000 C 
ATOM      3  C   UNL     1       2.160   6.239  19.223  0.00  0.00    +0.000 C 
ATOM      4  O   UNL     1       1.735   4.083  20.064  0.00  0.00    +0.000 OA
ATOM      5  C   UNL     1       2.707   3.382  20.690  0.00  0.00    +0.000 C 
ATOM      6  O   UNL     1       2.611   2.943  21.827  0.00  0.00    +0.000 OA
ATOM      7  C   UNL     1       3.846   3.129  19.768  0.00  0.00    +0.000 C 
ATOM      8  C   UNL     1       3.689   4.170  18.646  0.00  0.00    +0.000 C 
ATOM      9  C   UNL     1       3.853   3.442  17.284  0.00  0.00    +0.000 C 
ATOM     10  C   UNL     1       5.305   3.043  16.998  0.00  0.00    +0.000 C 
ATOM     11  N   UNL     1       6.211   4.196  16.987  0.00  0.00    +0.000 NA
ATOM     12  C   UNL     1       6.197   4.817  18.319  0.00  0.00    +0.000 C 
ATOM     13  C   UNL     1       4.797   5.260  18.777  0.00  0.00    +0.000 C 
ENDROOT
BRANCH  11  14
ATOM     14  C   UNL     1       5.916   5.186  15.929  0.00  0.00    +0.000 C 
BRANCH  14  15
ATOM     15  C   UNL     1       6.352   4.800  14.530  0.00  0.00    +0.000 A 
ATOM     16  C   UNL     1       5.607   3.869  13.787  0.00  0.00    +0.000 A 
ATOM     17  C   UNL     1       5.975   3.537  12.482  0.00  0.00    +0.000 A 
ATOM     18  C   UNL     1       7.084   4.142  11.897  0.00  0.00    +0.000 A 
ATOM     19  C   UNL     1       7.833   5.068  12.623  0.00  0.00    +0.000 A 
ATOM     20  C   UNL     1       7.474   5.390  13.934  0.00  0.00    +0.000 A 
ENDBRANCH  14  15
ENDBRANCH  11  14
TORSDOF 2
ENDMDL
MODEL 9
REMARK VINA RESULT:      -6.8      2.056      3.079
REMARK  Name = 
REMARK  4 active torsions:
REMARK  status: ('A' for Active; 'I' for Inactive)
REMARK    1  A    between atoms: C_1  and  C_2
REMARK    2  A    between atoms: C_2  and  C_3
REMARK    3  A    between atoms: N_11  and  C_12
REMARK    4  A    between atoms: C_12  and  C_13
REMARK                            x       y       z     vdW  Elec       q    Type
REMARK                         _______ _______ _______ _____ _____    ______ ____
ROOT
ATOM      1  C   UNL     1       2.847   1.628  18.411  0.00  0.00    +0.000 C 
ATOM      2  C   UNL     1       1.915   2.561  19.197  0.00  0.00    +0.000 C 
ATOM      3  C   UNL     1       0.596   2.665  18.415  0.00  0.00    +0.000 C 
ATOM      4  O   UNL     1       1.558   1.862  20.406  0.00  0.00    +0.000 OA
ATOM      5  C   UNL     1       1.677   2.663  21.488  0.00  0.00    +0.000 C 
ATOM      6  O   UNL     1       1.207   2.404  22.587  0.00  0.00    +0.000 OA
ATOM      7  C   UNL     1       2.544   3.832  21.182  0.00  0.00    +0.000 C 
ATOM      8  C   UNL     1       2.556   3.927  19.647  0.00  0.00    +0.000 C 
ATOM      9  C   UNL     1       4.029   4.106  19.185  0.00  0.00    +0.000 C 
ATOM     10  C   UNL     1       4.577   5.506  19.486  0.00  0.00    +0.000 C 
ATOM     11  N   UNL     1       3.789   6.564  18.848  0.00  0.00    +0.000 NA
ATOM     12  C   UNL     1       2.421   6.521  19.385  0.00  0.00    +0.000 C 
ATOM     13  C   UNL     1       1.725   5.164  19.187  0.00  0.00    +0.000 C 
ENDROOT
BRANCH  11  14
ATOM     14  C   UNL     1       3.788   6.511  17.370  0.00  0.00    +0.000 C 
BRANCH  14  15
ATOM     15  C   UNL     1       4.980   5.819  16.739  0.00  0.00    +0.000 A 
ATOM     16  C   UNL     1       4.801   4.653  15.976  0.00  0.00    +0.000 A 
ATOM     17  C   UNL     1       5.886   4.031  15.355  0.00  0.00    +0.000 A 
ATOM     18  C   UNL     1       7.161   4.575  15.477  0.00  0.00    +0.000 A 
ATOM     19  C   UNL     1       7.354   5.732  16.232  0.00  0.00    +0.000 A 
ATOM     20  C   UNL     1       6.272   6.347  16.865  0.00  0.00    +0.000 A 
ENDBRANCH  14  15
ENDBRANCH  11  14
TORSDOF 2
ENDMDL
