MODEL 1
REMARK VINA RESULT:      -7.6      0.000      0.000
REMARK  Name = 
REMARK  11 active torsions:
REMARK  status: ('A' for Active; 'I' for Inactive)
REMARK    1  A    between atoms: C_1  and  C_2
REMARK    2  A    between atoms: C_2  and  N_3
REMARK    3  A    between atoms: C_2  and  C_16
REMARK    4  A    between atoms: C_4  and  O_6
REMARK    5  A    between atoms: O_6  and  C_7
REMARK    6  A    between atoms: C_7  and  C_8
REMARK    7  A    between atoms: C_12  and  O_13
REMARK    8  A    between atoms: C_16  and  O_18
REMARK    9  A    between atoms: O_18  and  C_19
REMARK   10  A    between atoms: C_19  and  C_20
REMARK   11  A    between atoms: C_24  and  O_25
REMARK                            x       y       z     vdW  Elec       q    Type
REMARK                         _______ _______ _______ _____ _____    ______ ____
ROOT
ATOM      1  C   UNL     1       4.894   6.931  16.075  0.00  0.00    +0.000 C 
ATOM      2  C   UNL     1       6.176   6.635  16.860  0.00  0.00    +0.000 C 
ENDROOT
BRANCH   2   3
ATOM      3  N   UNL     1       7.033   7.813  16.960  0.00  0.00    +0.000 N 
ATOM      4  C   UNL     1       7.983   7.954  17.918  0.00  0.00    +0.000 C 
ATOM      5  O   UNL     1       8.254   7.108  18.756  0.00  0.00    +0.000 OA
ATOM      6  H   UNL     1       6.933   8.558  16.281  0.00  0.00    +0.000 HD
BRANCH   4   7
ATOM      7  O   UNL     1       8.527   9.193  17.850  0.00  0.00    +0.000 OA
BRANCH   7   8
ATOM      8  C   UNL     1       8.962   9.711  19.115  0.00  0.00    +0.000 C 
BRANCH   8   9
ATOM      9  C   UNL     1       9.879  10.900  19.012  0.00  0.00    +0.000 A 
ATOM     10  C   UNL     1      10.271  11.457  17.851  0.00  0.00    +0.000 A 
ATOM     11  C   UNL     1      11.150  12.636  17.885  0.00  0.00    +0.000 A 
ATOM     12  O   UNL     1      11.535  13.193  16.865  0.00  0.00    +0.000 OA
ATOM     13  C   UNL     1      11.546  13.156  19.216  0.00  0.00    +0.000 A 
ATOM     14  C   UNL     1      11.093  12.506  20.290  0.00  0.00    +0.000 A 
ATOM     15  O   UNL     1      10.289  11.391  20.250  0.00  0.00    +0.000 OA
BRANCH  13  16
ATOM     16  O   UNL     1      12.333  14.281  19.291  0.00  0.00    +0.000 OA
ATOM     17  H   UNL     1      11.761  15.013  18.975  0.00  0.00    +0.000 HD
ENDBRANCH  13  16
ENDBRANCH   8   9
ENDBRANCH   7   8
ENDBRANCH   4   7
ENDBRANCH   2   3
BRANCH   2  18
ATOM     18  C   UNL     1       6.900   5.459  16.199  0.00  0.00    +0.000 C 
ATOM     19  O   UNL     1       7.650   5.579  15.244  0.00  0.00    +0.000 OA
BRANCH  18  20
ATOM     20  O   UNL     1       6.631   4.278  16.831  0.00  0.00    +0.000 OA
BRANCH  20  21
ATOM     21  C   UNL     1       5.502   3.548  16.334  0.00  0.00    +0.000 C 
BRANCH  21  22
ATOM     22  C   UNL     1       4.413   3.542  17.375  0.00  0.00    +0.000 A 
ATOM     23  C   UNL     1       3.113   3.487  17.044  0.00  0.00    +0.000 A 
ATOM     24  C   UNL     1       2.097   3.540  18.109  0.00  0.00    +0.000 A 
ATOM     25  O   UNL     1       0.896   3.497  17.872  0.00  0.00    +0.000 OA
ATOM     26  C   UNL     1       2.589   3.660  19.502  0.00  0.00    +0.000 A 
ATOM     27  C   UNL     1       3.910   3.707  19.693  0.00  0.00    +0.000 A 
ATOM     28  O   UNL     1       4.853   3.648  18.691  0.00  0.00    +0.000 OA
BRANCH  26  29
ATOM     29  O   UNL     1       1.678   3.726  20.533  0.00  0.00    +0.000 OA
ATOM     30  H   UNL     1       2.210   3.940  21.329  0.00  0.00    +0.000 HD
ENDBRANCH  26  29
ENDBRANCH  21  22
ENDBRANCH  20  21
ENDBRANCH  18  20
ENDBRANCH   2  18
TORSDOF 10
ENDMDL
MODEL 2
REMARK VINA RESULT:      -7.6      1.156      1.533
REMARK  Name = 
REMARK  11 active torsions:
REMARK  status: ('A' for Active; 'I' for Inactive)
REMARK    1  A    between atoms: C_1  and  C_2
REMARK    2  A    between atoms: C_2  and  N_3
REMARK    3  A    between atoms: C_2  and  C_16
REMARK    4  A    between atoms: C_4  and  O_6
REMARK    5  A    between atoms: O_6  and  C_7
REMARK    6  A    between atoms: C_7  and  C_8
REMARK    7  A    between atoms: C_12  and  O_13
REMARK    8  A    between atoms: C_16  and  O_18
REMARK    9  A    between atoms: O_18  and  C_19
REMARK   10  A    between atoms: C_19  and  C_20
REMARK   11  A    between atoms: C_24  and  O_25
REMARK                            x       y       z     vdW  Elec       q    Type
REMARK                         _______ _______ _______ _____ _____    ______ ____
ROOT
ATOM      1  C   UNL     1       4.269   7.179  17.226  0.00  0.00    +0.000 C 
ATOM      2  C   UNL     1       5.721   6.690  17.216  0.00  0.00    +0.000 C 
ENDROOT
BRANCH   2   3
ATOM      3  N   UNL     1       6.664   7.801  17.130  0.00  0.00    +0.000 N 
ATOM      4  C   UNL     1       7.794   7.867  17.879  0.00  0.00    +0.000 C 
ATOM      5  O   UNL     1       8.163   7.000  18.656  0.00  0.00    +0.000 OA
ATOM      6  H   UNL     1       6.486   8.554  16.477  0.00  0.00    +0.000 HD
BRANCH   4   7
ATOM      7  O   UNL     1       8.403   9.063  17.690  0.00  0.00    +0.000 OA
BRANCH   7   8
ATOM      8  C   UNL     1       8.952   9.634  18.886  0.00  0.00    +0.000 C 
BRANCH   8   9
ATOM      9  C   UNL     1       9.522  11.015  18.704  0.00  0.00    +0.000 A 
ATOM     10  C   UNL     1      10.348  11.368  17.702  0.00  0.00    +0.000 A 
ATOM     11  C   UNL     1      10.818  12.760  17.619  0.00  0.00    +0.000 A 
ATOM     12  O   UNL     1      11.564  13.146  16.729  0.00  0.00    +0.000 OA
ATOM     13  C   UNL     1      10.333  13.708  18.653  0.00  0.00    +0.000 A 
ATOM     14  C   UNL     1       9.522  13.227  19.596  0.00  0.00    +0.000 A 
ATOM     15  O   UNL     1       9.105  11.919  19.680  0.00  0.00    +0.000 OA
BRANCH  13  16
ATOM     16  O   UNL     1      10.715  15.027  18.586  0.00  0.00    +0.000 OA
ATOM     17  H   UNL     1      10.207  15.474  19.296  0.00  0.00    +0.000 HD
ENDBRANCH  13  16
ENDBRANCH   8   9
ENDBRANCH   7   8
ENDBRANCH   4   7
ENDBRANCH   2   3
BRANCH   2  18
ATOM     18  C   UNL     1       5.901   5.700  16.062  0.00  0.00    +0.000 C 
ATOM     19  O   UNL     1       6.867   5.701  15.317  0.00  0.00    +0.000 OA
BRANCH  18  20
ATOM     20  O   UNL     1       4.873   4.803  15.998  0.00  0.00    +0.000 OA
BRANCH  20  21
ATOM     21  C   UNL     1       5.016   3.630  16.811  0.00  0.00    +0.000 C 
BRANCH  21  22
ATOM     22  C   UNL     1       3.892   3.573  17.810  0.00  0.00    +0.000 A 
ATOM     23  C   UNL     1       4.071   3.110  19.057  0.00  0.00    +0.000 A 
ATOM     24  C   UNL     1       2.917   3.030  19.968  0.00  0.00    +0.000 A 
ATOM     25  O   UNL     1       3.015   2.615  21.117  0.00  0.00    +0.000 OA
ATOM     26  C   UNL     1       1.606   3.466  19.432  0.00  0.00    +0.000 A 
ATOM     27  C   UNL     1       1.565   3.904  18.171  0.00  0.00    +0.000 A 
ATOM     28  O   UNL     1       2.653   3.984  17.329  0.00  0.00    +0.000 OA
BRANCH  26  29
ATOM     29  O   UNL     1       0.493   3.398  20.240  0.00  0.00    +0.000 OA
ATOM     30  H   UNL     1       0.075   2.537  20.027  0.00  0.00    +0.000 HD
ENDBRANCH  26  29
ENDBRANCH  21  22
ENDBRANCH  20  21
ENDBRANCH  18  20
ENDBRANCH   2  18
TORSDOF 10
ENDMDL
MODEL 3
REMARK VINA RESULT:      -7.5      4.418      6.398
REMARK  Name = 
REMARK  11 active torsions:
REMARK  status: ('A' for Active; 'I' for Inactive)
REMARK    1  A    between atoms: C_1  and  C_2
REMARK    2  A    between atoms: C_2  and  N_3
REMARK    3  A    between atoms: C_2  and  C_16
REMARK    4  A    between atoms: C_4  and  O_6
REMARK    5  A    between atoms: O_6  and  C_7
REMARK    6  A    between atoms: C_7  and  C_8
REMARK    7  A    between atoms: C_12  and  O_13
REMARK    8  A    between atoms: C_16  and  O_18
REMARK    9  A    between atoms: O_18  and  C_19
REMARK   10  A    between atoms: C_19  and  C_20
REMARK   11  A    between atoms: C_24  and  O_25
REMARK                            x       y       z     vdW  Elec       q    Type
REMARK                         _______ _______ _______ _____ _____    ______ ____
ROOT
ATOM      1  C   UNL     1       7.990   7.081  18.365  0.00  0.00    +0.000 C 
ATOM      2  C   UNL     1       7.076   6.318  17.401  0.00  0.00    +0.000 C 
ENDROOT
BRANCH   2   3
ATOM      3  N   UNL     1       5.688   6.758  17.511  0.00  0.00    +0.000 N 
ATOM      4  C   UNL     1       4.893   6.966  16.431  0.00  0.00    +0.000 C 
ATOM      5  O   UNL     1       5.229   6.766  15.274  0.00  0.00    +0.000 OA
ATOM      6  H   UNL     1       5.285   6.904  18.429  0.00  0.00    +0.000 HD
BRANCH   4   7
ATOM      7  O   UNL     1       3.710   7.495  16.825  0.00  0.00    +0.000 OA
BRANCH   7   8
ATOM      8  C   UNL     1       3.314   7.120  18.151  0.00  0.00    +0.000 C 
BRANCH   8   9
ATOM      9  C   UNL     1       2.295   8.036  18.774  0.00  0.00    +0.000 A 
ATOM     10  C   UNL     1       1.627   8.993  18.104  0.00  0.00    +0.000 A 
ATOM     11  C   UNL     1       0.634   9.807  18.822  0.00  0.00    +0.000 A 
ATOM     12  O   UNL     1      -0.012  10.688  18.268  0.00  0.00    +0.000 OA
ATOM     13  C   UNL     1       0.415   9.510  20.258  0.00  0.00    +0.000 A 
ATOM     14  C   UNL     1       1.148   8.538  20.804  0.00  0.00    +0.000 A 
ATOM     15  O   UNL     1       2.092   7.796  20.131  0.00  0.00    +0.000 OA
BRANCH  13  16
ATOM     16  O   UNL     1      -0.535  10.220  20.954  0.00  0.00    +0.000 OA
ATOM     17  H   UNL     1      -0.167  11.126  21.033  0.00  0.00    +0.000 HD
ENDBRANCH  13  16
ENDBRANCH   8   9
ENDBRANCH   7   8
ENDBRANCH   4   7
ENDBRANCH   2   3
BRANCH   2  18
ATOM     18  C   UNL     1       7.220   4.817  17.666  0.00  0.00    +0.000 C 
ATOM     19  O   UNL     1       8.176   4.156  17.293  0.00  0.00    +0.000 OA
BRANCH  18  20
ATOM     20  O   UNL     1       6.175   4.328  18.396  0.00  0.00    +0.000 OA
BRANCH  20  21
ATOM     21  C   UNL     1       5.227   3.532  17.672  0.00  0.00    +0.000 C 
BRANCH  21  22
ATOM     22  C   UNL     1       3.946   3.441  18.459  0.00  0.00    +0.000 A 
ATOM     23  C   UNL     1       3.734   4.179  19.560  0.00  0.00    +0.000 A 
ATOM     24  C   UNL     1       2.482   4.002  20.315  0.00  0.00    +0.000 A 
ATOM     25  O   UNL     1       2.230   4.643  21.328  0.00  0.00    +0.000 OA
ATOM     26  C   UNL     1       1.524   2.994  19.801  0.00  0.00    +0.000 A 
ATOM     27  C   UNL     1       1.859   2.326  18.694  0.00  0.00    +0.000 A 
ATOM     28  O   UNL     1       3.030   2.505  17.990  0.00  0.00    +0.000 OA
BRANCH  26  29
ATOM     29  O   UNL     1       0.343   2.781  20.478  0.00  0.00    +0.000 OA
ATOM     30  H   UNL     1      -0.105   2.059  19.988  0.00  0.00    +0.000 HD
ENDBRANCH  26  29
ENDBRANCH  21  22
ENDBRANCH  20  21
ENDBRANCH  18  20
ENDBRANCH   2  18
TORSDOF 10
ENDMDL
MODEL 4
REMARK VINA RESULT:      -7.4      1.368      1.623
REMARK  Name = 
REMARK  11 active torsions:
REMARK  status: ('A' for Active; 'I' for Inactive)
REMARK    1  A    between atoms: C_1  and  C_2
REMARK    2  A    between atoms: C_2  and  N_3
REMARK    3  A    between atoms: C_2  and  C_16
REMARK    4  A    between atoms: C_4  and  O_6
REMARK    5  A    between atoms: O_6  and  C_7
REMARK    6  A    between atoms: C_7  and  C_8
REMARK    7  A    between atoms: C_12  and  O_13
REMARK    8  A    between atoms: C_16  and  O_18
REMARK    9  A    between atoms: O_18  and  C_19
REMARK   10  A    between atoms: C_19  and  C_20
REMARK   11  A    between atoms: C_24  and  O_25
REMARK                            x       y       z     vdW  Elec       q    Type
REMARK                         _______ _______ _______ _____ _____    ______ ____
ROOT
ATOM      1  C   UNL     1       4.939   6.674  15.979  0.00  0.00    +0.000 C 
ATOM      2  C   UNL     1       6.058   6.553  17.018  0.00  0.00    +0.000 C 
ENDROOT
BRANCH   2   3
ATOM      3  N   UNL     1       7.030   7.635  16.894  0.00  0.00    +0.000 N 
ATOM      4  C   UNL     1       7.991   7.872  17.824  0.00  0.00    +0.000 C 
ATOM      5  O   UNL     1       8.174   7.192  18.821  0.00  0.00    +0.000 OA
ATOM      6  H   UNL     1       7.006   8.232  16.077  0.00  0.00    +0.000 HD
BRANCH   4   7
ATOM      7  O   UNL     1       8.657   9.011  17.516  0.00  0.00    +0.000 OA
BRANCH   7   8
ATOM      8  C   UNL     1       8.714   9.962  18.588  0.00  0.00    +0.000 C 
BRANCH   8   9
ATOM      9  C   UNL     1       9.344  11.277  18.213  0.00  0.00    +0.000 A 
ATOM     10  C   UNL     1       8.721  12.467  18.298  0.00  0.00    +0.000 A 
ATOM     11  C   UNL     1       9.456  13.686  17.926  0.00  0.00    +0.000 A 
ATOM     12  O   UNL     1       8.949  14.799  17.988  0.00  0.00    +0.000 OA
ATOM     13  C   UNL     1      10.864  13.529  17.487  0.00  0.00    +0.000 A 
ATOM     14  C   UNL     1      11.360  12.291  17.441  0.00  0.00    +0.000 A 
ATOM     15  O   UNL     1      10.659  11.154  17.770  0.00  0.00    +0.000 OA
BRANCH  13  16
ATOM     16  O   UNL     1      11.598  14.648  17.171  0.00  0.00    +0.000 OA
ATOM     17  H   UNL     1      11.184  15.376  17.682  0.00  0.00    +0.000 HD
ENDBRANCH  13  16
ENDBRANCH   8   9
ENDBRANCH   7   8
ENDBRANCH   4   7
ENDBRANCH   2   3
BRANCH   2  18
ATOM     18  C   UNL     1       6.716   5.177  16.878  0.00  0.00    +0.000 C 
ATOM     19  O   UNL     1       7.668   4.956  16.147  0.00  0.00    +0.000 OA
BRANCH  18  20
ATOM     20  O   UNL     1       6.133   4.250  17.694  0.00  0.00    +0.000 OA
BRANCH  20  21
ATOM     21  C   UNL     1       5.447   4.771  18.841  0.00  0.00    +0.000 C 
BRANCH  21  22
ATOM     22  C   UNL     1       4.056   4.197  18.896  0.00  0.00    +0.000 A 
ATOM     23  C   UNL     1       3.155   4.421  17.926  0.00  0.00    +0.000 A 
ATOM     24  C   UNL     1       1.795   3.875  18.067  0.00  0.00    +0.000 A 
ATOM     25  O   UNL     1       0.927   4.046  17.219  0.00  0.00    +0.000 OA
ATOM     26  C   UNL     1       1.504   3.106  19.300  0.00  0.00    +0.000 A 
ATOM     27  C   UNL     1       2.491   2.958  20.188  0.00  0.00    +0.000 A 
ATOM     28  O   UNL     1       3.764   3.465  20.043  0.00  0.00    +0.000 OA
BRANCH  26  29
ATOM     29  O   UNL     1       0.242   2.585  19.487  0.00  0.00    +0.000 OA
ATOM     30  H   UNL     1       0.010   2.806  20.414  0.00  0.00    +0.000 HD
ENDBRANCH  26  29
ENDBRANCH  21  22
ENDBRANCH  20  21
ENDBRANCH  18  20
ENDBRANCH   2  18
TORSDOF 10
ENDMDL
MODEL 5
REMARK VINA RESULT:      -7.4      4.528      6.420
REMARK  Name = 
REMARK  11 active torsions:
REMARK  status: ('A' for Active; 'I' for Inactive)
REMARK    1  A    between atoms: C_1  and  C_2
REMARK    2  A    between atoms: C_2  and  N_3
REMARK    3  A    between atoms: C_2  and  C_16
REMARK    4  A    between atoms: C_4  and  O_6
REMARK    5  A    between atoms: O_6  and  C_7
REMARK    6  A    between atoms: C_7  and  C_8
REMARK    7  A    between atoms: C_12  and  O_13
REMARK    8  A    between atoms: C_16  and  O_18
REMARK    9  A    between atoms: O_18  and  C_19
REMARK   10  A    between atoms: C_19  and  C_20
REMARK   11  A    between atoms: C_24  and  O_25
REMARK                            x       y       z     vdW  Elec       q    Type
REMARK                         _______ _______ _______ _____ _____    ______ ____
ROOT
ATOM      1  C   UNL     1       7.983   6.548  18.758  0.00  0.00    +0.000 C 
ATOM      2  C   UNL     1       7.150   6.237  17.510  0.00  0.00    +0.000 C 
ENDROOT
BRANCH   2   3
ATOM      3  N   UNL     1       5.810   6.808  17.600  0.00  0.00    +0.000 N 
ATOM      4  C   UNL     1       5.001   6.965  16.521  0.00  0.00    +0.000 C 
ATOM      5  O   UNL     1       5.282   6.610  15.387  0.00  0.00    +0.000 OA
ATOM      6  H   UNL     1       5.450   7.089  18.505  0.00  0.00    +0.000 HD
BRANCH   4   7
ATOM      7  O   UNL     1       3.881   7.637  16.879  0.00  0.00    +0.000 OA
BRANCH   7   8
ATOM      8  C   UNL     1       3.065   6.945  17.834  0.00  0.00    +0.000 C 
BRANCH   8   9
ATOM      9  C   UNL     1       2.226   7.849  18.698  0.00  0.00    +0.000 A 
ATOM     10  C   UNL     1       2.014   7.657  20.013  0.00  0.00    +0.000 A 
ATOM     11  C   UNL     1       1.194   8.628  20.754  0.00  0.00    +0.000 A 
ATOM     12  O   UNL     1       0.970   8.515  21.952  0.00  0.00    +0.000 OA
ATOM     13  C   UNL     1       0.655   9.786  19.999  0.00  0.00    +0.000 A 
ATOM     14  C   UNL     1       0.934   9.854  18.696  0.00  0.00    +0.000 A 
ATOM     15  O   UNL     1       1.683   8.929  18.005  0.00  0.00    +0.000 OA
BRANCH  13  16
ATOM     16  O   UNL     1      -0.081  10.738  20.663  0.00  0.00    +0.000 OA
ATOM     17  H   UNL     1       0.255  10.721  21.585  0.00  0.00    +0.000 HD
ENDBRANCH  13  16
ENDBRANCH   8   9
ENDBRANCH   7   8
ENDBRANCH   4   7
ENDBRANCH   2   3
BRANCH   2  18
ATOM     18  C   UNL     1       7.111   4.721  17.306  0.00  0.00    +0.000 C 
ATOM     19  O   UNL     1       7.858   4.122  16.548  0.00  0.00    +0.000 OA
BRANCH  18  20
ATOM     20  O   UNL     1       6.172   4.126  18.100  0.00  0.00    +0.000 OA
BRANCH  20  21
ATOM     21  C   UNL     1       5.138   3.408  17.413  0.00  0.00    +0.000 C 
BRANCH  21  22
ATOM     22  C   UNL     1       3.879   3.431  18.239  0.00  0.00    +0.000 A 
ATOM     23  C   UNL     1       3.843   3.977  19.464  0.00  0.00    +0.000 A 
ATOM     24  C   UNL     1       2.594   3.918  20.242  0.00  0.00    +0.000 A 
ATOM     25  O   UNL     1       2.496   4.396  21.366  0.00  0.00    +0.000 OA
ATOM     26  C   UNL     1       1.439   3.238  19.608  0.00  0.00    +0.000 A 
ATOM     27  C   UNL     1       1.610   2.735  18.382  0.00  0.00    +0.000 A 
ATOM     28  O   UNL     1       2.781   2.804  17.659  0.00  0.00    +0.000 OA
BRANCH  26  29
ATOM     29  O   UNL     1       0.251   3.145  20.299  0.00  0.00    +0.000 OA
ATOM     30  H   UNL     1       0.503   2.849  21.199  0.00  0.00    +0.000 HD
ENDBRANCH  26  29
ENDBRANCH  21  22
ENDBRANCH  20  21
ENDBRANCH  18  20
ENDBRANCH   2  18
TORSDOF 10
ENDMDL
MODEL 6
REMARK VINA RESULT:      -7.3      1.240      1.282
REMARK  Name = 
REMARK  11 active torsions:
REMARK  status: ('A' for Active; 'I' for Inactive)
REMARK    1  A    between atoms: C_1  and  C_2
REMARK    2  A    between atoms: C_2  and  N_3
REMARK    3  A    between atoms: C_2  and  C_16
REMARK    4  A    between atoms: C_4  and  O_6
REMARK    5  A    between atoms: O_6  and  C_7
REMARK    6  A    between atoms: C_7  and  C_8
REMARK    7  A    between atoms: C_12  and  O_13
REMARK    8  A    between atoms: C_16  and  O_18
REMARK    9  A    between atoms: O_18  and  C_19
REMARK   10  A    between atoms: C_19  and  C_20
REMARK   11  A    between atoms: C_24  and  O_25
REMARK                            x       y       z     vdW  Elec       q    Type
REMARK                         _______ _______ _______ _____ _____    ______ ____
ROOT
ATOM      1  C   UNL     1       3.897   7.185  17.508  0.00  0.00    +0.000 C 
ATOM      2  C   UNL     1       5.284   6.578  17.273  0.00  0.00    +0.000 C 
ENDROOT
BRANCH   2   3
ATOM      3  N   UNL     1       6.315   7.606  17.180  0.00  0.00    +0.000 N 
ATOM      4  C   UNL     1       7.487   7.538  17.861  0.00  0.00    +0.000 C 
ATOM      5  O   UNL     1       7.821   6.605  18.575  0.00  0.00    +0.000 OA
ATOM      6  H   UNL     1       6.168   8.403  16.572  0.00  0.00    +0.000 HD
BRANCH   4   7
ATOM      7  O   UNL     1       8.188   8.685  17.689  0.00  0.00    +0.000 OA
BRANCH   7   8
ATOM      8  C   UNL     1       8.890   9.122  18.861  0.00  0.00    +0.000 C 
BRANCH   8   9
ATOM      9  C   UNL     1       9.320  10.564  18.820  0.00  0.00    +0.000 A 
ATOM     10  C   UNL     1       9.908  11.150  17.760  0.00  0.00    +0.000 A 
ATOM     11  C   UNL     1      10.258  12.577  17.836  0.00  0.00    +0.000 A 
ATOM     12  O   UNL     1      10.787  13.170  16.904  0.00  0.00    +0.000 OA
ATOM     13  C   UNL     1       9.925  13.298  19.088  0.00  0.00    +0.000 A 
ATOM     14  C   UNL     1       9.349  12.597  20.067  0.00  0.00    +0.000 A 
ATOM     15  O   UNL     1       9.045  11.257  19.997  0.00  0.00    +0.000 OA
BRANCH  13  16
ATOM     16  O   UNL     1      10.198  14.642  19.183  0.00  0.00    +0.000 OA
ATOM     17  H   UNL     1      10.354  14.803  20.138  0.00  0.00    +0.000 HD
ENDBRANCH  13  16
ENDBRANCH   8   9
ENDBRANCH   7   8
ENDBRANCH   4   7
ENDBRANCH   2   3
BRANCH   2  18
ATOM     18  C   UNL     1       5.234   5.705  16.016  0.00  0.00    +0.000 C 
ATOM     19  O   UNL     1       5.801   5.990  14.974  0.00  0.00    +0.000 OA
BRANCH  18  20
ATOM     20  O   UNL     1       4.515   4.562  16.220  0.00  0.00    +0.000 OA
BRANCH  20  21
ATOM     21  C   UNL     1       4.957   3.730  17.301  0.00  0.00    +0.000 C 
BRANCH  21  22
ATOM     22  C   UNL     1       3.792   3.421  18.204  0.00  0.00    +0.000 A 
ATOM     23  C   UNL     1       2.604   3.027  17.721  0.00  0.00    +0.000 A 
ATOM     24  C   UNL     1       1.489   2.793  18.655  0.00  0.00    +0.000 A 
ATOM     25  O   UNL     1       0.380   2.434  18.277  0.00  0.00    +0.000 OA
ATOM     26  C   UNL     1       1.759   3.022  20.094  0.00  0.00    +0.000 A 
ATOM     27  C   UNL     1       2.987   3.416  20.441  0.00  0.00    +0.000 A 
ATOM     28  O   UNL     1       4.026   3.623  19.560  0.00  0.00    +0.000 OA
BRANCH  26  29
ATOM     29  O   UNL     1       0.746   2.830  21.007  0.00  0.00    +0.000 OA
ATOM     30  H   UNL     1       1.053   3.276  21.825  0.00  0.00    +0.000 HD
ENDBRANCH  26  29
ENDBRANCH  21  22
ENDBRANCH  20  21
ENDBRANCH  18  20
ENDBRANCH   2  18
TORSDOF 10
ENDMDL
MODEL 7
REMARK VINA RESULT:      -7.3      1.229      1.844
REMARK  Name = 
REMARK  11 active torsions:
REMARK  status: ('A' for Active; 'I' for Inactive)
REMARK    1  A    between atoms: C_1  and  C_2
REMARK    2  A    between atoms: C_2  and  N_3
REMARK    3  A    between atoms: C_2  and  C_16
REMARK    4  A    between atoms: C_4  and  O_6
REMARK    5  A    between atoms: O_6  and  C_7
REMARK    6  A    between atoms: C_7  and  C_8
REMARK    7  A    between atoms: C_12  and  O_13
REMARK    8  A    between atoms: C_16  and  O_18
REMARK    9  A    between atoms: O_18  and  C_19
REMARK   10  A    between atoms: C_19  and  C_20
REMARK   11  A    between atoms: C_24  and  O_25
REMARK                            x       y       z     vdW  Elec       q    Type
REMARK                         _______ _______ _______ _____ _____    ______ ____
ROOT
ATOM      1  C   UNL     1       4.372   7.119  17.050  0.00  0.00    +0.000 C 
ATOM      2  C   UNL     1       5.812   6.647  17.277  0.00  0.00    +0.000 C 
ENDROOT
BRANCH   2   3
ATOM      3  N   UNL     1       6.759   7.756  17.217  0.00  0.00    +0.000 N 
ATOM      4  C   UNL     1       7.880   7.810  17.982  0.00  0.00    +0.000 C 
ATOM      5  O   UNL     1       8.236   6.932  18.753  0.00  0.00    +0.000 OA
ATOM      6  H   UNL     1       6.592   8.517  16.571  0.00  0.00    +0.000 HD
BRANCH   4   7
ATOM      7  O   UNL     1       8.494   9.006  17.816  0.00  0.00    +0.000 OA
BRANCH   7   8
ATOM      8  C   UNL     1       8.962   9.597  19.036  0.00  0.00    +0.000 C 
BRANCH   8   9
ATOM      9  C   UNL     1       9.529  10.981  18.873  0.00  0.00    +0.000 A 
ATOM     10  C   UNL     1       9.371  11.975  19.766  0.00  0.00    +0.000 A 
ATOM     11  C   UNL     1       9.998  13.280  19.503  0.00  0.00    +0.000 A 
ATOM     12  O   UNL     1       9.899  14.221  20.279  0.00  0.00    +0.000 OA
ATOM     13  C   UNL     1      10.792  13.418  18.257  0.00  0.00    +0.000 A 
ATOM     14  C   UNL     1      10.864  12.356  17.453  0.00  0.00    +0.000 A 
ATOM     15  O   UNL     1      10.255  11.146  17.695  0.00  0.00    +0.000 OA
BRANCH  13  16
ATOM     16  O   UNL     1      11.429  14.608  17.996  0.00  0.00    +0.000 OA
ATOM     17  H   UNL     1      11.190  15.194  18.745  0.00  0.00    +0.000 HD
ENDBRANCH  13  16
ENDBRANCH   8   9
ENDBRANCH   7   8
ENDBRANCH   4   7
ENDBRANCH   2   3
BRANCH   2  18
ATOM     18  C   UNL     1       6.142   5.560  16.251  0.00  0.00    +0.000 C 
ATOM     19  O   UNL     1       7.258   5.387  15.787  0.00  0.00    +0.000 OA
BRANCH  18  20
ATOM     20  O   UNL     1       5.051   4.793  15.955  0.00  0.00    +0.000 OA
BRANCH  20  21
ATOM     21  C   UNL     1       5.005   3.505  16.583  0.00  0.00    +0.000 C 
BRANCH  21  22
ATOM     22  C   UNL     1       3.911   3.491  17.617  0.00  0.00    +0.000 A 
ATOM     23  C   UNL     1       4.114   3.034  18.862  0.00  0.00    +0.000 A 
ATOM     24  C   UNL     1       2.987   2.998  19.809  0.00  0.00    +0.000 A 
ATOM     25  O   UNL     1       3.107   2.590  20.958  0.00  0.00    +0.000 OA
ATOM     26  C   UNL     1       1.674   3.470  19.309  0.00  0.00    +0.000 A 
ATOM     27  C   UNL     1       1.607   3.898  18.046  0.00  0.00    +0.000 A 
ATOM     28  O   UNL     1       2.670   3.937  17.170  0.00  0.00    +0.000 OA
BRANCH  26  29
ATOM     29  O   UNL     1       0.584   3.444  20.152  0.00  0.00    +0.000 OA
ATOM     30  H   UNL     1       0.743   2.683  20.750  0.00  0.00    +0.000 HD
ENDBRANCH  26  29
ENDBRANCH  21  22
ENDBRANCH  20  21
ENDBRANCH  18  20
ENDBRANCH   2  18
TORSDOF 10
ENDMDL
MODEL 8
REMARK VINA RESULT:      -7.3      1.325      1.785
REMARK  Name = 
REMARK  11 active torsions:
REMARK  status: ('A' for Active; 'I' for Inactive)
REMARK    1  A    between atoms: C_1  and  C_2
REMARK    2  A    between atoms: C_2  and  N_3
REMARK    3  A    between atoms: C_2  and  C_16
REMARK    4  A    between atoms: C_4  and  O_6
REMARK    5  A    between atoms: O_6  and  C_7
REMARK    6  A    between atoms: C_7  and  C_8
REMARK    7  A    between atoms: C_12  and  O_13
REMARK    8  A    between atoms: C_16  and  O_18
REMARK    9  A    between atoms: O_18  and  C_19
REMARK   10  A    between atoms: C_19  and  C_20
REMARK   11  A    between atoms: C_24  and  O_25
REMARK                            x       y       z     vdW  Elec       q    Type
REMARK                         _______ _______ _______ _____ _____    ______ ____
ROOT
ATOM      1  C   UNL     1       4.555   6.932  16.727  0.00  0.00    +0.000 C 
ATOM      2  C   UNL     1       5.750   6.166  17.305  0.00  0.00    +0.000 C 
ENDROOT
BRANCH   2   3
ATOM      3  N   UNL     1       6.895   7.042  17.530  0.00  0.00    +0.000 N 
ATOM      4  C   UNL     1       7.783   6.850  18.539  0.00  0.00    +0.000 C 
ATOM      5  O   UNL     1       7.748   5.915  19.324  0.00  0.00    +0.000 OA
ATOM      6  H   UNL     1       7.054   7.822  16.903  0.00  0.00    +0.000 HD
BRANCH   4   7
ATOM      7  O   UNL     1       8.657   7.884  18.586  0.00  0.00    +0.000 OA
BRANCH   7   8
ATOM      8  C   UNL     1       8.207   9.062  17.903  0.00  0.00    +0.000 C 
BRANCH   8   9
ATOM      9  C   UNL     1       8.809  10.342  18.418  0.00  0.00    +0.000 A 
ATOM     10  C   UNL     1       9.557  10.433  19.533  0.00  0.00    +0.000 A 
ATOM     11  C   UNL     1      10.111  11.740  19.918  0.00  0.00    +0.000 A 
ATOM     12  O   UNL     1      10.805  11.888  20.915  0.00  0.00    +0.000 OA
ATOM     13  C   UNL     1       9.819  12.894  19.032  0.00  0.00    +0.000 A 
ATOM     14  C   UNL     1       9.058  12.669  17.959  0.00  0.00    +0.000 A 
ATOM     15  O   UNL     1       8.525  11.447  17.619  0.00  0.00    +0.000 OA
BRANCH  13  16
ATOM     16  O   UNL     1      10.353  14.124  19.333  0.00  0.00    +0.000 OA
ATOM     17  H   UNL     1      11.057  14.266  18.665  0.00  0.00    +0.000 HD
ENDBRANCH  13  16
ENDBRANCH   8   9
ENDBRANCH   7   8
ENDBRANCH   4   7
ENDBRANCH   2   3
BRANCH   2  18
ATOM     18  C   UNL     1       6.094   5.007  16.365  0.00  0.00    +0.000 C 
ATOM     19  O   UNL     1       7.201   4.839  15.879  0.00  0.00    +0.000 OA
BRANCH  18  20
ATOM     20  O   UNL     1       5.028   4.176  16.172  0.00  0.00    +0.000 OA
BRANCH  20  21
ATOM     21  C   UNL     1       4.939   3.057  17.065  0.00  0.00    +0.000 C 
BRANCH  21  22
ATOM     22  C   UNL     1       3.718   3.205  17.933  0.00  0.00    +0.000 A 
ATOM     23  C   UNL     1       2.587   2.524  17.691  0.00  0.00    +0.000 A 
ATOM     24  C   UNL     1       1.410   2.756  18.546  0.00  0.00    +0.000 A 
ATOM     25  O   UNL     1       0.349   2.168  18.375  0.00  0.00    +0.000 OA
ATOM     26  C   UNL     1       1.556   3.752  19.633  0.00  0.00    +0.000 A 
ATOM     27  C   UNL     1       2.737   4.362  19.764  0.00  0.00    +0.000 A 
ATOM     28  O   UNL     1       3.835   4.132  18.964  0.00  0.00    +0.000 OA
BRANCH  26  29
ATOM     29  O   UNL     1       0.480   4.015  20.453  0.00  0.00    +0.000 OA
ATOM     30  H   UNL     1       0.781   4.739  21.043  0.00  0.00    +0.000 HD
ENDBRANCH  26  29
ENDBRANCH  21  22
ENDBRANCH  20  21
ENDBRANCH  18  20
ENDBRANCH   2  18
TORSDOF 10
ENDMDL
MODEL 9
REMARK VINA RESULT:      -7.2      4.732      8.027
REMARK  Name = 
REMARK  11 active torsions:
REMARK  status: ('A' for Active; 'I' for Inactive)
REMARK    1  A    between atoms: C_1  and  C_2
REMARK    2  A    between atoms: C_2  and  N_3
REMARK    3  A    between atoms: C_2  and  C_16
REMARK    4  A    between atoms: C_4  and  O_6
REMARK    5  A    between atoms: O_6  and  C_7
REMARK    6  A    between atoms: C_7  and  C_8
REMARK    7  A    between atoms: C_12  and  O_13
REMARK    8  A    between atoms: C_16  and  O_18
REMARK    9  A    between atoms: O_18  and  C_19
REMARK   10  A    between atoms: C_19  and  C_20
REMARK   11  A    between atoms: C_24  and  O_25
REMARK                            x       y       z     vdW  Elec       q    Type
REMARK                         _______ _______ _______ _____ _____    ______ ____
ROOT
ATOM      1  C   UNL     1       1.923   3.219  21.463  0.00  0.00    +0.000 C 
ATOM      2  C   UNL     1       2.284   4.007  20.199  0.00  0.00    +0.000 C 
ENDROOT
BRANCH   2   3
ATOM      3  N   UNL     1       1.761   5.369  20.244  0.00  0.00    +0.000 N 
ATOM      4  C   UNL     1       2.481   6.448  19.845  0.00  0.00    +0.000 C 
ATOM      5  O   UNL     1       3.604   6.394  19.369  0.00  0.00    +0.000 OA
ATOM      6  H   UNL     1       0.816   5.527  20.572  0.00  0.00    +0.000 HD
BRANCH   4   7
ATOM      7  O   UNL     1       1.799   7.585  20.122  0.00  0.00    +0.000 OA
BRANCH   7   8
ATOM      8  C   UNL     1       1.885   8.583  19.096  0.00  0.00    +0.000 C 
BRANCH   8   9
ATOM      9  C   UNL     1       0.809   9.634  19.165  0.00  0.00    +0.000 A 
ATOM     10  C   UNL     1       0.685  10.527  20.164  0.00  0.00    +0.000 A 
ATOM     11  C   UNL     1      -0.396  11.522  20.103  0.00  0.00    +0.000 A 
ATOM     12  O   UNL     1      -0.558  12.366  20.976  0.00  0.00    +0.000 OA
ATOM     13  C   UNL     1      -1.289  11.491  18.919  0.00  0.00    +0.000 A 
ATOM     14  C   UNL     1      -1.061  10.549  18.002  0.00  0.00    +0.000 A 
ATOM     15  O   UNL     1      -0.061   9.607  18.078  0.00  0.00    +0.000 OA
BRANCH  13  16
ATOM     16  O   UNL     1      -2.285  12.431  18.804  0.00  0.00    +0.000 OA
ATOM     17  H   UNL     1      -2.567  12.617  19.725  0.00  0.00    +0.000 HD
ENDBRANCH  13  16
ENDBRANCH   8   9
ENDBRANCH   7   8
ENDBRANCH   4   7
ENDBRANCH   2   3
BRANCH   2  18
ATOM     18  C   UNL     1       1.772   3.240  18.977  0.00  0.00    +0.000 C 
ATOM     19  O   UNL     1       0.697   2.664  18.943  0.00  0.00    +0.000 OA
BRANCH  18  20
ATOM     20  O   UNL     1       2.645   3.315  17.929  0.00  0.00    +0.000 OA
BRANCH  20  21
ATOM     21  C   UNL     1       4.005   2.968  18.223  0.00  0.00    +0.000 C 
BRANCH  21  22
ATOM     22  C   UNL     1       4.917   4.060  17.730  0.00  0.00    +0.000 A 
ATOM     23  C   UNL     1       4.643   4.770  16.625  0.00  0.00    +0.000 A 
ATOM     24  C   UNL     1       5.605   5.787  16.166  0.00  0.00    +0.000 A 
ATOM     25  O   UNL     1       5.414   6.466  15.164  0.00  0.00    +0.000 OA
ATOM     26  C   UNL     1       6.840   5.955  16.968  0.00  0.00    +0.000 A 
ATOM     27  C   UNL     1       6.991   5.181  18.047  0.00  0.00    +0.000 A 
ATOM     28  O   UNL     1       6.080   4.239  18.473  0.00  0.00    +0.000 OA
BRANCH  26  29
ATOM     29  O   UNL     1       7.778   6.884  16.574  0.00  0.00    +0.000 OA
ATOM     30  H   UNL     1       7.608   7.670  17.135  0.00  0.00    +0.000 HD
ENDBRANCH  26  29
ENDBRANCH  21  22
ENDBRANCH  20  21
ENDBRANCH  18  20
ENDBRANCH   2  18
TORSDOF 10
ENDMDL
