MODEL 1
REMARK VINA RESULT:      -7.6      0.000      0.000
REMARK  Name = 
REMARK  5 active torsions:
REMARK  status: ('A' for Active; 'I' for Inactive)
REMARK    1  A    between atoms: C_5  and  C_6
REMARK    2  A    between atoms: N_8  and  C_9
REMARK    3  A    between atoms: N_8  and  C_16
REMARK    4  A    between atoms: C_9  and  C_10
REMARK    5  A    between atoms: C_16  and  C_17
REMARK                            x       y       z     vdW  Elec       q    Type
REMARK                         _______ _______ _______ _____ _____    ______ ____
ROOT
ATOM      1  C   UNL     1       5.445   5.901  17.696  0.00  0.00    +0.000 C 
ATOM      2  O   UNL     1       6.549   6.297  18.085  0.00  0.00    +0.000 OA
ATOM      3  N   UNL     1       5.361   4.783  16.862  0.00  0.00    +0.000 N 
ENDROOT
BRANCH   1   8
ATOM      4  N   UNL     1       1.824   7.113  20.493  0.00  0.00    +0.000 N 
ATOM      5  C   UNL     1       2.569   7.145  19.387  0.00  0.00    +0.000 A 
ATOM      6  N   UNL     1       2.412   7.891  18.323  0.00  0.00    +0.000 NA
ATOM      7  C   UNL     1       3.459   7.519  17.517  0.00  0.00    +0.000 A 
ATOM      8  C   UNL     1       4.245   6.576  18.148  0.00  0.00    +0.000 A 
ATOM      9  O   UNL     1       3.636   6.305  19.349  0.00  0.00    +0.000 OA
ATOM     10  H   UNL     1       0.931   7.587  20.423  0.00  0.00    +0.000 HD
ATOM     11  H   UNL     1       1.780   6.226  20.977  0.00  0.00    +0.000 HD
ENDBRANCH   1   8
BRANCH   3  12
ATOM     12  C   UNL     1       4.117   4.146  16.417  0.00  0.00    +0.000 C 
BRANCH  12  13
ATOM     13  C   UNL     1       3.334   3.468  17.534  0.00  0.00    +0.000 A 
ATOM     14  C   UNL     1       1.956   3.670  17.621  0.00  0.00    +0.000 A 
ATOM     15  C   UNL     1       1.237   3.017  18.619  0.00  0.00    +0.000 A 
ATOM     16  C   UNL     1       1.909   2.201  19.519  0.00  0.00    +0.000 A 
ATOM     17  C   UNL     1       3.282   2.083  19.393  0.00  0.00    +0.000 A 
ATOM     18  N   UNL     1       4.005   2.695  18.429  0.00  0.00    +0.000 NA
ENDBRANCH  12  13
ENDBRANCH   3  12
BRANCH   3  19
ATOM     19  C   UNL     1       6.601   4.232  16.311  0.00  0.00    +0.000 C 
BRANCH  19  20
ATOM     20  C   UNL     1       6.773   4.429  14.813  0.00  0.00    +0.000 A 
ATOM     21  C   UNL     1       6.100   3.604  13.911  0.00  0.00    +0.000 A 
ATOM     22  C   UNL     1       6.368   3.720  12.548  0.00  0.00    +0.000 A 
ATOM     23  C   UNL     1       7.295   4.660  12.114  0.00  0.00    +0.000 A 
ATOM     24  C   UNL     1       7.898   5.464  13.066  0.00  0.00    +0.000 A 
ATOM     25  N   UNL     1       7.657   5.376  14.396  0.00  0.00    +0.000 NA
ENDBRANCH  19  20
ENDBRANCH   3  19
TORSDOF 5
ENDMDL
MODEL 2
REMARK VINA RESULT:      -7.5      0.655      1.028
REMARK  Name = 
REMARK  5 active torsions:
REMARK  status: ('A' for Active; 'I' for Inactive)
REMARK    1  A    between atoms: C_5  and  C_6
REMARK    2  A    between atoms: N_8  and  C_9
REMARK    3  A    between atoms: N_8  and  C_16
REMARK    4  A    between atoms: C_9  and  C_10
REMARK    5  A    between atoms: C_16  and  C_17
REMARK                            x       y       z     vdW  Elec       q    Type
REMARK                         _______ _______ _______ _____ _____    ______ ____
ROOT
ATOM      1  C   UNL     1       5.436   5.706  17.832  0.00  0.00    +0.000 C 
ATOM      2  O   UNL     1       6.530   6.002  18.320  0.00  0.00    +0.000 OA
ATOM      3  N   UNL     1       5.357   4.706  16.858  0.00  0.00    +0.000 N 
ENDROOT
BRANCH   1   8
ATOM      4  N   UNL     1       1.803   6.802  20.661  0.00  0.00    +0.000 N 
ATOM      5  C   UNL     1       2.557   6.885  19.564  0.00  0.00    +0.000 A 
ATOM      6  N   UNL     1       2.414   7.687  18.540  0.00  0.00    +0.000 NA
ATOM      7  C   UNL     1       3.465   7.348  17.723  0.00  0.00    +0.000 A 
ATOM      8  C   UNL     1       4.238   6.366  18.309  0.00  0.00    +0.000 A 
ATOM      9  O   UNL     1       3.617   6.038  19.490  0.00  0.00    +0.000 OA
ATOM     10  H   UNL     1       0.914   7.286  20.610  0.00  0.00    +0.000 HD
ATOM     11  H   UNL     1       1.748   5.891  21.099  0.00  0.00    +0.000 HD
ENDBRANCH   1   8
BRANCH   3  12
ATOM     12  C   UNL     1       4.116   4.183  16.276  0.00  0.00    +0.000 C 
BRANCH  12  13
ATOM     13  C   UNL     1       3.235   3.432  17.266  0.00  0.00    +0.000 A 
ATOM     14  C   UNL     1       3.767   2.350  17.969  0.00  0.00    +0.000 A 
ATOM     15  C   UNL     1       2.972   1.691  18.903  0.00  0.00    +0.000 A 
ATOM     16  C   UNL     1       1.662   2.107  19.096  0.00  0.00    +0.000 A 
ATOM     17  C   UNL     1       1.193   3.162  18.331  0.00  0.00    +0.000 A 
ATOM     18  N   UNL     1       1.944   3.827  17.426  0.00  0.00    +0.000 NA
ENDBRANCH  12  13
ENDBRANCH   3  12
BRANCH   3  19
ATOM     19  C   UNL     1       6.604   4.179  16.300  0.00  0.00    +0.000 C 
BRANCH  19  20
ATOM     20  C   UNL     1       6.769   4.390  14.803  0.00  0.00    +0.000 A 
ATOM     21  C   UNL     1       6.097   3.569  13.896  0.00  0.00    +0.000 A 
ATOM     22  C   UNL     1       6.360   3.698  12.534  0.00  0.00    +0.000 A 
ATOM     23  C   UNL     1       7.279   4.647  12.104  0.00  0.00    +0.000 A 
ATOM     24  C   UNL     1       7.881   5.447  13.061  0.00  0.00    +0.000 A 
ATOM     25  N   UNL     1       7.646   5.345  14.392  0.00  0.00    +0.000 NA
ENDBRANCH  19  20
ENDBRANCH   3  19
TORSDOF 5
ENDMDL
MODEL 3
REMARK VINA RESULT:      -7.5      2.090      6.569
REMARK  Name = 
REMARK  5 active torsions:
REMARK  status: ('A' for Active; 'I' for Inactive)
REMARK    1  A    between atoms: C_5  and  C_6
REMARK    2  A    between atoms: N_8  and  C_9
REMARK    3  A    between atoms: N_8  and  C_16
REMARK    4  A    between atoms: C_9  and  C_10
REMARK    5  A    between atoms: C_16  and  C_17
REMARK                            x       y       z     vdW  Elec       q    Type
REMARK                         _______ _______ _______ _____ _____    ______ ____
ROOT
ATOM      1  C   UNL     1       4.069   4.346  17.308  0.00  0.00    +0.000 C 
ATOM      2  O   UNL     1       3.647   3.189  17.396  0.00  0.00    +0.000 OA
ATOM      3  N   UNL     1       3.271   5.412  17.732  0.00  0.00    +0.000 N 
ENDROOT
BRANCH   1   8
ATOM      4  N   UNL     1       7.558   5.368  14.277  0.00  0.00    +0.000 N 
ATOM      5  C   UNL     1       7.033   5.025  15.454  0.00  0.00    +0.000 A 
ATOM      6  N   UNL     1       7.649   4.817  16.589  0.00  0.00    +0.000 NA
ATOM      7  C   UNL     1       6.628   4.508  17.453  0.00  0.00    +0.000 A 
ATOM      8  C   UNL     1       5.409   4.580  16.809  0.00  0.00    +0.000 A 
ATOM      9  O   UNL     1       5.683   4.875  15.496  0.00  0.00    +0.000 OA
ATOM     10  H   UNL     1       8.566   5.275  14.213  0.00  0.00    +0.000 HD
ATOM     11  H   UNL     1       7.065   5.044  13.455  0.00  0.00    +0.000 HD
ENDBRANCH   1   8
BRANCH   3  12
ATOM     12  C   UNL     1       3.688   6.817  17.785  0.00  0.00    +0.000 C 
BRANCH  12  13
ATOM     13  C   UNL     1       2.654   7.747  18.407  0.00  0.00    +0.000 A 
ATOM     14  C   UNL     1       2.033   8.709  17.609  0.00  0.00    +0.000 A 
ATOM     15  C   UNL     1       1.059   9.531  18.171  0.00  0.00    +0.000 A 
ATOM     16  C   UNL     1       0.747   9.394  19.517  0.00  0.00    +0.000 A 
ATOM     17  C   UNL     1       1.436   8.445  20.253  0.00  0.00    +0.000 A 
ATOM     18  N   UNL     1       2.377   7.626  19.733  0.00  0.00    +0.000 NA
ENDBRANCH  12  13
ENDBRANCH   3  12
BRANCH   3  19
ATOM     19  C   UNL     1       1.876   5.139  18.082  0.00  0.00    +0.000 C 
BRANCH  19  20
ATOM     20  C   UNL     1       1.688   4.272  19.317  0.00  0.00    +0.000 A 
ATOM     21  C   UNL     1       2.296   4.621  20.523  0.00  0.00    +0.000 A 
ATOM     22  C   UNL     1       2.215   3.749  21.607  0.00  0.00    +0.000 A 
ATOM     23  C   UNL     1       1.522   2.553  21.467  0.00  0.00    +0.000 A 
ATOM     24  C   UNL     1       0.917   2.292  20.250  0.00  0.00    +0.000 A 
ATOM     25  N   UNL     1       0.978   3.120  19.179  0.00  0.00    +0.000 NA
ENDBRANCH  19  20
ENDBRANCH   3  19
TORSDOF 5
ENDMDL
MODEL 4
REMARK VINA RESULT:      -7.5      0.713      1.042
REMARK  Name = 
REMARK  5 active torsions:
REMARK  status: ('A' for Active; 'I' for Inactive)
REMARK    1  A    between atoms: C_5  and  C_6
REMARK    2  A    between atoms: N_8  and  C_9
REMARK    3  A    between atoms: N_8  and  C_16
REMARK    4  A    between atoms: C_9  and  C_10
REMARK    5  A    between atoms: C_16  and  C_17
REMARK                            x       y       z     vdW  Elec       q    Type
REMARK                         _______ _______ _______ _____ _____    ______ ____
ROOT
ATOM      1  C   UNL     1       5.388   5.913  17.638  0.00  0.00    +0.000 C 
ATOM      2  O   UNL     1       6.489   6.318  18.026  0.00  0.00    +0.000 OA
ATOM      3  N   UNL     1       5.312   4.778  16.825  0.00  0.00    +0.000 N 
ENDROOT
BRANCH   1   8
ATOM      4  N   UNL     1       1.763   8.956  17.618  0.00  0.00    +0.000 N 
ATOM      5  C   UNL     1       2.525   7.977  18.108  0.00  0.00    +0.000 A 
ATOM      6  N   UNL     1       2.351   7.284  19.204  0.00  0.00    +0.000 NA
ATOM      7  C   UNL     1       3.416   6.417  19.204  0.00  0.00    +0.000 A 
ATOM      8  C   UNL     1       4.184   6.593  18.070  0.00  0.00    +0.000 A 
ATOM      9  O   UNL     1       3.623   7.640  17.381  0.00  0.00    +0.000 OA
ATOM     10  H   UNL     1       1.075   9.328  18.264  0.00  0.00    +0.000 HD
ATOM     11  H   UNL     1       2.238   9.664  17.074  0.00  0.00    +0.000 HD
ENDBRANCH   1   8
BRANCH   3  12
ATOM     12  C   UNL     1       4.072   4.130  16.385  0.00  0.00    +0.000 C 
BRANCH  12  13
ATOM     13  C   UNL     1       3.298   3.446  17.506  0.00  0.00    +0.000 A 
ATOM     14  C   UNL     1       1.908   3.556  17.541  0.00  0.00    +0.000 A 
ATOM     15  C   UNL     1       1.201   2.898  18.544  0.00  0.00    +0.000 A 
ATOM     16  C   UNL     1       1.895   2.169  19.500  0.00  0.00    +0.000 A 
ATOM     17  C   UNL     1       3.277   2.141  19.422  0.00  0.00    +0.000 A 
ATOM     18  N   UNL     1       3.989   2.760  18.456  0.00  0.00    +0.000 NA
ENDBRANCH  12  13
ENDBRANCH   3  12
BRANCH   3  19
ATOM     19  C   UNL     1       6.556   4.220  16.292  0.00  0.00    +0.000 C 
BRANCH  19  20
ATOM     20  C   UNL     1       6.765   4.444  14.802  0.00  0.00    +0.000 A 
ATOM     21  C   UNL     1       6.108   3.642  13.869  0.00  0.00    +0.000 A 
ATOM     22  C   UNL     1       6.410   3.782  12.515  0.00  0.00    +0.000 A 
ATOM     23  C   UNL     1       7.354   4.723  12.122  0.00  0.00    +0.000 A 
ATOM     24  C   UNL     1       7.939   5.504  13.103  0.00  0.00    +0.000 A 
ATOM     25  N   UNL     1       7.666   5.392  14.426  0.00  0.00    +0.000 NA
ENDBRANCH  19  20
ENDBRANCH   3  19
TORSDOF 5
ENDMDL
MODEL 5
REMARK VINA RESULT:      -7.5      1.823      5.992
REMARK  Name = 
REMARK  5 active torsions:
REMARK  status: ('A' for Active; 'I' for Inactive)
REMARK    1  A    between atoms: C_5  and  C_6
REMARK    2  A    between atoms: N_8  and  C_9
REMARK    3  A    between atoms: N_8  and  C_16
REMARK    4  A    between atoms: C_9  and  C_10
REMARK    5  A    between atoms: C_16  and  C_17
REMARK                            x       y       z     vdW  Elec       q    Type
REMARK                         _______ _______ _______ _____ _____    ______ ____
ROOT
ATOM      1  C   UNL     1       5.029   5.961  17.225  0.00  0.00    +0.000 C 
ATOM      2  O   UNL     1       3.948   6.519  17.438  0.00  0.00    +0.000 OA
ATOM      3  N   UNL     1       5.061   4.744  16.538  0.00  0.00    +0.000 N 
ENDROOT
BRANCH   1   8
ATOM      4  N   UNL     1       8.419   9.242  17.610  0.00  0.00    +0.000 N 
ATOM      5  C   UNL     1       7.836   8.065  17.840  0.00  0.00    +0.000 A 
ATOM      6  N   UNL     1       8.248   7.091  18.611  0.00  0.00    +0.000 NA
ATOM      7  C   UNL     1       7.264   6.143  18.477  0.00  0.00    +0.000 A 
ATOM      8  C   UNL     1       6.258   6.601  17.650  0.00  0.00    +0.000 A 
ATOM      9  O   UNL     1       6.657   7.837  17.204  0.00  0.00    +0.000 OA
ATOM     10  H   UNL     1       9.381   9.313  17.923  0.00  0.00    +0.000 HD
ATOM     11  H   UNL     1       8.253   9.654  16.701  0.00  0.00    +0.000 HD
ENDBRANCH   1   8
BRANCH   3  12
ATOM     12  C   UNL     1       6.275   4.033  16.126  0.00  0.00    +0.000 C 
BRANCH  12  13
ATOM     13  C   UNL     1       6.691   4.299  14.684  0.00  0.00    +0.000 A 
ATOM     14  C   UNL     1       6.144   3.523  13.662  0.00  0.00    +0.000 A 
ATOM     15  C   UNL     1       6.495   3.795  12.342  0.00  0.00    +0.000 A 
ATOM     16  C   UNL     1       7.399   4.815  12.074  0.00  0.00    +0.000 A 
ATOM     17  C   UNL     1       7.929   5.513  13.145  0.00  0.00    +0.000 A 
ATOM     18  N   UNL     1       7.600   5.279  14.435  0.00  0.00    +0.000 NA
ENDBRANCH  12  13
ENDBRANCH   3  12
BRANCH   3  19
ATOM     19  C   UNL     1       3.792   4.066  16.267  0.00  0.00    +0.000 C 
BRANCH  19  20
ATOM     20  C   UNL     1       3.120   3.462  17.490  0.00  0.00    +0.000 A 
ATOM     21  C   UNL     1       1.795   3.775  17.794  0.00  0.00    +0.000 A 
ATOM     22  C   UNL     1       1.240   3.311  18.985  0.00  0.00    +0.000 A 
ATOM     23  C   UNL     1       2.014   2.538  19.842  0.00  0.00    +0.000 A 
ATOM     24  C   UNL     1       3.310   2.242  19.456  0.00  0.00    +0.000 A 
ATOM     25  N   UNL     1       3.877   2.678  18.305  0.00  0.00    +0.000 NA
ENDBRANCH  19  20
ENDBRANCH   3  19
TORSDOF 5
ENDMDL
MODEL 6
REMARK VINA RESULT:      -7.4      0.934      1.448
REMARK  Name = 
REMARK  5 active torsions:
REMARK  status: ('A' for Active; 'I' for Inactive)
REMARK    1  A    between atoms: C_5  and  C_6
REMARK    2  A    between atoms: N_8  and  C_9
REMARK    3  A    between atoms: N_8  and  C_16
REMARK    4  A    between atoms: C_9  and  C_10
REMARK    5  A    between atoms: C_16  and  C_17
REMARK                            x       y       z     vdW  Elec       q    Type
REMARK                         _______ _______ _______ _____ _____    ______ ____
ROOT
ATOM      1  C   UNL     1       5.366   5.841  17.645  0.00  0.00    +0.000 C 
ATOM      2  O   UNL     1       6.463   6.189  18.093  0.00  0.00    +0.000 OA
ATOM      3  N   UNL     1       5.285   4.762  16.762  0.00  0.00    +0.000 N 
ENDROOT
BRANCH   1   8
ATOM      4  N   UNL     1       1.796   8.950  17.662  0.00  0.00    +0.000 N 
ATOM      5  C   UNL     1       2.533   7.942  18.133  0.00  0.00    +0.000 A 
ATOM      6  N   UNL     1       2.330   7.220  19.206  0.00  0.00    +0.000 NA
ATOM      7  C   UNL     1       3.379   6.334  19.195  0.00  0.00    +0.000 A 
ATOM      8  C   UNL     1       4.167   6.530  18.079  0.00  0.00    +0.000 A 
ATOM      9  O   UNL     1       3.636   7.608  17.414  0.00  0.00    +0.000 OA
ATOM     10  H   UNL     1       1.105   9.315  18.308  0.00  0.00    +0.000 HD
ATOM     11  H   UNL     1       2.293   9.665  17.147  0.00  0.00    +0.000 HD
ENDBRANCH   1   8
BRANCH   3  12
ATOM     12  C   UNL     1       4.043   4.179  16.242  0.00  0.00    +0.000 C 
BRANCH  12  13
ATOM     13  C   UNL     1       3.244   3.399  17.279  0.00  0.00    +0.000 A 
ATOM     14  C   UNL     1       3.901   2.477  18.095  0.00  0.00    +0.000 A 
ATOM     15  C   UNL     1       3.175   1.795  19.068  0.00  0.00    +0.000 A 
ATOM     16  C   UNL     1       1.811   2.027  19.187  0.00  0.00    +0.000 A 
ATOM     17  C   UNL     1       1.224   2.925  18.313  0.00  0.00    +0.000 A 
ATOM     18  N   UNL     1       1.903   3.610  17.367  0.00  0.00    +0.000 NA
ENDBRANCH  12  13
ENDBRANCH   3  12
BRANCH   3  19
ATOM     19  C   UNL     1       6.531   4.200  16.235  0.00  0.00    +0.000 C 
BRANCH  19  20
ATOM     20  C   UNL     1       6.750   4.424  14.747  0.00  0.00    +0.000 A 
ATOM     21  C   UNL     1       6.111   3.613  13.809  0.00  0.00    +0.000 A 
ATOM     22  C   UNL     1       6.423   3.755  12.458  0.00  0.00    +0.000 A 
ATOM     23  C   UNL     1       7.358   4.707  12.071  0.00  0.00    +0.000 A 
ATOM     24  C   UNL     1       7.926   5.496  13.057  0.00  0.00    +0.000 A 
ATOM     25  N   UNL     1       7.643   5.382  14.377  0.00  0.00    +0.000 NA
ENDBRANCH  19  20
ENDBRANCH   3  19
TORSDOF 5
ENDMDL
MODEL 7
REMARK VINA RESULT:      -7.4      2.111      6.644
REMARK  Name = 
REMARK  5 active torsions:
REMARK  status: ('A' for Active; 'I' for Inactive)
REMARK    1  A    between atoms: C_5  and  C_6
REMARK    2  A    between atoms: N_8  and  C_9
REMARK    3  A    between atoms: N_8  and  C_16
REMARK    4  A    between atoms: C_9  and  C_10
REMARK    5  A    between atoms: C_16  and  C_17
REMARK                            x       y       z     vdW  Elec       q    Type
REMARK                         _______ _______ _______ _____ _____    ______ ____
ROOT
ATOM      1  C   UNL     1       4.041   4.347  17.078  0.00  0.00    +0.000 C 
ATOM      2  O   UNL     1       3.536   3.227  16.952  0.00  0.00    +0.000 OA
ATOM      3  N   UNL     1       3.336   5.357  17.738  0.00  0.00    +0.000 N 
ENDROOT
BRANCH   1   8
ATOM      4  N   UNL     1       7.529   5.371  14.047  0.00  0.00    +0.000 N 
ATOM      5  C   UNL     1       7.003   5.032  15.225  0.00  0.00    +0.000 A 
ATOM      6  N   UNL     1       7.619   4.834  16.362  0.00  0.00    +0.000 NA
ATOM      7  C   UNL     1       6.598   4.524  17.227  0.00  0.00    +0.000 A 
ATOM      8  C   UNL     1       5.380   4.586  16.580  0.00  0.00    +0.000 A 
ATOM      9  O   UNL     1       5.654   4.875  15.265  0.00  0.00    +0.000 OA
ATOM     10  H   UNL     1       8.537   5.284  13.985  0.00  0.00    +0.000 HD
ATOM     11  H   UNL     1       7.039   5.040  13.226  0.00  0.00    +0.000 HD
ENDBRANCH   1   8
BRANCH   3  12
ATOM     12  C   UNL     1       3.858   6.692  18.052  0.00  0.00    +0.000 C 
BRANCH  12  13
ATOM     13  C   UNL     1       2.780   7.714  18.391  0.00  0.00    +0.000 A 
ATOM     14  C   UNL     1       2.283   7.775  19.694  0.00  0.00    +0.000 A 
ATOM     15  C   UNL     1       1.327   8.737  20.010  0.00  0.00    +0.000 A 
ATOM     16  C   UNL     1       0.872   9.596  19.019  0.00  0.00    +0.000 A 
ATOM     17  C   UNL     1       1.383   9.446  17.741  0.00  0.00    +0.000 A 
ATOM     18  N   UNL     1       2.318   8.530  17.406  0.00  0.00    +0.000 NA
ENDBRANCH  12  13
ENDBRANCH   3  12
BRANCH   3  19
ATOM     19  C   UNL     1       1.935   5.114  18.085  0.00  0.00    +0.000 C 
BRANCH  19  20
ATOM     20  C   UNL     1       1.726   4.257  19.324  0.00  0.00    +0.000 A 
ATOM     21  C   UNL     1       2.312   4.616  20.538  0.00  0.00    +0.000 A 
ATOM     22  C   UNL     1       2.211   3.752  21.627  0.00  0.00    +0.000 A 
ATOM     23  C   UNL     1       1.523   2.554  21.484  0.00  0.00    +0.000 A 
ATOM     24  C   UNL     1       0.940   2.283  20.258  0.00  0.00    +0.000 A 
ATOM     25  N   UNL     1       1.020   3.102  19.182  0.00  0.00    +0.000 NA
ENDBRANCH  19  20
ENDBRANCH   3  19
TORSDOF 5
ENDMDL
MODEL 8
REMARK VINA RESULT:      -7.4      1.804      5.982
REMARK  Name = 
REMARK  5 active torsions:
REMARK  status: ('A' for Active; 'I' for Inactive)
REMARK    1  A    between atoms: C_5  and  C_6
REMARK    2  A    between atoms: N_8  and  C_9
REMARK    3  A    between atoms: N_8  and  C_16
REMARK    4  A    between atoms: C_9  and  C_10
REMARK    5  A    between atoms: C_16  and  C_17
REMARK                            x       y       z     vdW  Elec       q    Type
REMARK                         _______ _______ _______ _____ _____    ______ ____
ROOT
ATOM      1  C   UNL     1       5.018   5.946  17.143  0.00  0.00    +0.000 C 
ATOM      2  O   UNL     1       3.936   6.509  17.343  0.00  0.00    +0.000 OA
ATOM      3  N   UNL     1       5.057   4.750  16.422  0.00  0.00    +0.000 N 
ENDROOT
BRANCH   1   8
ATOM      4  N   UNL     1       8.434   9.173  17.710  0.00  0.00    +0.000 N 
ATOM      5  C   UNL     1       7.829   7.999  17.894  0.00  0.00    +0.000 A 
ATOM      6  N   UNL     1       8.204   7.003  18.656  0.00  0.00    +0.000 NA
ATOM      7  C   UNL     1       7.213   6.071  18.470  0.00  0.00    +0.000 A 
ATOM      8  C   UNL     1       6.240   6.560  17.622  0.00  0.00    +0.000 A 
ATOM      9  O   UNL     1       6.669   7.800  17.215  0.00  0.00    +0.000 OA
ATOM     10  H   UNL     1       9.386   9.224  18.055  0.00  0.00    +0.000 HD
ATOM     11  H   UNL     1       8.303   9.607  16.805  0.00  0.00    +0.000 HD
ENDBRANCH   1   8
BRANCH   3  12
ATOM     12  C   UNL     1       6.276   4.039  16.021  0.00  0.00    +0.000 C 
BRANCH  12  13
ATOM     13  C   UNL     1       6.695   4.289  14.578  0.00  0.00    +0.000 A 
ATOM     14  C   UNL     1       6.134   3.517  13.561  0.00  0.00    +0.000 A 
ATOM     15  C   UNL     1       6.489   3.775  12.239  0.00  0.00    +0.000 A 
ATOM     16  C   UNL     1       7.411   4.776  11.965  0.00  0.00    +0.000 A 
ATOM     17  C   UNL     1       7.954   5.472  13.032  0.00  0.00    +0.000 A 
ATOM     18  N   UNL     1       7.622   5.251  14.323  0.00  0.00    +0.000 NA
ENDBRANCH  12  13
ENDBRANCH   3  12
BRANCH   3  19
ATOM     19  C   UNL     1       3.790   4.093  16.094  0.00  0.00    +0.000 C 
BRANCH  19  20
ATOM     20  C   UNL     1       3.098   3.425  17.272  0.00  0.00    +0.000 A 
ATOM     21  C   UNL     1       3.738   2.409  17.983  0.00  0.00    +0.000 A 
ATOM     22  C   UNL     1       3.039   1.726  18.976  0.00  0.00    +0.000 A 
ATOM     23  C   UNL     1       1.721   2.076  19.245  0.00  0.00    +0.000 A 
ATOM     24  C   UNL     1       1.166   3.117  18.521  0.00  0.00    +0.000 A 
ATOM     25  N   UNL     1       1.820   3.799  17.550  0.00  0.00    +0.000 NA
ENDBRANCH  19  20
ENDBRANCH   3  19
TORSDOF 5
ENDMDL
MODEL 9
REMARK VINA RESULT:      -7.3      2.060      4.000
REMARK  Name = 
REMARK  5 active torsions:
REMARK  status: ('A' for Active; 'I' for Inactive)
REMARK    1  A    between atoms: C_5  and  C_6
REMARK    2  A    between atoms: N_8  and  C_9
REMARK    3  A    between atoms: N_8  and  C_16
REMARK    4  A    between atoms: C_9  and  C_10
REMARK    5  A    between atoms: C_16  and  C_17
REMARK                            x       y       z     vdW  Elec       q    Type
REMARK                         _______ _______ _______ _____ _____    ______ ____
ROOT
ATOM      1  C   UNL     1       4.353   3.960  19.137  0.00  0.00    +0.000 C 
ATOM      2  O   UNL     1       5.480   3.543  19.419  0.00  0.00    +0.000 OA
ATOM      3  N   UNL     1       4.206   5.008  18.225  0.00  0.00    +0.000 N 
ENDROOT
BRANCH   1   8
ATOM      4  N   UNL     1       1.275   2.514  22.430  0.00  0.00    +0.000 N 
ATOM      5  C   UNL     1       1.770   2.631  21.197  0.00  0.00    +0.000 A 
ATOM      6  N   UNL     1       1.269   2.181  20.075  0.00  0.00    +0.000 NA
ATOM      7  C   UNL     1       2.178   2.594  19.133  0.00  0.00    +0.000 A 
ATOM      8  C   UNL     1       3.190   3.325  19.723  0.00  0.00    +0.000 A 
ATOM      9  O   UNL     1       2.941   3.308  21.074  0.00  0.00    +0.000 OA
ATOM     10  H   UNL     1       0.523   1.842  22.529  0.00  0.00    +0.000 HD
ATOM     11  H   UNL     1       1.951   2.486  23.183  0.00  0.00    +0.000 HD
ENDBRANCH   1   8
BRANCH   3  12
ATOM     12  C   UNL     1       2.929   5.526  17.721  0.00  0.00    +0.000 C 
BRANCH  12  13
ATOM     13  C   UNL     1       2.440   6.776  18.441  0.00  0.00    +0.000 A 
ATOM     14  C   UNL     1       2.272   7.958  17.719  0.00  0.00    +0.000 A 
ATOM     15  C   UNL     1       1.787   9.089  18.371  0.00  0.00    +0.000 A 
ATOM     16  C   UNL     1       1.505   9.022  19.729  0.00  0.00    +0.000 A 
ATOM     17  C   UNL     1       1.737   7.826  20.386  0.00  0.00    +0.000 A 
ATOM     18  N   UNL     1       2.197   6.710  19.778  0.00  0.00    +0.000 NA
ENDBRANCH  12  13
ENDBRANCH   3  12
BRANCH   3  19
ATOM     19  C   UNL     1       5.409   5.716  17.780  0.00  0.00    +0.000 C 
BRANCH  19  20
ATOM     20  C   UNL     1       5.878   5.354  16.380  0.00  0.00    +0.000 A 
ATOM     21  C   UNL     1       5.095   4.539  15.562  0.00  0.00    +0.000 A 
ATOM     22  C   UNL     1       5.601   4.117  14.334  0.00  0.00    +0.000 A 
ATOM     23  C   UNL     1       6.871   4.524  13.944  0.00  0.00    +0.000 A 
ATOM     24  C   UNL     1       7.574   5.360  14.795  0.00  0.00    +0.000 A 
ATOM     25  N   UNL     1       7.109   5.786  15.994  0.00  0.00    +0.000 NA
ENDBRANCH  19  20
ENDBRANCH   3  19
TORSDOF 5
ENDMDL
