MODEL 1
REMARK VINA RESULT:      -7.8      0.000      0.000
REMARK  Name = 
REMARK  2 active torsions:
REMARK  status: ('A' for Active; 'I' for Inactive)
REMARK    1  A    between atoms: C_1  and  C_2
REMARK    2  A    between atoms: N_15  and  C_16
REMARK                            x       y       z     vdW  Elec       q    Type
REMARK                         _______ _______ _______ _____ _____    ______ ____
ROOT
ATOM      1  C   UNL     1      -0.242  15.650  22.478  0.00  0.00    +0.000 C 
ATOM      2  C   UNL     1       0.071  14.407  21.701  0.00  0.00    +0.000 A 
ATOM      3  C   UNL     1       0.900  14.508  20.588  0.00  0.00    +0.000 A 
ATOM      4  C   UNL     1       1.122  13.399  19.789  0.00  0.00    +0.000 A 
ATOM      5  C   UNL     1       0.698  12.153  20.180  0.00  0.00    +0.000 A 
ATOM      6  N   UNL     1       1.094  11.167  19.386  0.00  0.00    +0.000 NA
ATOM      7  C   UNL     1       1.052   9.916  19.873  0.00  0.00    +0.000 A 
ATOM      8  C   UNL     1       0.517   9.549  21.098  0.00  0.00    +0.000 A 
ATOM      9  C   UNL     1       0.732   8.201  21.464  0.00  0.00    +0.000 A 
ATOM     10  N   UNL     1       1.404   7.247  20.746  0.00  0.00    +0.000 NA
ATOM     11  C   UNL     1       1.869   7.690  19.549  0.00  0.00    +0.000 A 
ATOM     12  C   UNL     1       1.699   8.977  19.066  0.00  0.00    +0.000 A 
ATOM     13  C   UNL     1       2.329   9.007  17.818  0.00  0.00    +0.000 A 
ATOM     14  N   UNL     1       2.882   7.846  17.499  0.00  0.00    +0.000 NA
ATOM     15  N   UNL     1       2.631   7.029  18.573  0.00  0.00    +0.000 N 
ATOM     16  C   UNL     1      -0.098  10.614  21.828  0.00  0.00    +0.000 A 
ATOM     17 CL   UNL     1      -0.837  10.263  23.364  0.00  0.00    +0.000 Cl
ATOM     18  C   UNL     1       0.010  11.968  21.388  0.00  0.00    +0.000 A 
ATOM     19  C   UNL     1      -0.404  13.142  22.087  0.00  0.00    +0.000 A 
ENDROOT
BRANCH  15  20
ATOM     20  C   UNL     1       3.161   5.706  18.542  0.00  0.00    +0.000 A 
ATOM     21  C   UNL     1       2.464   4.713  17.819  0.00  0.00    +0.000 A 
ATOM     22  C   UNL     1       2.942   3.404  17.764  0.00  0.00    +0.000 A 
ATOM     23  C   UNL     1       4.114   3.069  18.433  0.00  0.00    +0.000 A 
ATOM     24  C   UNL     1       4.816   4.046  19.143  0.00  0.00    +0.000 A 
ATOM     25  C   UNL     1       4.348   5.363  19.198  0.00  0.00    +0.000 A 
ENDBRANCH  15  20
TORSDOF 1
ENDMDL
MODEL 2
REMARK VINA RESULT:      -7.7      1.053      1.107
REMARK  Name = 
REMARK  2 active torsions:
REMARK  status: ('A' for Active; 'I' for Inactive)
REMARK    1  A    between atoms: C_1  and  C_2
REMARK    2  A    between atoms: N_15  and  C_16
REMARK                            x       y       z     vdW  Elec       q    Type
REMARK                         _______ _______ _______ _____ _____    ______ ____
ROOT
ATOM      1  C   UNL     1      -1.169  14.810  23.470  0.00  0.00    +0.000 C 
ATOM      2  C   UNL     1      -0.732  13.758  22.495  0.00  0.00    +0.000 A 
ATOM      3  C   UNL     1      -0.141  14.160  21.302  0.00  0.00    +0.000 A 
ATOM      4  C   UNL     1       0.176  13.220  20.336  0.00  0.00    +0.000 A 
ATOM      5  C   UNL     1       0.099  11.876  20.610  0.00  0.00    +0.000 A 
ATOM      6  N   UNL     1       0.559  11.094  19.642  0.00  0.00    +0.000 NA
ATOM      7  C   UNL     1       0.868   9.825  19.956  0.00  0.00    +0.000 A 
ATOM      8  C   UNL     1       0.635   9.223  21.182  0.00  0.00    +0.000 A 
ATOM      9  C   UNL     1       1.191   7.932  21.328  0.00  0.00    +0.000 A 
ATOM     10  N   UNL     1       1.922   7.237  20.402  0.00  0.00    +0.000 NA
ATOM     11  C   UNL     1       2.075   7.895  19.223  0.00  0.00    +0.000 A 
ATOM     12  C   UNL     1       1.556   9.149  18.947  0.00  0.00    +0.000 A 
ATOM     13  C   UNL     1       1.948   9.449  17.638  0.00  0.00    +0.000 A 
ATOM     14  N   UNL     1       2.675   8.486  17.091  0.00  0.00    +0.000 NA
ATOM     15  N   UNL     1       2.787   7.530  18.068  0.00  0.00    +0.000 N 
ATOM     16  C   UNL     1      -0.063  10.037  22.129  0.00  0.00    +0.000 A 
ATOM     17 CL   UNL     1      -0.443   9.371  23.691  0.00  0.00    +0.000 Cl
ATOM     18  C   UNL     1      -0.321  11.417  21.866  0.00  0.00    +0.000 A 
ATOM     19  C   UNL     1      -0.854  12.385  22.769  0.00  0.00    +0.000 A 
ENDROOT
BRANCH  15  20
ATOM     20  C   UNL     1       3.575   6.376  17.785  0.00  0.00    +0.000 A 
ATOM     21  C   UNL     1       2.964   5.105  17.853  0.00  0.00    +0.000 A 
ATOM     22  C   UNL     1       3.696   3.947  17.588  0.00  0.00    +0.000 A 
ATOM     23  C   UNL     1       5.043   4.043  17.258  0.00  0.00    +0.000 A 
ATOM     24  C   UNL     1       5.654   5.297  17.178  0.00  0.00    +0.000 A 
ATOM     25  C   UNL     1       4.926   6.464  17.436  0.00  0.00    +0.000 A 
ENDBRANCH  15  20
TORSDOF 1
ENDMDL
MODEL 3
REMARK VINA RESULT:      -7.7      1.890      2.777
REMARK  Name = 
REMARK  2 active torsions:
REMARK  status: ('A' for Active; 'I' for Inactive)
REMARK    1  A    between atoms: C_1  and  C_2
REMARK    2  A    between atoms: N_15  and  C_16
REMARK                            x       y       z     vdW  Elec       q    Type
REMARK                         _______ _______ _______ _____ _____    ______ ____
ROOT
ATOM      1  C   UNL     1      -3.343  14.404  22.561  0.00  0.00    +0.000 C 
ATOM      2  C   UNL     1      -2.383  13.284  22.290  0.00  0.00    +0.000 A 
ATOM      3  C   UNL     1      -2.459  12.138  23.075  0.00  0.00    +0.000 A 
ATOM      4  C   UNL     1      -1.521  11.131  22.921  0.00  0.00    +0.000 A 
ATOM      5  C   UNL     1      -0.630  11.153  21.874  0.00  0.00    +0.000 A 
ATOM      6  N   UNL     1       0.120  10.063  21.773  0.00  0.00    +0.000 NA
ATOM      7  C   UNL     1       0.734   9.834  20.601  0.00  0.00    +0.000 A 
ATOM      8  C   UNL     1       0.749  10.701  19.520  0.00  0.00    +0.000 A 
ATOM      9  C   UNL     1       1.322  10.174  18.340  0.00  0.00    +0.000 A 
ATOM     10  N   UNL     1       1.846   8.921  18.163  0.00  0.00    +0.000 NA
ATOM     11  C   UNL     1       1.812   8.153  19.283  0.00  0.00    +0.000 A 
ATOM     12  C   UNL     1       1.304   8.563  20.505  0.00  0.00    +0.000 A 
ATOM     13  C   UNL     1       1.458   7.475  21.371  0.00  0.00    +0.000 A 
ATOM     14  N   UNL     1       2.010   6.427  20.779  0.00  0.00    +0.000 NA
ATOM     15  N   UNL     1       2.208   6.820  19.479  0.00  0.00    +0.000 N 
ATOM     16  C   UNL     1       0.112  11.961  19.750  0.00  0.00    +0.000 A 
ATOM     17 CL   UNL     1       0.103  13.144  18.475  0.00  0.00    +0.000 Cl
ATOM     18  C   UNL     1      -0.631  12.203  20.946  0.00  0.00    +0.000 A 
ATOM     19  C   UNL     1      -1.448  13.335  21.243  0.00  0.00    +0.000 A 
ENDROOT
BRANCH  15  20
ATOM     20  C   UNL     1       2.750   5.865  18.569  0.00  0.00    +0.000 A 
ATOM     21  C   UNL     1       2.029   4.675  18.325  0.00  0.00    +0.000 A 
ATOM     22  C   UNL     1       2.521   3.711  17.447  0.00  0.00    +0.000 A 
ATOM     23  C   UNL     1       3.738   3.918  16.807  0.00  0.00    +0.000 A 
ATOM     24  C   UNL     1       4.454   5.096  17.033  0.00  0.00    +0.000 A 
ATOM     25  C   UNL     1       3.965   6.072  17.909  0.00  0.00    +0.000 A 
ENDBRANCH  15  20
TORSDOF 1
ENDMDL
MODEL 4
REMARK VINA RESULT:      -7.6      1.456      1.797
REMARK  Name = 
REMARK  2 active torsions:
REMARK  status: ('A' for Active; 'I' for Inactive)
REMARK    1  A    between atoms: C_1  and  C_2
REMARK    2  A    between atoms: N_15  and  C_16
REMARK                            x       y       z     vdW  Elec       q    Type
REMARK                         _______ _______ _______ _____ _____    ______ ____
ROOT
ATOM      1  C   UNL     1       1.052  16.291  19.831  0.00  0.00    +0.000 C 
ATOM      2  C   UNL     1       1.165  14.823  19.546  0.00  0.00    +0.000 A 
ATOM      3  C   UNL     1       2.054  14.403  18.562  0.00  0.00    +0.000 A 
ATOM      4  C   UNL     1       2.105  13.067  18.201  0.00  0.00    +0.000 A 
ATOM      5  C   UNL     1       1.434  12.115  18.930  0.00  0.00    +0.000 A 
ATOM      6  N   UNL     1       1.678  10.866  18.552  0.00  0.00    +0.000 NA
ATOM      7  C   UNL     1       1.377   9.882  19.415  0.00  0.00    +0.000 A 
ATOM      8  C   UNL     1       0.720  10.049  20.624  0.00  0.00    +0.000 A 
ATOM      9  C   UNL     1       0.659   8.892  21.434  0.00  0.00    +0.000 A 
ATOM     10  N   UNL     1       1.175   7.655  21.150  0.00  0.00    +0.000 NA
ATOM     11  C   UNL     1       1.776   7.581  19.934  0.00  0.00    +0.000 A 
ATOM     12  C   UNL     1       1.876   8.634  19.039  0.00  0.00    +0.000 A 
ATOM     13  C   UNL     1       2.564   8.132  17.929  0.00  0.00    +0.000 A 
ATOM     14  N   UNL     1       2.904   6.860  18.074  0.00  0.00    +0.000 NA
ATOM     15  N   UNL     1       2.450   6.513  19.320  0.00  0.00    +0.000 N 
ATOM     16  C   UNL     1       0.280  11.383  20.890  0.00  0.00    +0.000 A 
ATOM     17 CL   UNL     1      -0.590  11.703  22.363  0.00  0.00    +0.000 Cl
ATOM     18  C   UNL     1       0.663  12.468  20.045  0.00  0.00    +0.000 A 
ATOM     19  C   UNL     1       0.441  13.860  20.269  0.00  0.00    +0.000 A 
ENDROOT
BRANCH  15  20
ATOM     20  C   UNL     1       2.722   5.192  19.785  0.00  0.00    +0.000 A 
ATOM     21  C   UNL     1       3.807   4.485  19.223  0.00  0.00    +0.000 A 
ATOM     22  C   UNL     1       4.109   3.190  19.643  0.00  0.00    +0.000 A 
ATOM     23  C   UNL     1       3.331   2.584  20.623  0.00  0.00    +0.000 A 
ATOM     24  C   UNL     1       2.261   3.279  21.193  0.00  0.00    +0.000 A 
ATOM     25  C   UNL     1       1.955   4.581  20.782  0.00  0.00    +0.000 A 
ENDBRANCH  15  20
TORSDOF 1
ENDMDL
MODEL 5
REMARK VINA RESULT:      -7.5      1.378      1.595
REMARK  Name = 
REMARK  2 active torsions:
REMARK  status: ('A' for Active; 'I' for Inactive)
REMARK    1  A    between atoms: C_1  and  C_2
REMARK    2  A    between atoms: N_15  and  C_16
REMARK                            x       y       z     vdW  Elec       q    Type
REMARK                         _______ _______ _______ _____ _____    ______ ____
ROOT
ATOM      1  C   UNL     1       0.686  16.415  20.094  0.00  0.00    +0.000 C 
ATOM      2  C   UNL     1       0.833  14.959  19.769  0.00  0.00    +0.000 A 
ATOM      3  C   UNL     1       1.694  14.590  18.741  0.00  0.00    +0.000 A 
ATOM      4  C   UNL     1       1.772  13.265  18.346  0.00  0.00    +0.000 A 
ATOM      5  C   UNL     1       1.161  12.275  19.078  0.00  0.00    +0.000 A 
ATOM      6  N   UNL     1       1.428  11.044  18.662  0.00  0.00    +0.000 NA
ATOM      7  C   UNL     1       1.193  10.031  19.512  0.00  0.00    +0.000 A 
ATOM      8  C   UNL     1       0.580  10.149  20.749  0.00  0.00    +0.000 A 
ATOM      9  C   UNL     1       0.587   8.973  21.533  0.00  0.00    +0.000 A 
ATOM     10  N   UNL     1       1.130   7.760  21.199  0.00  0.00    +0.000 NA
ATOM     11  C   UNL     1       1.683   7.733  19.959  0.00  0.00    +0.000 A 
ATOM     12  C   UNL     1       1.714   8.808  19.087  0.00  0.00    +0.000 A 
ATOM     13  C   UNL     1       2.372   8.354  17.939  0.00  0.00    +0.000 A 
ATOM     14  N   UNL     1       2.757   7.091  18.039  0.00  0.00    +0.000 NA
ATOM     15  N   UNL     1       2.364   6.701  19.294  0.00  0.00    +0.000 N 
ATOM     16  C   UNL     1       0.110  11.463  21.065  0.00  0.00    +0.000 A 
ATOM     17 CL   UNL     1      -0.709  11.721  22.579  0.00  0.00    +0.000 Cl
ATOM     18  C   UNL     1       0.425  12.578  20.232  0.00  0.00    +0.000 A 
ATOM     19  C   UNL     1       0.169  13.957  20.498  0.00  0.00    +0.000 A 
ENDROOT
BRANCH  15  20
ATOM     20  C   UNL     1       2.696   5.380  19.716  0.00  0.00    +0.000 A 
ATOM     21  C   UNL     1       1.873   4.747  20.673  0.00  0.00    +0.000 A 
ATOM     22  C   UNL     1       2.160   3.457  21.119  0.00  0.00    +0.000 A 
ATOM     23  C   UNL     1       3.272   2.787  20.621  0.00  0.00    +0.000 A 
ATOM     24  C   UNL     1       4.087   3.400  19.666  0.00  0.00    +0.000 A 
ATOM     25  C   UNL     1       3.803   4.692  19.209  0.00  0.00    +0.000 A 
ENDBRANCH  15  20
TORSDOF 1
ENDMDL
MODEL 6
REMARK VINA RESULT:      -7.3      1.228      1.390
REMARK  Name = 
REMARK  2 active torsions:
REMARK  status: ('A' for Active; 'I' for Inactive)
REMARK    1  A    between atoms: C_1  and  C_2
REMARK    2  A    between atoms: N_15  and  C_16
REMARK                            x       y       z     vdW  Elec       q    Type
REMARK                         _______ _______ _______ _____ _____    ______ ____
ROOT
ATOM      1  C   UNL     1      -1.517  16.280  20.965  0.00  0.00    +0.000 C 
ATOM      2  C   UNL     1      -1.060  14.944  20.460  0.00  0.00    +0.000 A 
ATOM      3  C   UNL     1      -0.313  14.895  19.288  0.00  0.00    +0.000 A 
ATOM      4  C   UNL     1       0.033  13.672  18.739  0.00  0.00    +0.000 A 
ATOM      5  C   UNL     1      -0.180  12.504  19.431  0.00  0.00    +0.000 A 
ATOM      6  N   UNL     1       0.319  11.424  18.845  0.00  0.00    +0.000 NA
ATOM      7  C   UNL     1       0.489  10.326  19.600  0.00  0.00    +0.000 A 
ATOM      8  C   UNL     1       0.076  10.185  20.915  0.00  0.00    +0.000 A 
ATOM      9  C   UNL     1       0.509   8.999  21.552  0.00  0.00    +0.000 A 
ATOM     10  N   UNL     1       1.280   8.004  21.012  0.00  0.00    +0.000 NA
ATOM     11  C   UNL     1       1.612   8.216  19.712  0.00  0.00    +0.000 A 
ATOM     12  C   UNL     1       1.228   9.321  18.971  0.00  0.00    +0.000 A 
ATOM     13  C   UNL     1       1.783   9.145  17.699  0.00  0.00    +0.000 A 
ATOM     14  N   UNL     1       2.486   8.027  17.602  0.00  0.00    +0.000 NA
ATOM     15  N   UNL     1       2.415   7.455  18.847  0.00  0.00    +0.000 N 
ATOM     16  C   UNL     1      -0.654  11.297  21.439  0.00  0.00    +0.000 A 
ATOM     17 CL   UNL     1      -1.254  11.215  23.070  0.00  0.00    +0.000 Cl
ATOM     18  C   UNL     1      -0.771  12.514  20.702  0.00  0.00    +0.000 A 
ATOM     19  C   UNL     1      -1.321  13.751  21.155  0.00  0.00    +0.000 A 
ENDROOT
BRANCH  15  20
ATOM     20  C   UNL     1       3.135   6.244  19.067  0.00  0.00    +0.000 A 
ATOM     21  C   UNL     1       4.419   6.105  18.496  0.00  0.00    +0.000 A 
ATOM     22  C   UNL     1       5.158   4.937  18.681  0.00  0.00    +0.000 A 
ATOM     23  C   UNL     1       4.625   3.894  19.430  0.00  0.00    +0.000 A 
ATOM     24  C   UNL     1       3.359   4.026  20.008  0.00  0.00    +0.000 A 
ATOM     25  C   UNL     1       2.613   5.197  19.832  0.00  0.00    +0.000 A 
ENDBRANCH  15  20
TORSDOF 1
ENDMDL
MODEL 7
REMARK VINA RESULT:      -7.2      1.976      2.979
REMARK  Name = 
REMARK  2 active torsions:
REMARK  status: ('A' for Active; 'I' for Inactive)
REMARK    1  A    between atoms: C_1  and  C_2
REMARK    2  A    between atoms: N_15  and  C_16
REMARK                            x       y       z     vdW  Elec       q    Type
REMARK                         _______ _______ _______ _____ _____    ______ ____
ROOT
ATOM      1  C   UNL     1      -3.024  13.324  22.999  0.00  0.00    +0.000 C 
ATOM      2  C   UNL     1      -2.015  12.295  22.586  0.00  0.00    +0.000 A 
ATOM      3  C   UNL     1      -1.947  11.104  23.302  0.00  0.00    +0.000 A 
ATOM      4  C   UNL     1      -0.957  10.179  23.014  0.00  0.00    +0.000 A 
ATOM      5  C   UNL     1      -0.158  10.326  21.906  0.00  0.00    +0.000 A 
ATOM      6  N   UNL     1       0.655   9.302  21.680  0.00  0.00    +0.000 NA
ATOM      7  C   UNL     1       1.186   9.184  20.453  0.00  0.00    +0.000 A 
ATOM      8  C   UNL     1       1.055  10.110  19.430  0.00  0.00    +0.000 A 
ATOM      9  C   UNL     1       1.565   9.694  18.179  0.00  0.00    +0.000 A 
ATOM     10  N   UNL     1       2.159   8.495  17.886  0.00  0.00    +0.000 NA
ATOM     11  C   UNL     1       2.268   7.664  18.955  0.00  0.00    +0.000 A 
ATOM     12  C   UNL     1       1.833   7.966  20.235  0.00  0.00    +0.000 A 
ATOM     13  C   UNL     1       2.132   6.846  21.018  0.00  0.00    +0.000 A 
ATOM     14  N   UNL     1       2.705   5.877  20.321  0.00  0.00    +0.000 NA
ATOM     15  N   UNL     1       2.770   6.355  19.037  0.00  0.00    +0.000 N 
ATOM     16  C   UNL     1       0.353  11.304  19.786  0.00  0.00    +0.000 A 
ATOM     17 CL   UNL     1       0.159  12.554  18.590  0.00  0.00    +0.000 Cl
ATOM     18  C   UNL     1      -0.306  11.423  21.047  0.00  0.00    +0.000 A 
ATOM     19  C   UNL     1      -1.172  12.474  21.476  0.00  0.00    +0.000 A 
ENDROOT
BRANCH  15  20
ATOM     20  C   UNL     1       3.301   5.496  18.031  0.00  0.00    +0.000 A 
ATOM     21  C   UNL     1       4.445   5.914  17.317  0.00  0.00    +0.000 A 
ATOM     22  C   UNL     1       4.998   5.108  16.321  0.00  0.00    +0.000 A 
ATOM     23  C   UNL     1       4.413   3.883  16.022  0.00  0.00    +0.000 A 
ATOM     24  C   UNL     1       3.287   3.456  16.730  0.00  0.00    +0.000 A 
ATOM     25  C   UNL     1       2.730   4.254  17.735  0.00  0.00    +0.000 A 
ENDBRANCH  15  20
TORSDOF 1
ENDMDL
MODEL 8
REMARK VINA RESULT:      -6.8      2.726      4.304
REMARK  Name = 
REMARK  2 active torsions:
REMARK  status: ('A' for Active; 'I' for Inactive)
REMARK    1  A    between atoms: C_1  and  C_2
REMARK    2  A    between atoms: N_15  and  C_16
REMARK                            x       y       z     vdW  Elec       q    Type
REMARK                         _______ _______ _______ _____ _____    ______ ____
ROOT
ATOM      1  C   UNL     1      -5.699  15.295  23.806  0.00  0.00    +0.000 C 
ATOM      2  C   UNL     1      -4.591  14.318  23.546  0.00  0.00    +0.000 A 
ATOM      3  C   UNL     1      -4.660  13.061  24.137  0.00  0.00    +0.000 A 
ATOM      4  C   UNL     1      -3.604  12.175  24.004  0.00  0.00    +0.000 A 
ATOM      5  C   UNL     1      -2.570  12.438  23.138  0.00  0.00    +0.000 A 
ATOM      6  N   UNL     1      -1.698  11.446  23.013  0.00  0.00    +0.000 NA
ATOM      7  C   UNL     1      -0.888  11.457  21.941  0.00  0.00    +0.000 A 
ATOM      8  C   UNL     1      -0.802  12.482  21.012  0.00  0.00    +0.000 A 
ATOM      9  C   UNL     1       0.002  12.198  19.884  0.00  0.00    +0.000 A 
ATOM     10  N   UNL     1       0.682  11.038  19.624  0.00  0.00    +0.000 NA
ATOM     11  C   UNL     1       0.560  10.103  20.603  0.00  0.00    +0.000 A 
ATOM     12  C   UNL     1      -0.173  10.271  21.765  0.00  0.00    +0.000 A 
ATOM     13  C   UNL     1      -0.035   9.079  22.483  0.00  0.00    +0.000 A 
ATOM     14  N   UNL     1       0.714   8.188  21.852  0.00  0.00    +0.000 NA
ATOM     15  N   UNL     1       1.067   8.795  20.673  0.00  0.00    +0.000 N 
ATOM     16  C   UNL     1      -1.602  13.630  21.306  0.00  0.00    +0.000 A 
ATOM     17 CL   UNL     1      -1.544  14.994  20.227  0.00  0.00    +0.000 Cl
ATOM     18  C   UNL     1      -2.543  13.617  22.380  0.00  0.00    +0.000 A 
ATOM     19  C   UNL     1      -3.516  14.614  22.691  0.00  0.00    +0.000 A 
ENDROOT
BRANCH  15  20
ATOM     20  C   UNL     1       1.845   8.045  19.743  0.00  0.00    +0.000 A 
ATOM     21  C   UNL     1       2.233   8.661  18.533  0.00  0.00    +0.000 A 
ATOM     22  C   UNL     1       2.991   7.965  17.591  0.00  0.00    +0.000 A 
ATOM     23  C   UNL     1       3.364   6.650  17.841  0.00  0.00    +0.000 A 
ATOM     24  C   UNL     1       2.993   6.035  19.040  0.00  0.00    +0.000 A 
ATOM     25  C   UNL     1       2.238   6.727  19.993  0.00  0.00    +0.000 A 
ENDBRANCH  15  20
TORSDOF 1
ENDMDL
MODEL 9
REMARK VINA RESULT:      -6.7      1.961      8.111
REMARK  Name = 
REMARK  2 active torsions:
REMARK  status: ('A' for Active; 'I' for Inactive)
REMARK    1  A    between atoms: C_1  and  C_2
REMARK    2  A    between atoms: N_15  and  C_16
REMARK                            x       y       z     vdW  Elec       q    Type
REMARK                         _______ _______ _______ _____ _____    ______ ____
ROOT
ATOM      1  C   UNL     1       4.122   1.019  17.937  0.00  0.00    +0.000 C 
ATOM      2  C   UNL     1       3.843   2.485  18.080  0.00  0.00    +0.000 A 
ATOM      3  C   UNL     1       3.840   3.277  16.937  0.00  0.00    +0.000 A 
ATOM      4  C   UNL     1       3.692   4.649  17.046  0.00  0.00    +0.000 A 
ATOM      5  C   UNL     1       3.353   5.227  18.246  0.00  0.00    +0.000 A 
ATOM      6  N   UNL     1       3.114   6.530  18.176  0.00  0.00    +0.000 NA
ATOM      7  C   UNL     1       2.430   7.096  19.184  0.00  0.00    +0.000 A 
ATOM      8  C   UNL     1       2.053   6.457  20.355  0.00  0.00    +0.000 A 
ATOM      9  C   UNL     1       1.202   7.208  21.197  0.00  0.00    +0.000 A 
ATOM     10  N   UNL     1       0.722   8.472  20.973  0.00  0.00    +0.000 NA
ATOM     11  C   UNL     1       1.167   9.027  19.815  0.00  0.00    +0.000 A 
ATOM     12  C   UNL     1       2.023   8.405  18.922  0.00  0.00    +0.000 A 
ATOM     13  C   UNL     1       2.218   9.316  17.877  0.00  0.00    +0.000 A 
ATOM     14  N   UNL     1       1.542  10.441  18.051  0.00  0.00    +0.000 NA
ATOM     15  N   UNL     1       0.863  10.267  19.230  0.00  0.00    +0.000 N 
ATOM     16  C   UNL     1       2.522   5.112  20.484  0.00  0.00    +0.000 A 
ATOM     17 CL   UNL     1       2.140   4.225  21.931  0.00  0.00    +0.000 Cl
ATOM     18  C   UNL     1       3.167   4.449  19.397  0.00  0.00    +0.000 A 
ATOM     19  C   UNL     1       3.539   3.073  19.320  0.00  0.00    +0.000 A 
ENDROOT
BRANCH  15  20
ATOM     20  C   UNL     1      -0.007  11.312  19.659  0.00  0.00    +0.000 A 
ATOM     21  C   UNL     1       0.492  12.289  20.548  0.00  0.00    +0.000 A 
ATOM     22  C   UNL     1      -0.324  13.327  20.998  0.00  0.00    +0.000 A 
ATOM     23  C   UNL     1      -1.646  13.399  20.572  0.00  0.00    +0.000 A 
ATOM     24  C   UNL     1      -2.147  12.442  19.685  0.00  0.00    +0.000 A 
ATOM     25  C   UNL     1      -1.333  11.401  19.224  0.00  0.00    +0.000 A 
ENDBRANCH  15  20
TORSDOF 1
ENDMDL
