MODEL 1
REMARK VINA RESULT:      -7.1      0.000      0.000
REMARK  Name = 
REMARK  8 active torsions:
REMARK  status: ('A' for Active; 'I' for Inactive)
REMARK    1  A    between atoms: C_1  and  C_2
REMARK    2  A    between atoms: C_3  and  C_4
REMARK    3  A    between atoms: N_6  and  C_7
REMARK    4  A    between atoms: N_6  and  C_18
REMARK    5  A    between atoms: C_7  and  C_8
REMARK    6  A    between atoms: C_14  and  O_15
REMARK    7  A    between atoms: O_15  and  C_16
REMARK    8  A    between atoms: C_16  and  C_17
REMARK                            x       y       z     vdW  Elec       q    Type
REMARK                         _______ _______ _______ _____ _____    ______ ____
ROOT
ATOM      1  C   UNL     1       4.591   4.637  16.974  0.00  0.00    +0.000 C 
ENDROOT
BRANCH   1   2
ATOM      2  C   UNL     1       3.656   5.353  17.941  0.00  0.00    +0.000 A 
ATOM      3  C   UNL     1       3.140   6.633  17.649  0.00  0.00    +0.000 A 
ATOM      4  C   UNL     1       2.370   7.327  18.586  0.00  0.00    +0.000 A 
ATOM      5 BR   UNL     1       1.731   9.062  18.194  0.00  0.00    +0.000 Br
ATOM      6  C   UNL     1       2.087   6.766  19.821  0.00  0.00    +0.000 A 
ATOM      7  C   UNL     1       2.547   5.485  20.110  0.00  0.00    +0.000 A 
ATOM      8  C   UNL     1       3.319   4.760  19.186  0.00  0.00    +0.000 A 
BRANCH   8   9
ATOM      9  O   UNL     1       3.780   3.480  19.446  0.00  0.00    +0.000 OA
BRANCH   9  10
ATOM     10  C   UNL     1       2.766   2.530  19.819  0.00  0.00    +0.000 C 
ATOM     11  C   UNL     1       1.849   2.184  18.660  0.00  0.00    +0.000 C 
ENDBRANCH   9  10
ENDBRANCH   8   9
ENDBRANCH   1   2
BRANCH   1  14
ATOM     12  C   UNL     1       6.594   5.114  15.486  0.00  0.00    +0.000 C 
ATOM     13  O   UNL     1       7.714   5.569  15.277  0.00  0.00    +0.000 OA
ATOM     14  N   UNL     1       5.880   5.304  16.676  0.00  0.00    +0.000 N 
BRANCH  12  17
ATOM     15  C   UNL     1       5.039   3.316  12.163  0.00  0.00    +0.000 C 
ATOM     16  C   UNL     1       5.485   3.897  13.426  0.00  0.00    +0.000 C 
ATOM     17  C   UNL     1       5.931   4.427  14.408  0.00  0.00    +0.000 C 
ENDBRANCH  12  17
BRANCH  14  18
ATOM     18  C   UNL     1       6.381   6.331  17.565  0.00  0.00    +0.000 C 
ATOM     19  C   UNL     1       7.027   5.855  18.852  0.00  0.00    +0.000 C 
ATOM     20  C   UNL     1       7.824   6.636  17.856  0.00  0.00    +0.000 C 
ENDBRANCH  14  18
ENDBRANCH   1  14
TORSDOF 6
ENDMDL
MODEL 2
REMARK VINA RESULT:      -7.1      1.212      1.355
REMARK  Name = 
REMARK  8 active torsions:
REMARK  status: ('A' for Active; 'I' for Inactive)
REMARK    1  A    between atoms: C_1  and  C_2
REMARK    2  A    between atoms: C_3  and  C_4
REMARK    3  A    between atoms: N_6  and  C_7
REMARK    4  A    between atoms: N_6  and  C_18
REMARK    5  A    between atoms: C_7  and  C_8
REMARK    6  A    between atoms: C_14  and  O_15
REMARK    7  A    between atoms: O_15  and  C_16
REMARK    8  A    between atoms: C_16  and  C_17
REMARK                            x       y       z     vdW  Elec       q    Type
REMARK                         _______ _______ _______ _____ _____    ______ ____
ROOT
ATOM      1  C   UNL     1       4.626   5.851  16.710  0.00  0.00    +0.000 C 
ENDROOT
BRANCH   1   2
ATOM      2  C   UNL     1       3.607   5.705  17.834  0.00  0.00    +0.000 A 
ATOM      3  C   UNL     1       3.088   6.832  18.505  0.00  0.00    +0.000 A 
ATOM      4  C   UNL     1       2.238   6.685  19.603  0.00  0.00    +0.000 A 
ATOM      5 BR   UNL     1       1.594   8.208  20.520  0.00  0.00    +0.000 Br
ATOM      6  C   UNL     1       1.875   5.424  20.051  0.00  0.00    +0.000 A 
ATOM      7  C   UNL     1       2.337   4.301  19.374  0.00  0.00    +0.000 A 
ATOM      8  C   UNL     1       3.190   4.416  18.262  0.00  0.00    +0.000 A 
BRANCH   8   9
ATOM      9  O   UNL     1       3.657   3.314  17.566  0.00  0.00    +0.000 OA
BRANCH   9  10
ATOM     10  C   UNL     1       2.968   2.082  17.841  0.00  0.00    +0.000 C 
ATOM     11  C   UNL     1       3.825   1.106  18.624  0.00  0.00    +0.000 C 
ENDBRANCH   9  10
ENDBRANCH   8   9
ENDBRANCH   1   2
BRANCH   1  14
ATOM     12  C   UNL     1       6.834   4.688  16.241  0.00  0.00    +0.000 C 
ATOM     13  O   UNL     1       7.957   4.310  16.559  0.00  0.00    +0.000 OA
ATOM     14  N   UNL     1       6.031   5.515  17.036  0.00  0.00    +0.000 N 
BRANCH  12  17
ATOM     15  C   UNL     1       5.822   3.444  12.484  0.00  0.00    +0.000 C 
ATOM     16  C   UNL     1       6.057   3.964  13.828  0.00  0.00    +0.000 C 
ATOM     17  C   UNL     1       6.349   4.341  14.931  0.00  0.00    +0.000 C 
ENDBRANCH  12  17
BRANCH  14  18
ATOM     18  C   UNL     1       6.694   6.182  18.138  0.00  0.00    +0.000 C 
ATOM     19  C   UNL     1       6.596   5.507  19.493  0.00  0.00    +0.000 C 
ATOM     20  C   UNL     1       7.930   5.714  18.852  0.00  0.00    +0.000 C 
ENDBRANCH  14  18
ENDBRANCH   1  14
TORSDOF 6
ENDMDL
MODEL 3
REMARK VINA RESULT:      -6.9      2.196      3.196
REMARK  Name = 
REMARK  8 active torsions:
REMARK  status: ('A' for Active; 'I' for Inactive)
REMARK    1  A    between atoms: C_1  and  C_2
REMARK    2  A    between atoms: C_3  and  C_4
REMARK    3  A    between atoms: N_6  and  C_7
REMARK    4  A    between atoms: N_6  and  C_18
REMARK    5  A    between atoms: C_7  and  C_8
REMARK    6  A    between atoms: C_14  and  O_15
REMARK    7  A    between atoms: O_15  and  C_16
REMARK    8  A    between atoms: C_16  and  C_17
REMARK                            x       y       z     vdW  Elec       q    Type
REMARK                         _______ _______ _______ _____ _____    ______ ____
ROOT
ATOM      1  C   UNL     1       4.653   5.708  16.637  0.00  0.00    +0.000 C 
ENDROOT
BRANCH   1   2
ATOM      2  C   UNL     1       3.640   5.313  17.705  0.00  0.00    +0.000 A 
ATOM      3  C   UNL     1       3.334   3.959  17.960  0.00  0.00    +0.000 A 
ATOM      4  C   UNL     1       2.329   3.609  18.864  0.00  0.00    +0.000 A 
ATOM      5 BR   UNL     1       1.900   1.791  19.153  0.00  0.00    +0.000 Br
ATOM      6  C   UNL     1       1.617   4.587  19.542  0.00  0.00    +0.000 A 
ATOM      7  C   UNL     1       1.936   5.926  19.340  0.00  0.00    +0.000 A 
ATOM      8  C   UNL     1       2.946   6.309  18.440  0.00  0.00    +0.000 A 
BRANCH   8   9
ATOM      9  O   UNL     1       3.288   7.635  18.229  0.00  0.00    +0.000 OA
BRANCH   9  10
ATOM     10  C   UNL     1       2.259   8.442  17.630  0.00  0.00    +0.000 C 
ATOM     11  C   UNL     1       1.571   9.340  18.641  0.00  0.00    +0.000 C 
ENDBRANCH   9  10
ENDBRANCH   8   9
ENDBRANCH   1   2
BRANCH   1  14
ATOM     12  C   UNL     1       6.895   4.625  16.137  0.00  0.00    +0.000 C 
ATOM     13  O   UNL     1       8.040   4.298  16.434  0.00  0.00    +0.000 OA
ATOM     14  N   UNL     1       6.078   5.434  16.935  0.00  0.00    +0.000 N 
BRANCH  12  17
ATOM     15  C   UNL     1       5.896   3.404  12.368  0.00  0.00    +0.000 C 
ATOM     16  C   UNL     1       6.110   3.866  13.736  0.00  0.00    +0.000 C 
ATOM     17  C   UNL     1       6.395   4.234  14.844  0.00  0.00    +0.000 C 
ENDBRANCH  12  17
BRANCH  14  18
ATOM     18  C   UNL     1       6.738   6.148  18.009  0.00  0.00    +0.000 C 
ATOM     19  C   UNL     1       6.574   5.575  19.403  0.00  0.00    +0.000 C 
ATOM     20  C   UNL     1       7.933   5.680  18.791  0.00  0.00    +0.000 C 
ENDBRANCH  14  18
ENDBRANCH   1  14
TORSDOF 6
ENDMDL
MODEL 4
REMARK VINA RESULT:      -6.8      1.919      3.373
REMARK  Name = 
REMARK  8 active torsions:
REMARK  status: ('A' for Active; 'I' for Inactive)
REMARK    1  A    between atoms: C_1  and  C_2
REMARK    2  A    between atoms: C_3  and  C_4
REMARK    3  A    between atoms: N_6  and  C_7
REMARK    4  A    between atoms: N_6  and  C_18
REMARK    5  A    between atoms: C_7  and  C_8
REMARK    6  A    between atoms: C_14  and  O_15
REMARK    7  A    between atoms: O_15  and  C_16
REMARK    8  A    between atoms: C_16  and  C_17
REMARK                            x       y       z     vdW  Elec       q    Type
REMARK                         _______ _______ _______ _____ _____    ______ ____
ROOT
ATOM      1  C   UNL     1       4.391   5.196  18.711  0.00  0.00    +0.000 C 
ENDROOT
BRANCH   1   2
ATOM      2  C   UNL     1       3.275   6.155  19.109  0.00  0.00    +0.000 A 
ATOM      3  C   UNL     1       3.023   7.333  18.375  0.00  0.00    +0.000 A 
ATOM      4  C   UNL     1       2.070   8.258  18.808  0.00  0.00    +0.000 A 
ATOM      5 BR   UNL     1       1.785   9.855  17.838  0.00  0.00    +0.000 Br
ATOM      6  C   UNL     1       1.341   8.031  19.964  0.00  0.00    +0.000 A 
ATOM      7  C   UNL     1       1.540   6.853  20.677  0.00  0.00    +0.000 A 
ATOM      8  C   UNL     1       2.488   5.901  20.264  0.00  0.00    +0.000 A 
BRANCH   8   9
ATOM      9  O   UNL     1       2.699   4.716  20.950  0.00  0.00    +0.000 OA
BRANCH   9  10
ATOM     10  C   UNL     1       1.579   3.814  20.968  0.00  0.00    +0.000 C 
ATOM     11  C   UNL     1       1.901   2.510  21.673  0.00  0.00    +0.000 C 
ENDBRANCH   9  10
ENDBRANCH   8   9
ENDBRANCH   1   2
BRANCH   1  14
ATOM     12  C   UNL     1       5.246   5.310  16.322  0.00  0.00    +0.000 C 
ATOM     13  O   UNL     1       5.191   5.028  15.129  0.00  0.00    +0.000 OA
ATOM     14  N   UNL     1       4.414   4.750  17.299  0.00  0.00    +0.000 N 
BRANCH  12  17
ATOM     15  C   UNL     1       7.929   7.967  17.881  0.00  0.00    +0.000 C 
ATOM     16  C   UNL     1       7.076   6.977  17.230  0.00  0.00    +0.000 C 
ATOM     17  C   UNL     1       6.292   6.197  16.760  0.00  0.00    +0.000 C 
ENDBRANCH  12  17
BRANCH  14  18
ATOM     18  C   UNL     1       3.668   3.572  16.905  0.00  0.00    +0.000 C 
ATOM     19  C   UNL     1       3.592   2.449  17.921  0.00  0.00    +0.000 C 
ATOM     20  C   UNL     1       2.343   3.127  17.457  0.00  0.00    +0.000 C 
ENDBRANCH  14  18
ENDBRANCH   1  14
TORSDOF 6
ENDMDL
MODEL 5
REMARK VINA RESULT:      -6.8      0.955      3.324
REMARK  Name = 
REMARK  8 active torsions:
REMARK  status: ('A' for Active; 'I' for Inactive)
REMARK    1  A    between atoms: C_1  and  C_2
REMARK    2  A    between atoms: C_3  and  C_4
REMARK    3  A    between atoms: N_6  and  C_7
REMARK    4  A    between atoms: N_6  and  C_18
REMARK    5  A    between atoms: C_7  and  C_8
REMARK    6  A    between atoms: C_14  and  O_15
REMARK    7  A    between atoms: O_15  and  C_16
REMARK    8  A    between atoms: C_16  and  C_17
REMARK                            x       y       z     vdW  Elec       q    Type
REMARK                         _______ _______ _______ _____ _____    ______ ____
ROOT
ATOM      1  C   UNL     1       5.154   4.589  17.307  0.00  0.00    +0.000 C 
ENDROOT
BRANCH   1   2
ATOM      2  C   UNL     1       4.076   5.298  18.119  0.00  0.00    +0.000 A 
ATOM      3  C   UNL     1       3.534   6.531  17.699  0.00  0.00    +0.000 A 
ATOM      4  C   UNL     1       2.626   7.225  18.501  0.00  0.00    +0.000 A 
ATOM      5 BR   UNL     1       1.951   8.900  17.943  0.00  0.00    +0.000 Br
ATOM      6  C   UNL     1       2.227   6.710  19.724  0.00  0.00    +0.000 A 
ATOM      7  C   UNL     1       2.713   5.473  20.135  0.00  0.00    +0.000 A 
ATOM      8  C   UNL     1       3.624   4.748  19.348  0.00  0.00    +0.000 A 
BRANCH   8   9
ATOM      9  O   UNL     1       4.116   3.511  19.730  0.00  0.00    +0.000 OA
BRANCH   9  10
ATOM     10  C   UNL     1       3.173   2.428  19.645  0.00  0.00    +0.000 C 
ATOM     11  C   UNL     1       3.412   1.550  18.431  0.00  0.00    +0.000 C 
ENDBRANCH   9  10
ENDBRANCH   8   9
ENDBRANCH   1   2
BRANCH   1  14
ATOM     12  C   UNL     1       7.091   6.203  17.000  0.00  0.00    +0.000 C 
ATOM     13  O   UNL     1       7.752   7.002  16.344  0.00  0.00    +0.000 OA
ATOM     14  N   UNL     1       6.036   5.444  16.479  0.00  0.00    +0.000 N 
BRANCH  12  17
ATOM     15  C   UNL     1       8.517   5.231  20.703  0.00  0.00    +0.000 C 
ATOM     16  C   UNL     1       7.915   5.671  19.447  0.00  0.00    +0.000 C 
ATOM     17  C   UNL     1       7.485   5.959  18.363  0.00  0.00    +0.000 C 
ENDBRANCH  12  17
BRANCH  14  18
ATOM     18  C   UNL     1       5.934   5.396  15.035  0.00  0.00    +0.000 C 
ATOM     19  C   UNL     1       6.821   4.390  14.328  0.00  0.00    +0.000 C 
ATOM     20  C   UNL     1       5.334   4.287  14.218  0.00  0.00    +0.000 C 
ENDBRANCH  14  18
ENDBRANCH   1  14
TORSDOF 6
ENDMDL
MODEL 6
REMARK VINA RESULT:      -6.8      2.262      3.306
REMARK  Name = 
REMARK  8 active torsions:
REMARK  status: ('A' for Active; 'I' for Inactive)
REMARK    1  A    between atoms: C_1  and  C_2
REMARK    2  A    between atoms: C_3  and  C_4
REMARK    3  A    between atoms: N_6  and  C_7
REMARK    4  A    between atoms: N_6  and  C_18
REMARK    5  A    between atoms: C_7  and  C_8
REMARK    6  A    between atoms: C_14  and  O_15
REMARK    7  A    between atoms: O_15  and  C_16
REMARK    8  A    between atoms: C_16  and  C_17
REMARK                            x       y       z     vdW  Elec       q    Type
REMARK                         _______ _______ _______ _____ _____    ______ ____
ROOT
ATOM      1  C   UNL     1       4.955   6.178  16.157  0.00  0.00    +0.000 C 
ENDROOT
BRANCH   1   2
ATOM      2  C   UNL     1       4.104   5.488  17.217  0.00  0.00    +0.000 A 
ATOM      3  C   UNL     1       4.154   4.090  17.401  0.00  0.00    +0.000 A 
ATOM      4  C   UNL     1       3.294   3.453  18.299  0.00  0.00    +0.000 A 
ATOM      5 BR   UNL     1       3.342   1.574  18.493  0.00  0.00    +0.000 Br
ATOM      6  C   UNL     1       2.380   4.186  19.041  0.00  0.00    +0.000 A 
ATOM      7  C   UNL     1       2.348   5.570  18.909  0.00  0.00    +0.000 A 
ATOM      8  C   UNL     1       3.204   6.240  18.017  0.00  0.00    +0.000 A 
BRANCH   8   9
ATOM      9  O   UNL     1       3.198   7.618  17.874  0.00  0.00    +0.000 OA
BRANCH   9  10
ATOM     10  C   UNL     1       2.141   8.298  18.573  0.00  0.00    +0.000 C 
ATOM     11  C   UNL     1       1.698   9.560  17.857  0.00  0.00    +0.000 C 
ENDBRANCH   9  10
ENDBRANCH   8   9
ENDBRANCH   1   2
BRANCH   1  14
ATOM     12  C   UNL     1       6.847   4.794  15.179  0.00  0.00    +0.000 C 
ATOM     13  O   UNL     1       7.995   4.363  15.177  0.00  0.00    +0.000 OA
ATOM     14  N   UNL     1       6.375   5.766  16.070  0.00  0.00    +0.000 N 
BRANCH  12  17
ATOM     15  C   UNL     1       4.682   3.409  12.002  0.00  0.00    +0.000 C 
ATOM     16  C   UNL     1       5.327   3.931  13.204  0.00  0.00    +0.000 C 
ATOM     17  C   UNL     1       5.955   4.346  14.141  0.00  0.00    +0.000 C 
ENDBRANCH  12  17
BRANCH  14  18
ATOM     18  C   UNL     1       7.382   6.493  16.815  0.00  0.00    +0.000 C 
ATOM     19  C   UNL     1       6.904   7.704  17.592  0.00  0.00    +0.000 C 
ATOM     20  C   UNL     1       7.521   6.548  18.310  0.00  0.00    +0.000 C 
ENDBRANCH  14  18
ENDBRANCH   1  14
TORSDOF 6
ENDMDL
MODEL 7
REMARK VINA RESULT:      -6.8      2.096      4.468
REMARK  Name = 
REMARK  8 active torsions:
REMARK  status: ('A' for Active; 'I' for Inactive)
REMARK    1  A    between atoms: C_1  and  C_2
REMARK    2  A    between atoms: C_3  and  C_4
REMARK    3  A    between atoms: N_6  and  C_7
REMARK    4  A    between atoms: N_6  and  C_18
REMARK    5  A    between atoms: C_7  and  C_8
REMARK    6  A    between atoms: C_14  and  O_15
REMARK    7  A    between atoms: O_15  and  C_16
REMARK    8  A    between atoms: C_16  and  C_17
REMARK                            x       y       z     vdW  Elec       q    Type
REMARK                         _______ _______ _______ _____ _____    ______ ____
ROOT
ATOM      1  C   UNL     1       3.688   5.108  19.375  0.00  0.00    +0.000 C 
ENDROOT
BRANCH   1   2
ATOM      2  C   UNL     1       3.057   6.480  19.169  0.00  0.00    +0.000 A 
ATOM      3  C   UNL     1       2.189   7.040  20.129  0.00  0.00    +0.000 A 
ATOM      4  C   UNL     1       1.532   8.248  19.885  0.00  0.00    +0.000 A 
ATOM      5 BR   UNL     1       0.333   8.954  21.164  0.00  0.00    +0.000 Br
ATOM      6  C   UNL     1       1.731   8.931  18.696  0.00  0.00    +0.000 A 
ATOM      7  C   UNL     1       2.619   8.420  17.756  0.00  0.00    +0.000 A 
ATOM      8  C   UNL     1       3.299   7.209  17.975  0.00  0.00    +0.000 A 
BRANCH   8   9
ATOM      9  O   UNL     1       4.196   6.684  17.059  0.00  0.00    +0.000 OA
BRANCH   9  10
ATOM     10  C   UNL     1       5.447   7.387  16.960  0.00  0.00    +0.000 C 
ATOM     11  C   UNL     1       6.582   6.637  17.633  0.00  0.00    +0.000 C 
ENDBRANCH   9  10
ENDBRANCH   8   9
ENDBRANCH   1   2
BRANCH   1  14
ATOM     12  C   UNL     1       2.886   3.253  17.836  0.00  0.00    +0.000 C 
ATOM     13  O   UNL     1       2.114   2.354  17.522  0.00  0.00    +0.000 OA
ATOM     14  N   UNL     1       2.844   3.932  19.060  0.00  0.00    +0.000 N 
BRANCH  12  17
ATOM     15  C   UNL     1       6.127   3.750  15.398  0.00  0.00    +0.000 C 
ATOM     16  C   UNL     1       4.917   3.699  16.214  0.00  0.00    +0.000 C 
ATOM     17  C   UNL     1       3.964   3.565  16.933  0.00  0.00    +0.000 C 
ENDBRANCH  12  17
BRANCH  14  18
ATOM     18  C   UNL     1       2.037   3.326  20.099  0.00  0.00    +0.000 C 
ATOM     19  C   UNL     1       2.775   2.499  21.133  0.00  0.00    +0.000 C 
ATOM     20  C   UNL     1       2.012   3.714  21.551  0.00  0.00    +0.000 C 
ENDBRANCH  14  18
ENDBRANCH   1  14
TORSDOF 6
ENDMDL
MODEL 8
REMARK VINA RESULT:      -6.7      1.024      1.195
REMARK  Name = 
REMARK  8 active torsions:
REMARK  status: ('A' for Active; 'I' for Inactive)
REMARK    1  A    between atoms: C_1  and  C_2
REMARK    2  A    between atoms: C_3  and  C_4
REMARK    3  A    between atoms: N_6  and  C_7
REMARK    4  A    between atoms: N_6  and  C_18
REMARK    5  A    between atoms: C_7  and  C_8
REMARK    6  A    between atoms: C_14  and  O_15
REMARK    7  A    between atoms: O_15  and  C_16
REMARK    8  A    between atoms: C_16  and  C_17
REMARK                            x       y       z     vdW  Elec       q    Type
REMARK                         _______ _______ _______ _____ _____    ______ ____
ROOT
ATOM      1  C   UNL     1       5.657   3.967  16.866  0.00  0.00    +0.000 C 
ENDROOT
BRANCH   1   2
ATOM      2  C   UNL     1       4.663   4.702  17.757  0.00  0.00    +0.000 A 
ATOM      3  C   UNL     1       4.005   5.869  17.315  0.00  0.00    +0.000 A 
ATOM      4  C   UNL     1       3.178   6.596  18.174  0.00  0.00    +0.000 A 
ATOM      5 BR   UNL     1       2.347   8.185  17.577  0.00  0.00    +0.000 Br
ATOM      6  C   UNL     1       2.976   6.178  19.480  0.00  0.00    +0.000 A 
ATOM      7  C   UNL     1       3.578   5.004  19.921  0.00  0.00    +0.000 A 
ATOM      8  C   UNL     1       4.411   4.248  19.079  0.00  0.00    +0.000 A 
BRANCH   8   9
ATOM      9  O   UNL     1       5.014   3.071  19.491  0.00  0.00    +0.000 OA
BRANCH   9  10
ATOM     10  C   UNL     1       4.108   1.997  19.799  0.00  0.00    +0.000 C 
ATOM     11  C   UNL     1       3.459   1.418  18.556  0.00  0.00    +0.000 C 
ENDBRANCH   9  10
ENDBRANCH   8   9
ENDBRANCH   1   2
BRANCH   1  14
ATOM     12  C   UNL     1       7.019   4.870  14.921  0.00  0.00    +0.000 C 
ATOM     13  O   UNL     1       7.997   5.436  14.444  0.00  0.00    +0.000 OA
ATOM     14  N   UNL     1       6.762   4.771  16.294  0.00  0.00    +0.000 N 
BRANCH  12  17
ATOM     15  C   UNL     1       4.498   3.479  12.022  0.00  0.00    +0.000 C 
ATOM     16  C   UNL     1       5.292   3.946  13.155  0.00  0.00    +0.000 C 
ATOM     17  C   UNL     1       6.024   4.360  14.014  0.00  0.00    +0.000 C 
ENDBRANCH  12  17
BRANCH  14  18
ATOM     18  C   UNL     1       7.540   5.638  17.154  0.00  0.00    +0.000 C 
ATOM     19  C   UNL     1       7.041   7.062  17.306  0.00  0.00    +0.000 C 
ATOM     20  C   UNL     1       7.127   6.166  18.499  0.00  0.00    +0.000 C 
ENDBRANCH  14  18
ENDBRANCH   1  14
TORSDOF 6
ENDMDL
MODEL 9
REMARK VINA RESULT:      -6.7      1.153      1.321
REMARK  Name = 
REMARK  8 active torsions:
REMARK  status: ('A' for Active; 'I' for Inactive)
REMARK    1  A    between atoms: C_1  and  C_2
REMARK    2  A    between atoms: C_3  and  C_4
REMARK    3  A    between atoms: N_6  and  C_7
REMARK    4  A    between atoms: N_6  and  C_18
REMARK    5  A    between atoms: C_7  and  C_8
REMARK    6  A    between atoms: C_14  and  O_15
REMARK    7  A    between atoms: O_15  and  C_16
REMARK    8  A    between atoms: C_16  and  C_17
REMARK                            x       y       z     vdW  Elec       q    Type
REMARK                         _______ _______ _______ _____ _____    ______ ____
ROOT
ATOM      1  C   UNL     1       5.283   3.990  16.850  0.00  0.00    +0.000 C 
ENDROOT
BRANCH   1   2
ATOM      2  C   UNL     1       3.947   4.495  17.383  0.00  0.00    +0.000 A 
ATOM      3  C   UNL     1       3.673   5.875  17.485  0.00  0.00    +0.000 A 
ATOM      4  C   UNL     1       2.491   6.331  18.072  0.00  0.00    +0.000 A 
ATOM      5 BR   UNL     1       2.167   8.185  18.245  0.00  0.00    +0.000 Br
ATOM      6  C   UNL     1       1.553   5.433  18.557  0.00  0.00    +0.000 A 
ATOM      7  C   UNL     1       1.782   4.068  18.423  0.00  0.00    +0.000 A 
ATOM      8  C   UNL     1       2.960   3.578  17.832  0.00  0.00    +0.000 A 
BRANCH   8   9
ATOM      9  O   UNL     1       3.208   2.224  17.678  0.00  0.00    +0.000 OA
BRANCH   9  10
ATOM     10  C   UNL     1       3.339   1.486  18.906  0.00  0.00    +0.000 C 
ATOM     11  C   UNL     1       4.345   2.116  19.851  0.00  0.00    +0.000 C 
ENDBRANCH   9  10
ENDBRANCH   8   9
ENDBRANCH   1   2
BRANCH   1  14
ATOM     12  C   UNL     1       6.899   5.062  15.211  0.00  0.00    +0.000 C 
ATOM     13  O   UNL     1       7.807   5.835  14.921  0.00  0.00    +0.000 OA
ATOM     14  N   UNL     1       6.279   5.017  16.465  0.00  0.00    +0.000 N 
BRANCH  12  17
ATOM     15  C   UNL     1       5.513   2.992  11.972  0.00  0.00    +0.000 C 
ATOM     16  C   UNL     1       5.973   3.614  13.211  0.00  0.00    +0.000 C 
ATOM     17  C   UNL     1       6.372   4.218  14.170  0.00  0.00    +0.000 C 
ENDBRANCH  12  17
BRANCH  14  18
ATOM     18  C   UNL     1       6.533   6.138  17.345  0.00  0.00    +0.000 C 
ATOM     19  C   UNL     1       7.484   5.890  18.500  0.00  0.00    +0.000 C 
ATOM     20  C   UNL     1       7.816   6.911  17.460  0.00  0.00    +0.000 C 
ENDBRANCH  14  18
ENDBRANCH   1  14
TORSDOF 6
ENDMDL
