MODEL 1
REMARK VINA RESULT:      -6.7      0.000      0.000
REMARK  Name = 
REMARK  3 active torsions:
REMARK  status: ('A' for Active; 'I' for Inactive)
REMARK    1  A    between atoms: C_1  and  C_2
REMARK    2  A    between atoms: C_5  and  C_6
REMARK    3  A    between atoms: C_7  and  C_8
REMARK                            x       y       z     vdW  Elec       q    Type
REMARK                         _______ _______ _______ _____ _____    ______ ____
ROOT
ATOM      1  C   UNL     1       8.948   9.270  18.951  0.00  0.00    +0.000 C 
ATOM      2  C   UNL     1       8.191   8.902  17.903  0.00  0.00    +0.000 C 
ENDROOT
BRANCH   1   7
ATOM      3  C   UNL     1      11.126  14.595  19.616  0.00  0.00    +0.000 C 
ATOM      4  C   UNL     1      10.574  13.212  19.443  0.00  0.00    +0.000 A 
ATOM      5  C   UNL     1      10.445  12.637  18.176  0.00  0.00    +0.000 A 
ATOM      6  C   UNL     1       9.919  11.348  18.035  0.00  0.00    +0.000 A 
ATOM      7  C   UNL     1       9.524  10.606  19.155  0.00  0.00    +0.000 A 
ATOM      8  C   UNL     1       9.639  11.193  20.421  0.00  0.00    +0.000 A 
ATOM      9  C   UNL     1      10.165  12.481  20.563  0.00  0.00    +0.000 A 
ENDBRANCH   1   7
BRANCH   2  10
ATOM     10  C   UNL     1       7.625   7.552  17.755  0.00  0.00    +0.000 A 
ATOM     11  C   UNL     1       7.982   6.533  18.631  0.00  0.00    +0.000 A 
ATOM     12  C   UNL     1       7.419   5.269  18.459  0.00  0.00    +0.000 A 
ATOM     13  C   UNL     1       6.518   5.060  17.423  0.00  0.00    +0.000 A 
ATOM     14  C   UNL     1       6.218   6.127  16.597  0.00  0.00    +0.000 A 
ATOM     15  N   UNL     1       6.748   7.358  16.739  0.00  0.00    +0.000 NA
ENDBRANCH   2  10
TORSDOF 2
ENDMDL
MODEL 2
REMARK VINA RESULT:      -6.7      7.212      8.865
REMARK  Name = 
REMARK  3 active torsions:
REMARK  status: ('A' for Active; 'I' for Inactive)
REMARK    1  A    between atoms: C_1  and  C_2
REMARK    2  A    between atoms: C_5  and  C_6
REMARK    3  A    between atoms: C_7  and  C_8
REMARK                            x       y       z     vdW  Elec       q    Type
REMARK                         _______ _______ _______ _____ _____    ______ ____
ROOT
ATOM      1  C   UNL     1       4.412   4.127  16.180  0.00  0.00    +0.000 C 
ATOM      2  C   UNL     1       5.739   4.086  15.970  0.00  0.00    +0.000 C 
ENDROOT
BRANCH   1   7
ATOM      3  C   UNL     1       1.676   3.302  21.217  0.00  0.00    +0.000 C 
ATOM      4  C   UNL     1       2.384   3.529  19.915  0.00  0.00    +0.000 A 
ATOM      5  C   UNL     1       1.687   3.931  18.772  0.00  0.00    +0.000 A 
ATOM      6  C   UNL     1       2.366   4.127  17.565  0.00  0.00    +0.000 A 
ATOM      7  C   UNL     1       3.751   3.938  17.479  0.00  0.00    +0.000 A 
ATOM      8  C   UNL     1       4.441   3.519  18.622  0.00  0.00    +0.000 A 
ATOM      9  C   UNL     1       3.765   3.322  19.830  0.00  0.00    +0.000 A 
ENDBRANCH   1   7
BRANCH   2  10
ATOM     10  C   UNL     1       6.351   4.299  14.649  0.00  0.00    +0.000 A 
ATOM     11  C   UNL     1       5.913   3.582  13.540  0.00  0.00    +0.000 A 
ATOM     12  C   UNL     1       6.516   3.817  12.306  0.00  0.00    +0.000 A 
ATOM     13  C   UNL     1       7.534   4.757  12.212  0.00  0.00    +0.000 A 
ATOM     14  C   UNL     1       7.909   5.425  13.363  0.00  0.00    +0.000 A 
ATOM     15  N   UNL     1       7.344   5.217  14.569  0.00  0.00    +0.000 NA
ENDBRANCH   2  10
TORSDOF 2
ENDMDL
MODEL 3
REMARK VINA RESULT:      -6.6      0.707      1.387
REMARK  Name = 
REMARK  3 active torsions:
REMARK  status: ('A' for Active; 'I' for Inactive)
REMARK    1  A    between atoms: C_1  and  C_2
REMARK    2  A    between atoms: C_5  and  C_6
REMARK    3  A    between atoms: C_7  and  C_8
REMARK                            x       y       z     vdW  Elec       q    Type
REMARK                         _______ _______ _______ _____ _____    ______ ____
ROOT
ATOM      1  C   UNL     1       8.288   9.392  18.032  0.00  0.00    +0.000 C 
ATOM      2  C   UNL     1       8.405   8.135  18.494  0.00  0.00    +0.000 C 
ENDROOT
BRANCH   1   7
ATOM      3  C   UNL     1      11.380  13.854  20.049  0.00  0.00    +0.000 C 
ATOM      4  C   UNL     1      10.570  12.703  19.534  0.00  0.00    +0.000 A 
ATOM      5  C   UNL     1      10.379  11.551  20.301  0.00  0.00    +0.000 A 
ATOM      6  C   UNL     1       9.627  10.484  19.798  0.00  0.00    +0.000 A 
ATOM      7  C   UNL     1       9.043  10.552  18.527  0.00  0.00    +0.000 A 
ATOM      8  C   UNL     1       9.251  11.701  17.756  0.00  0.00    +0.000 A 
ATOM      9  C   UNL     1      10.002  12.769  18.257  0.00  0.00    +0.000 A 
ENDBRANCH   1   7
BRANCH   2  10
ATOM     10  C   UNL     1       7.636   7.004  17.951  0.00  0.00    +0.000 A 
ATOM     11  C   UNL     1       7.738   5.739  18.520  0.00  0.00    +0.000 A 
ATOM     12  C   UNL     1       6.989   4.695  17.978  0.00  0.00    +0.000 A 
ATOM     13  C   UNL     1       6.163   4.943  16.890  0.00  0.00    +0.000 A 
ATOM     14  C   UNL     1       6.121   6.229  16.385  0.00  0.00    +0.000 A 
ATOM     15  N   UNL     1       6.834   7.256  16.888  0.00  0.00    +0.000 NA
ENDBRANCH   2  10
TORSDOF 2
ENDMDL
MODEL 4
REMARK VINA RESULT:      -6.6      7.000      8.427
REMARK  Name = 
REMARK  3 active torsions:
REMARK  status: ('A' for Active; 'I' for Inactive)
REMARK    1  A    between atoms: C_1  and  C_2
REMARK    2  A    between atoms: C_5  and  C_6
REMARK    3  A    between atoms: C_7  and  C_8
REMARK                            x       y       z     vdW  Elec       q    Type
REMARK                         _______ _______ _______ _____ _____    ______ ____
ROOT
ATOM      1  C   UNL     1       4.565   4.184  16.022  0.00  0.00    +0.000 C 
ATOM      2  C   UNL     1       5.748   4.741  15.707  0.00  0.00    +0.000 C 
ENDROOT
BRANCH   1   7
ATOM      3  C   UNL     1       1.968   4.792  21.163  0.00  0.00    +0.000 C 
ATOM      4  C   UNL     1       2.648   4.625  19.837  0.00  0.00    +0.000 A 
ATOM      5  C   UNL     1       3.890   5.213  19.581  0.00  0.00    +0.000 A 
ATOM      6  C   UNL     1       4.503   5.053  18.334  0.00  0.00    +0.000 A 
ATOM      7  C   UNL     1       3.895   4.295  17.325  0.00  0.00    +0.000 A 
ATOM      8  C   UNL     1       2.643   3.723  17.581  0.00  0.00    +0.000 A 
ATOM      9  C   UNL     1       2.029   3.882  18.826  0.00  0.00    +0.000 A 
ENDBRANCH   1   7
BRANCH   2  10
ATOM     10  C   UNL     1       6.369   4.612  14.379  0.00  0.00    +0.000 A 
ATOM     11  C   UNL     1       5.861   3.717  13.443  0.00  0.00    +0.000 A 
ATOM     12  C   UNL     1       6.476   3.629  12.195  0.00  0.00    +0.000 A 
ATOM     13  C   UNL     1       7.574   4.432  11.917  0.00  0.00    +0.000 A 
ATOM     14  C   UNL     1       8.014   5.295  12.904  0.00  0.00    +0.000 A 
ATOM     15  N   UNL     1       7.440   5.399  14.119  0.00  0.00    +0.000 NA
ENDBRANCH   2  10
TORSDOF 2
ENDMDL
MODEL 5
REMARK VINA RESULT:      -6.6      1.629      7.058
REMARK  Name = 
REMARK  3 active torsions:
REMARK  status: ('A' for Active; 'I' for Inactive)
REMARK    1  A    between atoms: C_1  and  C_2
REMARK    2  A    between atoms: C_5  and  C_6
REMARK    3  A    between atoms: C_7  and  C_8
REMARK                            x       y       z     vdW  Elec       q    Type
REMARK                         _______ _______ _______ _____ _____    ______ ____
ROOT
ATOM      1  C   UNL     1       8.448   8.137  18.460  0.00  0.00    +0.000 C 
ATOM      2  C   UNL     1       8.370   9.448  18.173  0.00  0.00    +0.000 C 
ENDROOT
BRANCH   1   7
ATOM      3  C   UNL     1       4.892   3.977  16.563  0.00  0.00    +0.000 C 
ATOM      4  C   UNL     1       5.822   5.050  17.046  0.00  0.00    +0.000 A 
ATOM      5  C   UNL     1       6.834   4.770  17.969  0.00  0.00    +0.000 A 
ATOM      6  C   UNL     1       7.685   5.788  18.413  0.00  0.00    +0.000 A 
ATOM      7  C   UNL     1       7.549   7.098  17.938  0.00  0.00    +0.000 A 
ATOM      8  C   UNL     1       6.523   7.376  17.027  0.00  0.00    +0.000 A 
ATOM      9  C   UNL     1       5.672   6.361  16.581  0.00  0.00    +0.000 A 
ENDBRANCH   1   7
BRANCH   2  10
ATOM     10  C   UNL     1       9.307  10.446  18.711  0.00  0.00    +0.000 A 
ATOM     11  C   UNL     1       9.401  10.665  20.082  0.00  0.00    +0.000 A 
ATOM     12  C   UNL     1      10.305  11.616  20.551  0.00  0.00    +0.000 A 
ATOM     13  C   UNL     1      11.087  12.319  19.644  0.00  0.00    +0.000 A 
ATOM     14  C   UNL     1      10.931  12.040  18.298  0.00  0.00    +0.000 A 
ATOM     15  N   UNL     1      10.065  11.127  17.817  0.00  0.00    +0.000 NA
ENDBRANCH   2  10
TORSDOF 2
ENDMDL
MODEL 6
REMARK VINA RESULT:      -6.6      1.634      7.139
REMARK  Name = 
REMARK  3 active torsions:
REMARK  status: ('A' for Active; 'I' for Inactive)
REMARK    1  A    between atoms: C_1  and  C_2
REMARK    2  A    between atoms: C_5  and  C_6
REMARK    3  A    between atoms: C_7  and  C_8
REMARK                            x       y       z     vdW  Elec       q    Type
REMARK                         _______ _______ _______ _____ _____    ______ ____
ROOT
ATOM      1  C   UNL     1       8.359   8.081  18.509  0.00  0.00    +0.000 C 
ATOM      2  C   UNL     1       8.369   9.367  18.116  0.00  0.00    +0.000 C 
ENDROOT
BRANCH   1   7
ATOM      3  C   UNL     1       4.952   3.861  16.479  0.00  0.00    +0.000 C 
ATOM      4  C   UNL     1       5.843   4.950  16.996  0.00  0.00    +0.000 A 
ATOM      5  C   UNL     1       6.914   4.668  17.848  0.00  0.00    +0.000 A 
ATOM      6  C   UNL     1       7.728   5.700  18.326  0.00  0.00    +0.000 A 
ATOM      7  C   UNL     1       7.495   7.030  17.954  0.00  0.00    +0.000 A 
ATOM      8  C   UNL     1       6.411   7.310  17.114  0.00  0.00    +0.000 A 
ATOM      9  C   UNL     1       5.597   6.279  16.634  0.00  0.00    +0.000 A 
ENDBRANCH   1   7
BRANCH   2  10
ATOM     10  C   UNL     1       9.267  10.378  18.694  0.00  0.00    +0.000 A 
ATOM     11  C   UNL     1      10.085  11.151  17.877  0.00  0.00    +0.000 A 
ATOM     12  C   UNL     1      10.919  12.101  18.464  0.00  0.00    +0.000 A 
ATOM     13  C   UNL     1      10.913  12.253  19.845  0.00  0.00    +0.000 A 
ATOM     14  C   UNL     1      10.070  11.444  20.584  0.00  0.00    +0.000 A 
ATOM     15  N   UNL     1       9.255  10.517  20.042  0.00  0.00    +0.000 NA
ENDBRANCH   2  10
TORSDOF 2
ENDMDL
MODEL 7
REMARK VINA RESULT:      -6.6      7.147      8.629
REMARK  Name = 
REMARK  3 active torsions:
REMARK  status: ('A' for Active; 'I' for Inactive)
REMARK    1  A    between atoms: C_1  and  C_2
REMARK    2  A    between atoms: C_5  and  C_6
REMARK    3  A    between atoms: C_7  and  C_8
REMARK                            x       y       z     vdW  Elec       q    Type
REMARK                         _______ _______ _______ _____ _____    ______ ____
ROOT
ATOM      1  C   UNL     1       4.546   4.068  16.207  0.00  0.00    +0.000 C 
ATOM      2  C   UNL     1       5.825   4.395  15.956  0.00  0.00    +0.000 C 
ENDROOT
BRANCH   1   7
ATOM      3  C   UNL     1       2.220   3.738  21.501  0.00  0.00    +0.000 C 
ATOM      4  C   UNL     1       2.811   3.821  20.126  0.00  0.00    +0.000 A 
ATOM      5  C   UNL     1       3.124   2.668  19.401  0.00  0.00    +0.000 A 
ATOM      6  C   UNL     1       3.683   2.768  18.122  0.00  0.00    +0.000 A 
ATOM      7  C   UNL     1       3.928   4.017  17.540  0.00  0.00    +0.000 A 
ATOM      8  C   UNL     1       3.628   5.169  18.277  0.00  0.00    +0.000 A 
ATOM      9  C   UNL     1       3.069   5.071  19.554  0.00  0.00    +0.000 A 
ENDBRANCH   1   7
BRANCH   2  10
ATOM     10  C   UNL     1       6.390   4.447  14.599  0.00  0.00    +0.000 A 
ATOM     11  C   UNL     1       5.862   3.659  13.580  0.00  0.00    +0.000 A 
ATOM     12  C   UNL     1       6.423   3.741  12.307  0.00  0.00    +0.000 A 
ATOM     13  C   UNL     1       7.490   4.603  12.086  0.00  0.00    +0.000 A 
ATOM     14  C   UNL     1       7.954   5.349  13.153  0.00  0.00    +0.000 A 
ATOM     15  N   UNL     1       7.431   5.289  14.394  0.00  0.00    +0.000 NA
ENDBRANCH   2  10
TORSDOF 2
ENDMDL
MODEL 8
REMARK VINA RESULT:      -6.5      1.631      7.060
REMARK  Name = 
REMARK  3 active torsions:
REMARK  status: ('A' for Active; 'I' for Inactive)
REMARK    1  A    between atoms: C_1  and  C_2
REMARK    2  A    between atoms: C_5  and  C_6
REMARK    3  A    between atoms: C_7  and  C_8
REMARK                            x       y       z     vdW  Elec       q    Type
REMARK                         _______ _______ _______ _____ _____    ______ ____
ROOT
ATOM      1  C   UNL     1       8.434   8.111  18.595  0.00  0.00    +0.000 C 
ATOM      2  C   UNL     1       8.421   9.389  18.178  0.00  0.00    +0.000 C 
ENDROOT
BRANCH   1   7
ATOM      3  C   UNL     1       5.080   3.952  16.358  0.00  0.00    +0.000 C 
ATOM      4  C   UNL     1       5.939   5.032  16.945  0.00  0.00    +0.000 A 
ATOM      5  C   UNL     1       5.772   6.370  16.579  0.00  0.00    +0.000 A 
ATOM      6  C   UNL     1       6.590   7.361  17.132  0.00  0.00    +0.000 A 
ATOM      7  C   UNL     1       7.581   7.037  18.068  0.00  0.00    +0.000 A 
ATOM      8  C   UNL     1       7.755   5.693  18.418  0.00  0.00    +0.000 A 
ATOM      9  C   UNL     1       6.938   4.701  17.867  0.00  0.00    +0.000 A 
ENDBRANCH   1   7
BRANCH   2  10
ATOM     10  C   UNL     1       9.310  10.423  18.730  0.00  0.00    +0.000 A 
ATOM     11  C   UNL     1      10.136  11.168  17.894  0.00  0.00    +0.000 A 
ATOM     12  C   UNL     1      10.960  12.142  18.456  0.00  0.00    +0.000 A 
ATOM     13  C   UNL     1      10.936  12.344  19.829  0.00  0.00    +0.000 A 
ATOM     14  C   UNL     1      10.087  11.560  20.588  0.00  0.00    +0.000 A 
ATOM     15  N   UNL     1       9.281  10.612  20.071  0.00  0.00    +0.000 NA
ENDBRANCH   2  10
TORSDOF 2
ENDMDL
MODEL 9
REMARK VINA RESULT:      -6.4      1.257      2.076
REMARK  Name = 
REMARK  3 active torsions:
REMARK  status: ('A' for Active; 'I' for Inactive)
REMARK    1  A    between atoms: C_1  and  C_2
REMARK    2  A    between atoms: C_5  and  C_6
REMARK    3  A    between atoms: C_7  and  C_8
REMARK                            x       y       z     vdW  Elec       q    Type
REMARK                         _______ _______ _______ _____ _____    ______ ____
ROOT
ATOM      1  C   UNL     1       7.820   9.169  17.538  0.00  0.00    +0.000 C 
ATOM      2  C   UNL     1       7.793   7.861  17.851  0.00  0.00    +0.000 C 
ENDROOT
BRANCH   1   7
ATOM      3  C   UNL     1      11.099  13.070  20.289  0.00  0.00    +0.000 C 
ATOM      4  C   UNL     1      10.240  12.063  19.585  0.00  0.00    +0.000 A 
ATOM      5  C   UNL     1      10.035  10.787  20.117  0.00  0.00    +0.000 A 
ATOM      6  C   UNL     1       9.238   9.859  19.439  0.00  0.00    +0.000 A 
ATOM      7  C   UNL     1       8.622  10.190  18.226  0.00  0.00    +0.000 A 
ATOM      8  C   UNL     1       8.845  11.463  17.688  0.00  0.00    +0.000 A 
ATOM      9  C   UNL     1       9.641  12.392  18.364  0.00  0.00    +0.000 A 
ENDBRANCH   1   7
BRANCH   2  10
ATOM     10  C   UNL     1       6.983   6.876  17.117  0.00  0.00    +0.000 A 
ATOM     11  C   UNL     1       5.599   6.854  17.253  0.00  0.00    +0.000 A 
ATOM     12  C   UNL     1       4.868   5.907  16.537  0.00  0.00    +0.000 A 
ATOM     13  C   UNL     1       5.535   5.014  15.709  0.00  0.00    +0.000 A 
ATOM     14  C   UNL     1       6.913   5.104  15.632  0.00  0.00    +0.000 A 
ATOM     15  N   UNL     1       7.644   6.008  16.314  0.00  0.00    +0.000 NA
ENDBRANCH   2  10
TORSDOF 2
ENDMDL
