MODEL 1
REMARK VINA RESULT:      -6.4      0.000      0.000
REMARK  Name = 
REMARK  7 active torsions:
REMARK  status: ('A' for Active; 'I' for Inactive)
REMARK    1  A    between atoms: C_1  and  C_2
REMARK    2  A    between atoms: C_2  and  O_4
REMARK    3  A    between atoms: O_4  and  C_5
REMARK    4  A    between atoms: C_8  and  C_9
REMARK    5  A    between atoms: C_17  and  C_18
REMARK    6  A    between atoms: C_19  and  C_20
REMARK    7  A    between atoms: C_29  and  O_30
REMARK                            x       y       z     vdW  Elec       q    Type
REMARK                         _______ _______ _______ _____ _____    ______ ____
ROOT
ATOM      1  C   UNL     1      -4.022  15.426  24.531  0.00  0.00    +0.000 C 
ATOM      2  C   UNL     1      -4.366  16.045  23.173  0.00  0.00    +0.000 C 
ATOM      3  C   UNL     1      -3.323  15.706  22.098  0.00  0.00    +0.000 C 
ATOM      4  C   UNL     1      -2.973  14.178  21.986  0.00  0.00    +0.000 C 
ATOM      5  C   UNL     1      -4.013  13.578  20.997  0.00  0.00    +0.000 C 
ATOM      6  C   UNL     1      -2.977  13.508  23.390  0.00  0.00    +0.000 C 
ATOM      7  C   UNL     1      -2.607  12.033  23.385  0.00  0.00    +0.000 C 
ATOM      8  C   UNL     1      -1.130  11.965  22.976  0.00  0.00    +0.000 C 
ATOM      9  C   UNL     1      -0.991  12.488  21.535  0.00  0.00    +0.000 C 
ATOM     10  C   UNL     1      -1.479  13.969  21.478  0.00  0.00    +0.000 C 
ATOM     11  C   UNL     1      -1.273  14.595  20.128  0.00  0.00    +0.000 C 
ATOM     12  C   UNL     1      -0.468  13.809  19.115  0.00  0.00    +0.000 C 
ATOM     13  C   UNL     1       0.294  12.468  19.321  0.00  0.00    +0.000 C 
ATOM     14  C   UNL     1       1.518  12.732  18.375  0.00  0.00    +0.000 C 
ATOM     15  C   UNL     1      -0.226  11.038  18.779  0.00  0.00    +0.000 C 
ATOM     16  C   UNL     1      -0.200  10.185  20.051  0.00  0.00    +0.000 C 
ATOM     17  O   UNL     1      -0.892   9.207  20.291  0.00  0.00    +0.000 OA
ATOM     18  C   UNL     1       0.804  10.729  21.006  0.00  0.00    +0.000 C 
ATOM     19  C   UNL     1       0.432  12.214  20.873  0.00  0.00    +0.000 C 
ATOM     20  C   UNL     1      -4.119  13.898  24.326  0.00  0.00    +0.000 C 
ENDROOT
BRANCH  15  21
ATOM     21  C   UNL     1      -1.442  10.762  17.964  0.00  0.00    +0.000 C 
ATOM     22  C   UNL     1      -2.582  11.472  18.064  0.00  0.00    +0.000 C 
ATOM     23  C   UNL     1      -3.453  11.049  16.978  0.00  0.00    +0.000 C 
ATOM     24  O   UNL     1      -4.528  11.553  16.712  0.00  0.00    +0.000 OA
ATOM     25  O   UNL     1      -2.817  10.065  16.269  0.00  0.00    +0.000 OA
ATOM     26  C   UNL     1      -1.553   9.784  16.879  0.00  0.00    +0.000 C 
ENDBRANCH  15  21
BRANCH  19  27
ATOM     27  O   UNL     1       1.437  13.010  21.471  0.00  0.00    +0.000 OA
ATOM     28  H   UNL     1       1.013  13.616  22.108  0.00  0.00    +0.000 HD
ENDBRANCH  19  27
BRANCH   1  29
ATOM     29  O   UNL     1      -2.641  15.676  24.954  0.00  0.00    +0.000 OA
BRANCH  29  31
ATOM     30  C   UNL     1      -0.801  17.061  24.520  0.00  0.00    +0.000 C 
ATOM     31  C   UNL     1      -2.171  16.921  25.173  0.00  0.00    +0.000 C 
ATOM     32  O   UNL     1      -2.779  17.819  25.710  0.00  0.00    +0.000 OA
ENDBRANCH  29  31
ENDBRANCH   1  29
TORSDOF 4
ENDMDL
MODEL 2
REMARK VINA RESULT:      -6.1      2.256      6.109
REMARK  Name = 
REMARK  7 active torsions:
REMARK  status: ('A' for Active; 'I' for Inactive)
REMARK    1  A    between atoms: C_1  and  C_2
REMARK    2  A    between atoms: C_2  and  O_4
REMARK    3  A    between atoms: O_4  and  C_5
REMARK    4  A    between atoms: C_8  and  C_9
REMARK    5  A    between atoms: C_17  and  C_18
REMARK    6  A    between atoms: C_19  and  C_20
REMARK    7  A    between atoms: C_29  and  O_30
REMARK                            x       y       z     vdW  Elec       q    Type
REMARK                         _______ _______ _______ _____ _____    ______ ____
ROOT
ATOM      1  C   UNL     1       2.154  13.491  19.555  0.00  0.00    +0.000 C 
ATOM      2  C   UNL     1       1.650  12.045  19.607  0.00  0.00    +0.000 C 
ATOM      3  C   UNL     1       0.586  11.840  20.695  0.00  0.00    +0.000 C 
ATOM      4  C   UNL     1      -0.591  12.882  20.665  0.00  0.00    +0.000 C 
ATOM      5  C   UNL     1      -1.648  12.296  19.687  0.00  0.00    +0.000 C 
ATOM      6  C   UNL     1      -0.067  14.291  20.260  0.00  0.00    +0.000 C 
ATOM      7  C   UNL     1      -1.132  15.377  20.244  0.00  0.00    +0.000 C 
ATOM      8  C   UNL     1      -1.560  15.575  21.704  0.00  0.00    +0.000 C 
ATOM      9  C   UNL     1      -2.221  14.279  22.206  0.00  0.00    +0.000 C 
ATOM     10  C   UNL     1      -1.189  13.112  22.121  0.00  0.00    +0.000 C 
ATOM     11  C   UNL     1      -1.718  11.830  22.699  0.00  0.00    +0.000 C 
ATOM     12  C   UNL     1      -3.037  11.894  23.437  0.00  0.00    +0.000 C 
ATOM     13  C   UNL     1      -3.882  13.150  23.794  0.00  0.00    +0.000 C 
ATOM     14  C   UNL     1      -4.442  12.686  25.185  0.00  0.00    +0.000 C 
ATOM     15  C   UNL     1      -5.239  13.577  23.030  0.00  0.00    +0.000 C 
ATOM     16  C   UNL     1      -4.941  15.025  22.630  0.00  0.00    +0.000 C 
ATOM     17  O   UNL     1      -5.416  15.636  21.685  0.00  0.00    +0.000 OA
ATOM     18  C   UNL     1      -3.944  15.614  23.565  0.00  0.00    +0.000 C 
ATOM     19  C   UNL     1      -2.970  14.426  23.604  0.00  0.00    +0.000 C 
ATOM     20  C   UNL     1       0.940  14.337  19.114  0.00  0.00    +0.000 C 
ENDROOT
BRANCH  15  21
ATOM     21  C   UNL     1      -5.936  12.843  21.936  0.00  0.00    +0.000 C 
ATOM     22  C   UNL     1      -5.332  12.459  20.795  0.00  0.00    +0.000 C 
ATOM     23  C   UNL     1      -6.263  11.599  20.081  0.00  0.00    +0.000 C 
ATOM     24  O   UNL     1      -6.006  10.998  19.054  0.00  0.00    +0.000 OA
ATOM     25  O   UNL     1      -7.422  11.516  20.804  0.00  0.00    +0.000 OA
ATOM     26  C   UNL     1      -7.310  12.336  21.972  0.00  0.00    +0.000 C 
ENDBRANCH  15  21
BRANCH  19  27
ATOM     27  O   UNL     1      -2.048  14.603  24.664  0.00  0.00    +0.000 OA
ATOM     28  H   UNL     1      -2.407  14.168  25.460  0.00  0.00    +0.000 HD
ENDBRANCH  19  27
BRANCH   1  29
ATOM     29  O   UNL     1       2.544  14.021  20.864  0.00  0.00    +0.000 OA
BRANCH  29  31
ATOM     30  C   UNL     1       4.573  14.995  20.211  0.00  0.00    +0.000 C 
ATOM     31  C   UNL     1       3.836  14.140  21.235  0.00  0.00    +0.000 C 
ATOM     32  O   UNL     1       4.314  13.725  22.266  0.00  0.00    +0.000 OA
ENDBRANCH  29  31
ENDBRANCH   1  29
TORSDOF 4
ENDMDL
MODEL 3
REMARK VINA RESULT:      -5.9      2.476      5.818
REMARK  Name = 
REMARK  7 active torsions:
REMARK  status: ('A' for Active; 'I' for Inactive)
REMARK    1  A    between atoms: C_1  and  C_2
REMARK    2  A    between atoms: C_2  and  O_4
REMARK    3  A    between atoms: O_4  and  C_5
REMARK    4  A    between atoms: C_8  and  C_9
REMARK    5  A    between atoms: C_17  and  C_18
REMARK    6  A    between atoms: C_19  and  C_20
REMARK    7  A    between atoms: C_29  and  O_30
REMARK                            x       y       z     vdW  Elec       q    Type
REMARK                         _______ _______ _______ _____ _____    ______ ____
ROOT
ATOM      1  C   UNL     1       2.587  14.883  20.484  0.00  0.00    +0.000 C 
ATOM      2  C   UNL     1       2.294  13.400  20.239  0.00  0.00    +0.000 C 
ATOM      3  C   UNL     1       1.136  12.886  21.107  0.00  0.00    +0.000 C 
ATOM      4  C   UNL     1      -0.164  13.768  21.053  0.00  0.00    +0.000 C 
ATOM      5  C   UNL     1      -0.987  13.235  19.846  0.00  0.00    +0.000 C 
ATOM      6  C   UNL     1       0.200  15.278  20.951  0.00  0.00    +0.000 C 
ATOM      7  C   UNL     1      -0.998  16.214  20.935  0.00  0.00    +0.000 C 
ATOM      8  C   UNL     1      -1.640  16.109  22.325  0.00  0.00    +0.000 C 
ATOM      9  C   UNL     1      -2.168  14.676  22.518  0.00  0.00    +0.000 C 
ATOM     10  C   UNL     1      -0.977  13.673  22.417  0.00  0.00    +0.000 C 
ATOM     11  C   UNL     1      -1.388  12.257  22.706  0.00  0.00    +0.000 C 
ATOM     12  C   UNL     1      -2.789  12.035  23.234  0.00  0.00    +0.000 C 
ATOM     13  C   UNL     1      -3.845  13.102  23.642  0.00  0.00    +0.000 C 
ATOM     14  C   UNL     1      -4.512  12.343  24.843  0.00  0.00    +0.000 C 
ATOM     15  C   UNL     1      -5.137  13.486  22.750  0.00  0.00    +0.000 C 
ATOM     16  C   UNL     1      -4.999  15.006  22.625  0.00  0.00    +0.000 C 
ATOM     17  O   UNL     1      -5.428  15.707  21.721  0.00  0.00    +0.000 OA
ATOM     18  C   UNL     1      -4.230  15.543  23.781  0.00  0.00    +0.000 C 
ATOM     19  C   UNL     1      -3.110  14.491  23.789  0.00  0.00    +0.000 C 
ATOM     20  C   UNL     1       1.334  15.640  19.994  0.00  0.00    +0.000 C 
ENDROOT
BRANCH  15  21
ATOM     21  C   UNL     1      -5.569  12.870  21.464  0.00  0.00    +0.000 C 
ATOM     22  C   UNL     1      -4.773  12.769  20.382  0.00  0.00    +0.000 C 
ATOM     23  C   UNL     1      -5.465  11.935  19.412  0.00  0.00    +0.000 C 
ATOM     24  O   UNL     1      -4.991  11.560  18.355  0.00  0.00    +0.000 OA
ATOM     25  O   UNL     1      -6.681  11.581  19.930  0.00  0.00    +0.000 OA
ATOM     26  C   UNL     1      -6.844  12.194  21.214  0.00  0.00    +0.000 C 
ENDBRANCH  15  21
BRANCH  19  27
ATOM     27  O   UNL     1      -2.371  14.595  24.993  0.00  0.00    +0.000 OA
ATOM     28  H   UNL     1      -2.439  13.746  25.470  0.00  0.00    +0.000 HD
ENDBRANCH  19  27
BRANCH   1  29
ATOM     29  O   UNL     1       2.720  15.226  21.903  0.00  0.00    +0.000 OA
BRANCH  29  31
ATOM     30  C   UNL     1       4.588  16.629  22.078  0.00  0.00    +0.000 C 
ATOM     31  C   UNL     1       3.921  15.328  22.508  0.00  0.00    +0.000 C 
ATOM     32  O   UNL     1       4.360  14.565  23.338  0.00  0.00    +0.000 OA
ENDBRANCH  29  31
ENDBRANCH   1  29
TORSDOF 4
ENDMDL
MODEL 4
REMARK VINA RESULT:      -5.9      2.400      6.856
REMARK  Name = 
REMARK  7 active torsions:
REMARK  status: ('A' for Active; 'I' for Inactive)
REMARK    1  A    between atoms: C_1  and  C_2
REMARK    2  A    between atoms: C_2  and  O_4
REMARK    3  A    between atoms: O_4  and  C_5
REMARK    4  A    between atoms: C_8  and  C_9
REMARK    5  A    between atoms: C_17  and  C_18
REMARK    6  A    between atoms: C_19  and  C_20
REMARK    7  A    between atoms: C_29  and  O_30
REMARK                            x       y       z     vdW  Elec       q    Type
REMARK                         _______ _______ _______ _____ _____    ______ ____
ROOT
ATOM      1  C   UNL     1       0.621  10.080  19.425  0.00  0.00    +0.000 C 
ATOM      2  C   UNL     1      -0.267  10.557  18.271  0.00  0.00    +0.000 C 
ATOM      3  C   UNL     1      -1.577  11.186  18.768  0.00  0.00    +0.000 C 
ATOM      4  C   UNL     1      -1.395  12.286  19.876  0.00  0.00    +0.000 C 
ATOM      5  C   UNL     1      -1.181  13.623  19.112  0.00  0.00    +0.000 C 
ATOM      6  C   UNL     1      -0.229  11.912  20.836  0.00  0.00    +0.000 C 
ATOM      7  C   UNL     1      -0.006  12.901  21.969  0.00  0.00    +0.000 C 
ATOM      8  C   UNL     1      -1.241  12.799  22.873  0.00  0.00    +0.000 C 
ATOM      9  C   UNL     1      -2.475  13.267  22.080  0.00  0.00    +0.000 C 
ATOM     10  C   UNL     1      -2.663  12.345  20.836  0.00  0.00    +0.000 C 
ATOM     11  C   UNL     1      -3.913  12.662  20.066  0.00  0.00    +0.000 C 
ATOM     12  C   UNL     1      -4.880  13.647  20.687  0.00  0.00    +0.000 C 
ATOM     13  C   UNL     1      -4.817  14.299  22.098  0.00  0.00    +0.000 C 
ATOM     14  C   UNL     1      -6.354  14.355  22.413  0.00  0.00    +0.000 C 
ATOM     15  C   UNL     1      -4.380  15.830  22.370  0.00  0.00    +0.000 C 
ATOM     16  C   UNL     1      -3.264  15.665  23.406  0.00  0.00    +0.000 C 
ATOM     17  O   UNL     1      -2.330  16.427  23.603  0.00  0.00    +0.000 OA
ATOM     18  C   UNL     1      -3.460  14.399  24.165  0.00  0.00    +0.000 C 
ATOM     19  C   UNL     1      -3.778  13.489  22.968  0.00  0.00    +0.000 C 
ATOM     20  C   UNL     1       1.036  11.359  20.184  0.00  0.00    +0.000 C 
ENDROOT
BRANCH  15  21
ATOM     21  C   UNL     1      -4.035  16.870  21.360  0.00  0.00    +0.000 C 
ATOM     22  C   UNL     1      -3.001  16.763  20.504  0.00  0.00    +0.000 C 
ATOM     23  C   UNL     1      -3.113  17.856  19.551  0.00  0.00    +0.000 C 
ATOM     24  O   UNL     1      -2.396  18.007  18.579  0.00  0.00    +0.000 OA
ATOM     25  O   UNL     1      -4.204  18.614  19.883  0.00  0.00    +0.000 OA
ATOM     26  C   UNL     1      -4.806  18.081  21.068  0.00  0.00    +0.000 C 
ENDBRANCH  15  21
BRANCH  19  27
ATOM     27  O   UNL     1      -4.297  12.257  23.434  0.00  0.00    +0.000 OA
ATOM     28  H   UNL     1      -5.262  12.350  23.540  0.00  0.00    +0.000 HD
ENDBRANCH  19  27
BRANCH   1  29
ATOM     29  O   UNL     1      -0.091   9.256  20.407  0.00  0.00    +0.000 OA
BRANCH  29  31
ATOM     30  C   UNL     1      -0.035   8.954  22.730  0.00  0.00    +0.000 C 
ATOM     31  C   UNL     1       0.556   8.577  21.377  0.00  0.00    +0.000 C 
ATOM     32  O   UNL     1       1.400   7.728  21.200  0.00  0.00    +0.000 OA
ENDBRANCH  29  31
ENDBRANCH   1  29
TORSDOF 4
ENDMDL
MODEL 5
REMARK VINA RESULT:      -5.9      2.497      5.220
REMARK  Name = 
REMARK  7 active torsions:
REMARK  status: ('A' for Active; 'I' for Inactive)
REMARK    1  A    between atoms: C_1  and  C_2
REMARK    2  A    between atoms: C_2  and  O_4
REMARK    3  A    between atoms: O_4  and  C_5
REMARK    4  A    between atoms: C_8  and  C_9
REMARK    5  A    between atoms: C_17  and  C_18
REMARK    6  A    between atoms: C_19  and  C_20
REMARK    7  A    between atoms: C_29  and  O_30
REMARK                            x       y       z     vdW  Elec       q    Type
REMARK                         _______ _______ _______ _____ _____    ______ ____
ROOT
ATOM      1  C   UNL     1      -5.288  13.212  23.957  0.00  0.00    +0.000 C 
ATOM      2  C   UNL     1      -4.118  12.710  24.810  0.00  0.00    +0.000 C 
ATOM      3  C   UNL     1      -3.003  12.087  23.958  0.00  0.00    +0.000 C 
ATOM      4  C   UNL     1      -2.525  12.977  22.753  0.00  0.00    +0.000 C 
ATOM      5  C   UNL     1      -1.411  13.898  23.325  0.00  0.00    +0.000 C 
ATOM      6  C   UNL     1      -3.724  13.748  22.129  0.00  0.00    +0.000 C 
ATOM      7  C   UNL     1      -3.363  14.607  20.927  0.00  0.00    +0.000 C 
ATOM      8  C   UNL     1      -2.964  13.632  19.812  0.00  0.00    +0.000 C 
ATOM      9  C   UNL     1      -1.695  12.876  20.246  0.00  0.00    +0.000 C 
ATOM     10  C   UNL     1      -1.996  12.077  21.552  0.00  0.00    +0.000 C 
ATOM     11  C   UNL     1      -0.841  11.220  21.984  0.00  0.00    +0.000 C 
ATOM     12  C   UNL     1       0.325  11.093  21.028  0.00  0.00    +0.000 C 
ATOM     13  C   UNL     1       0.445  11.641  19.577  0.00  0.00    +0.000 C 
ATOM     14  C   UNL     1       1.287  10.478  18.942  0.00  0.00    +0.000 C 
ATOM     15  C   UNL     1       1.323  12.933  19.165  0.00  0.00    +0.000 C 
ATOM     16  C   UNL     1       0.298  13.795  18.424  0.00  0.00    +0.000 C 
ATOM     17  O   UNL     1       0.310  15.011  18.311  0.00  0.00    +0.000 OA
ATOM     18  C   UNL     1      -0.771  12.932  17.850  0.00  0.00    +0.000 C 
ATOM     19  C   UNL     1      -1.000  12.041  19.081  0.00  0.00    +0.000 C 
ATOM     20  C   UNL     1      -4.716  14.370  23.110  0.00  0.00    +0.000 C 
ENDROOT
BRANCH  15  21
ATOM     21  C   UNL     1       2.193  13.759  20.049  0.00  0.00    +0.000 C 
ATOM     22  C   UNL     1       1.822  14.186  21.271  0.00  0.00    +0.000 C 
ATOM     23  C   UNL     1       2.995  14.772  21.900  0.00  0.00    +0.000 C 
ATOM     24  O   UNL     1       3.041  15.172  23.049  0.00  0.00    +0.000 OA
ATOM     25  O   UNL     1       4.039  14.709  21.018  0.00  0.00    +0.000 OA
ATOM     26  C   UNL     1       3.586  14.132  19.789  0.00  0.00    +0.000 C 
ENDBRANCH  15  21
BRANCH  19  27
ATOM     27  O   UNL     1      -1.783  10.920  18.716  0.00  0.00    +0.000 OA
ATOM     28  H   UNL     1      -2.453  11.210  18.068  0.00  0.00    +0.000 HD
ENDBRANCH  19  27
BRANCH   1  29
ATOM     29  O   UNL     1      -5.772  12.223  22.989  0.00  0.00    +0.000 OA
BRANCH  29  31
ATOM     30  C   UNL     1      -6.901  11.570  21.043  0.00  0.00    +0.000 C 
ATOM     31  C   UNL     1      -6.945  12.369  22.340  0.00  0.00    +0.000 C 
ATOM     32  O   UNL     1      -7.916  12.954  22.762  0.00  0.00    +0.000 OA
ENDBRANCH  29  31
ENDBRANCH   1  29
TORSDOF 4
ENDMDL
MODEL 6
REMARK VINA RESULT:      -5.7      2.436      5.820
REMARK  Name = 
REMARK  7 active torsions:
REMARK  status: ('A' for Active; 'I' for Inactive)
REMARK    1  A    between atoms: C_1  and  C_2
REMARK    2  A    between atoms: C_2  and  O_4
REMARK    3  A    between atoms: O_4  and  C_5
REMARK    4  A    between atoms: C_8  and  C_9
REMARK    5  A    between atoms: C_17  and  C_18
REMARK    6  A    between atoms: C_19  and  C_20
REMARK    7  A    between atoms: C_29  and  O_30
REMARK                            x       y       z     vdW  Elec       q    Type
REMARK                         _______ _______ _______ _____ _____    ______ ____
ROOT
ATOM      1  C   UNL     1       2.833  14.936  19.699  0.00  0.00    +0.000 C 
ATOM      2  C   UNL     1       2.597  13.427  19.578  0.00  0.00    +0.000 C 
ATOM      3  C   UNL     1       1.498  12.933  20.530  0.00  0.00    +0.000 C 
ATOM      4  C   UNL     1       0.159  13.754  20.464  0.00  0.00    +0.000 C 
ATOM      5  C   UNL     1      -0.686  13.095  19.337  0.00  0.00    +0.000 C 
ATOM      6  C   UNL     1       0.450  15.265  20.234  0.00  0.00    +0.000 C 
ATOM      7  C   UNL     1      -0.789  16.147  20.199  0.00  0.00    +0.000 C 
ATOM      8  C   UNL     1      -1.371  16.121  21.618  0.00  0.00    +0.000 C 
ATOM      9  C   UNL     1      -1.826  14.686  21.940  0.00  0.00    +0.000 C 
ATOM     10  C   UNL     1      -0.596  13.730  21.866  0.00  0.00    +0.000 C 
ATOM     11  C   UNL     1      -0.931  12.324  22.277  0.00  0.00    +0.000 C 
ATOM     12  C   UNL     1      -2.299  12.085  22.878  0.00  0.00    +0.000 C 
ATOM     13  C   UNL     1      -3.385  13.134  23.249  0.00  0.00    +0.000 C 
ATOM     14  C   UNL     1      -3.970  12.443  24.531  0.00  0.00    +0.000 C 
ATOM     15  C   UNL     1      -4.727  13.394  22.386  0.00  0.00    +0.000 C 
ATOM     16  C   UNL     1      -4.663  14.904  22.141  0.00  0.00    +0.000 C 
ATOM     17  O   UNL     1      -5.157  15.515  21.206  0.00  0.00    +0.000 OA
ATOM     18  C   UNL     1      -3.874  15.561  23.220  0.00  0.00    +0.000 C 
ATOM     19  C   UNL     1      -2.708  14.561  23.260  0.00  0.00    +0.000 C 
ATOM     20  C   UNL     1       1.528  15.600  19.206  0.00  0.00    +0.000 C 
ENDROOT
BRANCH  15  21
ATOM     21  C   UNL     1      -5.180  12.663  21.170  0.00  0.00    +0.000 C 
ATOM     22  C   UNL     1      -6.413  12.141  21.031  0.00  0.00    +0.000 C 
ATOM     23  C   UNL     1      -6.545  11.700  19.651  0.00  0.00    +0.000 C 
ATOM     24  O   UNL     1      -7.568  11.265  19.155  0.00  0.00    +0.000 OA
ATOM     25  O   UNL     1      -5.365  11.944  19.002  0.00  0.00    +0.000 OA
ATOM     26  C   UNL     1      -4.423  12.501  19.926  0.00  0.00    +0.000 C 
ENDBRANCH  15  21
BRANCH  19  27
ATOM     27  O   UNL     1      -1.930  14.788  24.421  0.00  0.00    +0.000 OA
ATOM     28  H   UNL     1      -0.989  14.809  24.161  0.00  0.00    +0.000 HD
ENDBRANCH  19  27
BRANCH   1  29
ATOM     29  O   UNL     1       3.004  15.392  21.081  0.00  0.00    +0.000 OA
BRANCH  29  31
ATOM     30  C   UNL     1       5.341  15.509  21.221  0.00  0.00    +0.000 C 
ATOM     31  C   UNL     1       4.046  14.999  21.842  0.00  0.00    +0.000 C 
ATOM     32  O   UNL     1       3.965  14.423  22.903  0.00  0.00    +0.000 OA
ENDBRANCH  29  31
ENDBRANCH   1  29
TORSDOF 4
ENDMDL
MODEL 7
REMARK VINA RESULT:      -5.7      2.322      5.901
REMARK  Name = 
REMARK  7 active torsions:
REMARK  status: ('A' for Active; 'I' for Inactive)
REMARK    1  A    between atoms: C_1  and  C_2
REMARK    2  A    between atoms: C_2  and  O_4
REMARK    3  A    between atoms: O_4  and  C_5
REMARK    4  A    between atoms: C_8  and  C_9
REMARK    5  A    between atoms: C_17  and  C_18
REMARK    6  A    between atoms: C_19  and  C_20
REMARK    7  A    between atoms: C_29  and  O_30
REMARK                            x       y       z     vdW  Elec       q    Type
REMARK                         _______ _______ _______ _____ _____    ______ ____
ROOT
ATOM      1  C   UNL     1       2.828  14.603  18.914  0.00  0.00    +0.000 C 
ATOM      2  C   UNL     1       2.513  13.112  18.767  0.00  0.00    +0.000 C 
ATOM      3  C   UNL     1       1.468  12.635  19.786  0.00  0.00    +0.000 C 
ATOM      4  C   UNL     1       0.167  13.516  19.850  0.00  0.00    +0.000 C 
ATOM      5  C   UNL     1      -0.791  12.933  18.773  0.00  0.00    +0.000 C 
ATOM      6  C   UNL     1       0.511  15.019  19.645  0.00  0.00    +0.000 C 
ATOM      7  C   UNL     1      -0.684  15.956  19.733  0.00  0.00    +0.000 C 
ATOM      8  C   UNL     1      -1.156  15.908  21.192  0.00  0.00    +0.000 C 
ATOM      9  C   UNL     1      -1.653  14.484  21.505  0.00  0.00    +0.000 C 
ATOM     10  C   UNL     1      -0.478  13.477  21.305  0.00  0.00    +0.000 C 
ATOM     11  C   UNL     1      -0.845  12.075  21.698  0.00  0.00    +0.000 C 
ATOM     12  C   UNL     1      -2.174  11.876  22.397  0.00  0.00    +0.000 C 
ATOM     13  C   UNL     1      -3.178  12.959  22.883  0.00  0.00    +0.000 C 
ATOM     14  C   UNL     1      -3.694  12.251  24.185  0.00  0.00    +0.000 C 
ATOM     15  C   UNL     1      -4.568  13.307  22.136  0.00  0.00    +0.000 C 
ATOM     16  C   UNL     1      -4.452  14.821  21.933  0.00  0.00    +0.000 C 
ATOM     17  O   UNL     1      -4.987  15.485  21.059  0.00  0.00    +0.000 OA
ATOM     18  C   UNL     1      -3.553  15.404  22.967  0.00  0.00    +0.000 C 
ATOM     19  C   UNL     1      -2.436  14.353  22.885  0.00  0.00    +0.000 C 
ATOM     20  C   UNL     1       1.521  15.341  18.546  0.00  0.00    +0.000 C 
ENDROOT
BRANCH  15  21
ATOM     21  C   UNL     1      -5.147  12.640  20.937  0.00  0.00    +0.000 C 
ATOM     22  C   UNL     1      -4.486  12.497  19.772  0.00  0.00    +0.000 C 
ATOM     23  C   UNL     1      -5.283  11.624  18.925  0.00  0.00    +0.000 C 
ATOM     24  O   UNL     1      -4.938  11.207  17.835  0.00  0.00    +0.000 OA
ATOM     25  O   UNL     1      -6.426  11.288  19.600  0.00  0.00    +0.000 OA
ATOM     26  C   UNL     1      -6.438  11.952  20.869  0.00  0.00    +0.000 C 
ENDBRANCH  15  21
BRANCH  19  27
ATOM     27  O   UNL     1      -1.560  14.505  23.987  0.00  0.00    +0.000 OA
ATOM     28  H   UNL     1      -1.056  15.332  23.869  0.00  0.00    +0.000 HD
ENDBRANCH  19  27
BRANCH   1  29
ATOM     29  O   UNL     1       3.126  15.004  20.292  0.00  0.00    +0.000 OA
BRANCH  29  31
ATOM     30  C   UNL     1       4.472  14.135  22.002  0.00  0.00    +0.000 C 
ATOM     31  C   UNL     1       4.385  15.033  20.775  0.00  0.00    +0.000 C 
ATOM     32  O   UNL     1       5.324  15.598  20.260  0.00  0.00    +0.000 OA
ENDBRANCH  29  31
ENDBRANCH   1  29
TORSDOF 4
ENDMDL
MODEL 8
REMARK VINA RESULT:      -5.7      1.053      1.327
REMARK  Name = 
REMARK  7 active torsions:
REMARK  status: ('A' for Active; 'I' for Inactive)
REMARK    1  A    between atoms: C_1  and  C_2
REMARK    2  A    between atoms: C_2  and  O_4
REMARK    3  A    between atoms: O_4  and  C_5
REMARK    4  A    between atoms: C_8  and  C_9
REMARK    5  A    between atoms: C_17  and  C_18
REMARK    6  A    between atoms: C_19  and  C_20
REMARK    7  A    between atoms: C_29  and  O_30
REMARK                            x       y       z     vdW  Elec       q    Type
REMARK                         _______ _______ _______ _____ _____    ______ ____
ROOT
ATOM      1  C   UNL     1      -2.761  15.747  24.752  0.00  0.00    +0.000 C 
ATOM      2  C   UNL     1      -3.049  16.501  23.449  0.00  0.00    +0.000 C 
ATOM      3  C   UNL     1      -2.173  16.008  22.288  0.00  0.00    +0.000 C 
ATOM      4  C   UNL     1      -2.171  14.449  22.086  0.00  0.00    +0.000 C 
ATOM      5  C   UNL     1      -3.376  14.142  21.153  0.00  0.00    +0.000 C 
ATOM      6  C   UNL     1      -2.231  13.717  23.458  0.00  0.00    +0.000 C 
ATOM      7  C   UNL     1      -2.190  12.200  23.364  0.00  0.00    +0.000 C 
ATOM      8  C   UNL     1      -0.792  11.842  22.846  0.00  0.00    +0.000 C 
ATOM      9  C   UNL     1      -0.634  12.404  21.420  0.00  0.00    +0.000 C 
ATOM     10  C   UNL     1      -0.793  13.956  21.461  0.00  0.00    +0.000 C 
ATOM     11  C   UNL     1      -0.541  14.598  20.127  0.00  0.00    +0.000 C 
ATOM     12  C   UNL     1       0.008  13.717  19.026  0.00  0.00    +0.000 C 
ATOM     13  C   UNL     1       0.474  12.236  19.119  0.00  0.00    +0.000 C 
ATOM     14  C   UNL     1       1.664  12.285  18.097  0.00  0.00    +0.000 C 
ATOM     15  C   UNL     1      -0.377  10.981  18.558  0.00  0.00    +0.000 C 
ATOM     16  C   UNL     1      -0.456  10.073  19.788  0.00  0.00    +0.000 C 
ATOM     17  O   UNL     1      -1.327   9.253  20.038  0.00  0.00    +0.000 OA
ATOM     18  C   UNL     1       0.701  10.335  20.689  0.00  0.00    +0.000 C 
ATOM     19  C   UNL     1       0.651  11.870  20.645  0.00  0.00    +0.000 C 
ATOM     20  C   UNL     1      -3.200  14.289  24.491  0.00  0.00    +0.000 C 
ENDROOT
BRANCH  15  21
ATOM     21  C   UNL     1      -1.673  11.018  17.824  0.00  0.00    +0.000 C 
ATOM     22  C   UNL     1      -1.901  10.341  16.683  0.00  0.00    +0.000 C 
ATOM     23  C   UNL     1      -3.321  10.455  16.388  0.00  0.00    +0.000 C 
ATOM     24  O   UNL     1      -3.890   9.882  15.477  0.00  0.00    +0.000 OA
ATOM     25  O   UNL     1      -3.905  11.231  17.352  0.00  0.00    +0.000 OA
ATOM     26  C   UNL     1      -2.901  11.680  18.270  0.00  0.00    +0.000 C 
ENDBRANCH  15  21
BRANCH  19  27
ATOM     27  O   UNL     1       1.841  12.399  21.200  0.00  0.00    +0.000 OA
ATOM     28  H   UNL     1       1.734  12.450  22.168  0.00  0.00    +0.000 HD
ENDBRANCH  19  27
BRANCH   1  29
ATOM     29  O   UNL     1      -1.335  15.672  25.081  0.00  0.00    +0.000 OA
BRANCH  29  31
ATOM     30  C   UNL     1      -1.309  17.659  26.323  0.00  0.00    +0.000 C 
ATOM     31  C   UNL     1      -0.829  16.218  26.206  0.00  0.00    +0.000 C 
ATOM     32  O   UNL     1      -0.183  15.631  27.045  0.00  0.00    +0.000 OA
ENDBRANCH  29  31
ENDBRANCH   1  29
TORSDOF 4
ENDMDL
MODEL 9
REMARK VINA RESULT:      -5.7      2.475      6.052
REMARK  Name = 
REMARK  7 active torsions:
REMARK  status: ('A' for Active; 'I' for Inactive)
REMARK    1  A    between atoms: C_1  and  C_2
REMARK    2  A    between atoms: C_2  and  O_4
REMARK    3  A    between atoms: O_4  and  C_5
REMARK    4  A    between atoms: C_8  and  C_9
REMARK    5  A    between atoms: C_17  and  C_18
REMARK    6  A    between atoms: C_19  and  C_20
REMARK    7  A    between atoms: C_29  and  O_30
REMARK                            x       y       z     vdW  Elec       q    Type
REMARK                         _______ _______ _______ _____ _____    ______ ____
ROOT
ATOM      1  C   UNL     1       1.354  14.491  19.194  0.00  0.00    +0.000 C 
ATOM      2  C   UNL     1       1.040  12.991  19.206  0.00  0.00    +0.000 C 
ATOM      3  C   UNL     1       0.118  12.600  20.369  0.00  0.00    +0.000 C 
ATOM      4  C   UNL     1      -1.177  13.482  20.502  0.00  0.00    +0.000 C 
ATOM      5  C   UNL     1      -2.241  12.810  19.588  0.00  0.00    +0.000 C 
ATOM      6  C   UNL     1      -0.874  14.963  20.136  0.00  0.00    +0.000 C 
ATOM      7  C   UNL     1      -2.062  15.902  20.276  0.00  0.00    +0.000 C 
ATOM      8  C   UNL     1      -2.372  15.976  21.777  0.00  0.00    +0.000 C 
ATOM      9  C   UNL     1      -2.816  14.583  22.259  0.00  0.00    +0.000 C 
ATOM     10  C   UNL     1      -1.660  13.564  22.017  0.00  0.00    +0.000 C 
ATOM     11  C   UNL     1      -1.968  12.199  22.563  0.00  0.00    +0.000 C 
ATOM     12  C   UNL     1      -3.210  12.058  23.417  0.00  0.00    +0.000 C 
ATOM     13  C   UNL     1      -4.166  13.177  23.918  0.00  0.00    +0.000 C 
ATOM     14  C   UNL     1      -4.531  12.580  25.323  0.00  0.00    +0.000 C 
ATOM     15  C   UNL     1      -5.633  13.460  23.302  0.00  0.00    +0.000 C 
ATOM     16  C   UNL     1      -5.555  14.951  22.962  0.00  0.00    +0.000 C 
ATOM     17  O   UNL     1      -6.190  15.539  22.099  0.00  0.00    +0.000 OA
ATOM     18  C   UNL     1      -4.556  15.620  23.839  0.00  0.00    +0.000 C 
ATOM     19  C   UNL     1      -3.443  14.567  23.724  0.00  0.00    +0.000 C 
ATOM     20  C   UNL     1       0.008  15.193  18.910  0.00  0.00    +0.000 C 
ENDROOT
BRANCH  15  21
ATOM     21  C   UNL     1      -6.332  12.693  22.232  0.00  0.00    +0.000 C 
ATOM     22  C   UNL     1      -5.759  12.358  21.060  0.00  0.00    +0.000 C 
ATOM     23  C   UNL     1      -6.667  11.448  20.379  0.00  0.00    +0.000 C 
ATOM     24  O   UNL     1      -6.422  10.874  19.334  0.00  0.00    +0.000 OA
ATOM     25  O   UNL     1      -7.784  11.286  21.154  0.00  0.00    +0.000 OA
ATOM     26  C   UNL     1      -7.669  12.101  22.326  0.00  0.00    +0.000 C 
ENDBRANCH  15  21
BRANCH  19  27
ATOM     27  O   UNL     1      -2.454  14.812  24.707  0.00  0.00    +0.000 OA
ATOM     28  H   UNL     1      -2.063  13.958  24.970  0.00  0.00    +0.000 HD
ENDBRANCH  19  27
BRANCH   1  29
ATOM     29  O   UNL     1       1.796  15.005  20.493  0.00  0.00    +0.000 OA
BRANCH  29  31
ATOM     30  C   UNL     1       1.869  17.102  21.537  0.00  0.00    +0.000 C 
ATOM     31  C   UNL     1       2.558  16.113  20.604  0.00  0.00    +0.000 C 
ATOM     32  O   UNL     1       3.659  16.263  20.125  0.00  0.00    +0.000 OA
ENDBRANCH  29  31
ENDBRANCH   1  29
TORSDOF 4
ENDMDL
