MODEL 1
REMARK VINA RESULT:      -7.9      0.000      0.000
REMARK  Name = 
REMARK  5 active torsions:
REMARK  status: ('A' for Active; 'I' for Inactive)
REMARK    1  A    between atoms: N_1  and  C_2
REMARK    2  A    between atoms: C_6  and  C_7
REMARK    3  A    between atoms: C_7  and  N_8
REMARK    4  A    between atoms: C_11  and  N_12
REMARK    5  A    between atoms: N_12  and  C_13
REMARK                            x       y       z     vdW  Elec       q    Type
REMARK                         _______ _______ _______ _____ _____    ______ ____
ROOT
ATOM      1  N   UNL     1       3.985   4.592  19.651  0.00  0.00    +0.000 NA
ATOM      2  C   UNL     1       2.917   4.053  20.500  0.00  0.00    +0.000 C 
ATOM      3  C   UNL     1       1.644   4.829  20.207  0.00  0.00    +0.000 C 
ATOM      4  C   UNL     1       2.080   6.103  19.497  0.00  0.00    +0.000 C 
ATOM      5  C   UNL     1       3.434   5.730  18.889  0.00  0.00    +0.000 C 
ENDROOT
BRANCH   4   6
ATOM      6  N   UNL     1       2.130   7.210  20.469  0.00  0.00    +0.000 N 
ATOM      7  H   UNL     1       3.102   7.372  20.733  0.00  0.00    +0.000 HD
BRANCH   6   8
ATOM      8  C   UNL     1       1.484   8.440  20.208  0.00  0.00    +0.000 A 
ATOM      9  C   UNL     1       1.646   8.970  18.911  0.00  0.00    +0.000 A 
ATOM     10  C   UNL     1       1.016  10.144  18.508  0.00  0.00    +0.000 A 
ATOM     11  C   UNL     1       0.182  10.813  19.390  0.00  0.00    +0.000 A 
ATOM     12  C   UNL     1       0.049  10.365  20.713  0.00  0.00    +0.000 A 
ATOM     13  C   UNL     1      -0.757  11.058  21.621  0.00  0.00    +0.000 A 
ATOM     14  N   UNL     1      -0.855  10.775  22.937  0.00  0.00    +0.000 NA
ATOM     15  C   UNL     1      -0.068   9.784  23.382  0.00  0.00    +0.000 A 
ATOM     16  C   UNL     1       0.747   9.018  22.560  0.00  0.00    +0.000 A 
ATOM     17  C   UNL     1       0.770   9.231  21.165  0.00  0.00    +0.000 A 
ENDBRANCH   6   8
ENDBRANCH   4   6
BRANCH   1  18
ATOM     18  C   UNL     1       4.543   3.582  18.736  0.00  0.00    +0.000 C 
BRANCH  18  23
ATOM     19  C   UNL     1       6.689   5.856  16.558  0.00  0.00    +0.000 A 
ATOM     20  C   UNL     1       6.341   5.419  15.278  0.00  0.00    +0.000 A 
ATOM     21  C   UNL     1       5.428   4.378  15.111  0.00  0.00    +0.000 A 
ATOM     22  C   UNL     1       4.863   3.754  16.223  0.00  0.00    +0.000 A 
ATOM     23  C   UNL     1       5.236   4.147  17.516  0.00  0.00    +0.000 A 
ATOM     24  C   UNL     1       6.194   5.161  17.664  0.00  0.00    +0.000 A 
BRANCH  19  25
ATOM     25  N   UNL     1       7.666   6.846  16.727  0.00  0.00    +0.000 N 
ATOM     26  H   UNL     1       7.310   7.678  17.188  0.00  0.00    +0.000 HD
ATOM     27  H   UNL     1       8.508   6.498  17.177  0.00  0.00    +0.000 HD
ENDBRANCH  19  25
ENDBRANCH  18  23
ENDBRANCH   1  18
TORSDOF 5
ENDMDL
MODEL 2
REMARK VINA RESULT:      -7.8      1.112      1.485
REMARK  Name = 
REMARK  5 active torsions:
REMARK  status: ('A' for Active; 'I' for Inactive)
REMARK    1  A    between atoms: N_1  and  C_2
REMARK    2  A    between atoms: C_6  and  C_7
REMARK    3  A    between atoms: C_7  and  N_8
REMARK    4  A    between atoms: C_11  and  N_12
REMARK    5  A    between atoms: N_12  and  C_13
REMARK                            x       y       z     vdW  Elec       q    Type
REMARK                         _______ _______ _______ _____ _____    ______ ____
ROOT
ATOM      1  N   UNL     1       3.947   4.789  19.117  0.00  0.00    +0.000 NA
ATOM      2  C   UNL     1       3.419   4.190  20.348  0.00  0.00    +0.000 C 
ATOM      3  C   UNL     1       2.007   4.711  20.558  0.00  0.00    +0.000 C 
ATOM      4  C   UNL     1       1.876   5.945  19.676  0.00  0.00    +0.000 C 
ATOM      5  C   UNL     1       2.934   5.724  18.592  0.00  0.00    +0.000 C 
ENDROOT
BRANCH   4   6
ATOM      6  N   UNL     1       2.082   7.153  20.496  0.00  0.00    +0.000 N 
ATOM      7  H   UNL     1       3.084   7.292  20.630  0.00  0.00    +0.000 HD
BRANCH   6   8
ATOM      8  C   UNL     1       1.461   8.377  20.159  0.00  0.00    +0.000 A 
ATOM      9  C   UNL     1       1.694   8.862  18.855  0.00  0.00    +0.000 A 
ATOM     10  C   UNL     1       1.095  10.025  18.380  0.00  0.00    +0.000 A 
ATOM     11  C   UNL     1       0.220  10.728  19.194  0.00  0.00    +0.000 A 
ATOM     12  C   UNL     1       0.015  10.326  20.523  0.00  0.00    +0.000 A 
ATOM     13  C   UNL     1      -0.833  11.054  21.363  0.00  0.00    +0.000 A 
ATOM     14  N   UNL     1      -1.002  10.817  22.681  0.00  0.00    +0.000 NA
ATOM     15  C   UNL     1      -0.246   9.837  23.200  0.00  0.00    +0.000 A 
ATOM     16  C   UNL     1       0.605   9.039  22.448  0.00  0.00    +0.000 A 
ATOM     17  C   UNL     1       0.702   9.204  21.050  0.00  0.00    +0.000 A 
ENDBRANCH   6   8
ENDBRANCH   4   6
BRANCH   1  18
ATOM     18  C   UNL     1       4.293   3.780  18.101  0.00  0.00    +0.000 C 
BRANCH  18  23
ATOM     19  C   UNL     1       6.213   3.966  14.816  0.00  0.00    +0.000 A 
ATOM     20  C   UNL     1       7.215   4.886  15.135  0.00  0.00    +0.000 A 
ATOM     21  C   UNL     1       7.265   5.464  16.402  0.00  0.00    +0.000 A 
ATOM     22  C   UNL     1       6.306   5.139  17.362  0.00  0.00    +0.000 A 
ATOM     23  C   UNL     1       5.266   4.253  17.045  0.00  0.00    +0.000 A 
ATOM     24  C   UNL     1       5.202   3.721  15.748  0.00  0.00    +0.000 A 
BRANCH  19  25
ATOM     25  N   UNL     1       6.115   3.447  13.517  0.00  0.00    +0.000 N 
ATOM     26  H   UNL     1       5.308   3.799  13.012  0.00  0.00    +0.000 HD
ATOM     27  H   UNL     1       6.972   3.557  12.981  0.00  0.00    +0.000 HD
ENDBRANCH  19  25
ENDBRANCH  18  23
ENDBRANCH   1  18
TORSDOF 5
ENDMDL
MODEL 3
REMARK VINA RESULT:      -7.8      1.487      6.946
REMARK  Name = 
REMARK  5 active torsions:
REMARK  status: ('A' for Active; 'I' for Inactive)
REMARK    1  A    between atoms: N_1  and  C_2
REMARK    2  A    between atoms: C_6  and  C_7
REMARK    3  A    between atoms: C_7  and  N_8
REMARK    4  A    between atoms: C_11  and  N_12
REMARK    5  A    between atoms: N_12  and  C_13
REMARK                            x       y       z     vdW  Elec       q    Type
REMARK                         _______ _______ _______ _____ _____    ______ ____
ROOT
ATOM      1  N   UNL     1       2.764   5.559  19.154  0.00  0.00    +0.000 NA
ATOM      2  C   UNL     1       1.943   4.552  18.474  0.00  0.00    +0.000 C 
ATOM      3  C   UNL     1       2.466   3.178  18.861  0.00  0.00    +0.000 C 
ATOM      4  C   UNL     1       3.862   3.400  19.426  0.00  0.00    +0.000 C 
ATOM      5  C   UNL     1       3.830   4.857  19.896  0.00  0.00    +0.000 C 
ENDROOT
BRANCH   4   6
ATOM      6  N   UNL     1       4.862   3.115  18.381  0.00  0.00    +0.000 N 
ATOM      7  H   UNL     1       4.553   2.306  17.842  0.00  0.00    +0.000 HD
BRANCH   6   8
ATOM      8  C   UNL     1       5.321   4.132  17.514  0.00  0.00    +0.000 A 
ATOM      9  C   UNL     1       4.812   4.112  16.199  0.00  0.00    +0.000 A 
ATOM     10  C   UNL     1       5.139   5.090  15.264  0.00  0.00    +0.000 A 
ATOM     11  C   UNL     1       5.972   6.137  15.629  0.00  0.00    +0.000 A 
ATOM     12  C   UNL     1       6.561   6.159  16.902  0.00  0.00    +0.000 A 
ATOM     13  C   UNL     1       7.435   7.188  17.263  0.00  0.00    +0.000 A 
ATOM     14  N   UNL     1       8.139   7.234  18.414  0.00  0.00    +0.000 NA
ATOM     15  C   UNL     1       8.005   6.173  19.224  0.00  0.00    +0.000 A 
ATOM     16  C   UNL     1       7.144   5.114  18.971  0.00  0.00    +0.000 A 
ATOM     17  C   UNL     1       6.320   5.111  17.826  0.00  0.00    +0.000 A 
ENDBRANCH   6   8
ENDBRANCH   4   6
BRANCH   1  18
ATOM     18  C   UNL     1       1.978   6.409  20.065  0.00  0.00    +0.000 C 
BRANCH  18  23
ATOM     19  C   UNL     1       0.805  10.033  19.973  0.00  0.00    +0.000 A 
ATOM     20  C   UNL     1       1.230  10.427  18.703  0.00  0.00    +0.000 A 
ATOM     21  C   UNL     1       1.913   9.534  17.877  0.00  0.00    +0.000 A 
ATOM     22  C   UNL     1       2.189   8.240  18.319  0.00  0.00    +0.000 A 
ATOM     23  C   UNL     1       1.812   7.841  19.609  0.00  0.00    +0.000 A 
ATOM     24  C   UNL     1       1.172   8.770  20.444  0.00  0.00    +0.000 A 
BRANCH  19  25
ATOM     25  N   UNL     1       0.192  10.955  20.833  0.00  0.00    +0.000 N 
ATOM     26  H   UNL     1      -0.583  11.445  20.397  0.00  0.00    +0.000 HD
ATOM     27  H   UNL     1      -0.074  10.548  21.725  0.00  0.00    +0.000 HD
ENDBRANCH  19  25
ENDBRANCH  18  23
ENDBRANCH   1  18
TORSDOF 5
ENDMDL
MODEL 4
REMARK VINA RESULT:      -7.6      3.011      5.197
REMARK  Name = 
REMARK  5 active torsions:
REMARK  status: ('A' for Active; 'I' for Inactive)
REMARK    1  A    between atoms: N_1  and  C_2
REMARK    2  A    between atoms: C_6  and  C_7
REMARK    3  A    between atoms: C_7  and  N_8
REMARK    4  A    between atoms: C_11  and  N_12
REMARK    5  A    between atoms: N_12  and  C_13
REMARK                            x       y       z     vdW  Elec       q    Type
REMARK                         _______ _______ _______ _____ _____    ______ ____
ROOT
ATOM      1  N   UNL     1       2.176   7.142  18.756  0.00  0.00    +0.000 NA
ATOM      2  C   UNL     1       2.960   7.774  17.689  0.00  0.00    +0.000 C 
ATOM      3  C   UNL     1       2.796   9.281  17.813  0.00  0.00    +0.000 C 
ATOM      4  C   UNL     1       1.572   9.502  18.690  0.00  0.00    +0.000 C 
ATOM      5  C   UNL     1       1.470   8.205  19.497  0.00  0.00    +0.000 C 
ENDROOT
BRANCH   4   6
ATOM      6  N   UNL     1       0.404   9.784  17.835  0.00  0.00    +0.000 N 
ATOM      7  H   UNL     1       0.095   8.913  17.403  0.00  0.00    +0.000 HD
BRANCH   6   8
ATOM      8  C   UNL     1      -0.706  10.504  18.331  0.00  0.00    +0.000 A 
ATOM      9  C   UNL     1      -0.572  11.052  19.624  0.00  0.00    +0.000 A 
ATOM     10  C   UNL     1      -1.569  11.830  20.205  0.00  0.00    +0.000 A 
ATOM     11  C   UNL     1      -2.727  12.104  19.494  0.00  0.00    +0.000 A 
ATOM     12  C   UNL     1      -2.937  11.521  18.235  0.00  0.00    +0.000 A 
ATOM     13  C   UNL     1      -4.121  11.758  17.530  0.00  0.00    +0.000 A 
ATOM     14  N   UNL     1      -4.464  11.152  16.374  0.00  0.00    +0.000 NA
ATOM     15  C   UNL     1      -3.608  10.222  15.924  0.00  0.00    +0.000 A 
ATOM     16  C   UNL     1      -2.395   9.931  16.534  0.00  0.00    +0.000 A 
ATOM     17  C   UNL     1      -1.975  10.640  17.680  0.00  0.00    +0.000 A 
ENDBRANCH   6   8
ENDBRANCH   4   6
BRANCH   1  18
ATOM     18  C   UNL     1       3.009   6.343  19.671  0.00  0.00    +0.000 C 
BRANCH  18  23
ATOM     19  C   UNL     1       2.199   2.721  18.809  0.00  0.00    +0.000 A 
ATOM     20  C   UNL     1       1.535   2.306  19.965  0.00  0.00    +0.000 A 
ATOM     21  C   UNL     1       1.362   3.183  21.035  0.00  0.00    +0.000 A 
ATOM     22  C   UNL     1       1.862   4.483  20.964  0.00  0.00    +0.000 A 
ATOM     23  C   UNL     1       2.572   4.904  19.831  0.00  0.00    +0.000 A 
ATOM     24  C   UNL     1       2.782   3.991  18.786  0.00  0.00    +0.000 A 
BRANCH  19  25
ATOM     25  N   UNL     1       2.444   1.815  17.768  0.00  0.00    +0.000 N 
ATOM     26  H   UNL     1       1.885   0.970  17.842  0.00  0.00    +0.000 HD
ATOM     27  H   UNL     1       2.366   2.238  16.848  0.00  0.00    +0.000 HD
ENDBRANCH  19  25
ENDBRANCH  18  23
ENDBRANCH   1  18
TORSDOF 5
ENDMDL
MODEL 5
REMARK VINA RESULT:      -7.6      1.330      2.348
REMARK  Name = 
REMARK  5 active torsions:
REMARK  status: ('A' for Active; 'I' for Inactive)
REMARK    1  A    between atoms: N_1  and  C_2
REMARK    2  A    between atoms: C_6  and  C_7
REMARK    3  A    between atoms: C_7  and  N_8
REMARK    4  A    between atoms: C_11  and  N_12
REMARK    5  A    between atoms: N_12  and  C_13
REMARK                            x       y       z     vdW  Elec       q    Type
REMARK                         _______ _______ _______ _____ _____    ______ ____
ROOT
ATOM      1  N   UNL     1       3.252   5.764  19.002  0.00  0.00    +0.000 NA
ATOM      2  C   UNL     1       2.937   5.018  20.225  0.00  0.00    +0.000 C 
ATOM      3  C   UNL     1       1.642   5.574  20.797  0.00  0.00    +0.000 C 
ATOM      4  C   UNL     1       1.436   6.930  20.136  0.00  0.00    +0.000 C 
ATOM      5  C   UNL     1       2.232   6.818  18.832  0.00  0.00    +0.000 C 
ENDROOT
BRANCH   4   6
ATOM      6  N   UNL     1       1.900   7.992  21.047  0.00  0.00    +0.000 N 
ATOM      7  H   UNL     1       2.784   8.363  20.696  0.00  0.00    +0.000 HD
BRANCH   6   8
ATOM      8  C   UNL     1       1.045   9.049  21.430  0.00  0.00    +0.000 A 
ATOM      9  C   UNL     1       0.338   8.877  22.639  0.00  0.00    +0.000 A 
ATOM     10  C   UNL     1      -0.492   9.867  23.157  0.00  0.00    +0.000 A 
ATOM     11  C   UNL     1      -0.621  11.074  22.488  0.00  0.00    +0.000 A 
ATOM     12  C   UNL     1       0.003  11.263  21.246  0.00  0.00    +0.000 A 
ATOM     13  C   UNL     1      -0.157  12.462  20.545  0.00  0.00    +0.000 A 
ATOM     14  N   UNL     1       0.304  12.692  19.297  0.00  0.00    +0.000 NA
ATOM     15  C   UNL     1       0.908  11.656  18.696  0.00  0.00    +0.000 A 
ATOM     16  C   UNL     1       1.140  10.435  19.314  0.00  0.00    +0.000 A 
ATOM     17  C   UNL     1       0.764  10.222  20.657  0.00  0.00    +0.000 A 
ENDBRANCH   6   8
ENDBRANCH   4   6
BRANCH   1  18
ATOM     18  C   UNL     1       3.302   4.901  17.810  0.00  0.00    +0.000 C 
BRANCH  18  23
ATOM     19  C   UNL     1       6.719   6.020  16.550  0.00  0.00    +0.000 A 
ATOM     20  C   UNL     1       7.009   5.021  15.619  0.00  0.00    +0.000 A 
ATOM     21  C   UNL     1       6.115   3.972  15.406  0.00  0.00    +0.000 A 
ATOM     22  C   UNL     1       4.926   3.905  16.131  0.00  0.00    +0.000 A 
ATOM     23  C   UNL     1       4.639   4.873  17.104  0.00  0.00    +0.000 A 
ATOM     24  C   UNL     1       5.575   5.891  17.341  0.00  0.00    +0.000 A 
BRANCH  19  25
ATOM     25  N   UNL     1       7.655   7.028  16.822  0.00  0.00    +0.000 N 
ATOM     26  H   UNL     1       7.230   7.866  17.208  0.00  0.00    +0.000 HD
ATOM     27  H   UNL     1       8.431   6.704  17.392  0.00  0.00    +0.000 HD
ENDBRANCH  19  25
ENDBRANCH  18  23
ENDBRANCH   1  18
TORSDOF 5
ENDMDL
MODEL 6
REMARK VINA RESULT:      -7.6      2.992      4.724
REMARK  Name = 
REMARK  5 active torsions:
REMARK  status: ('A' for Active; 'I' for Inactive)
REMARK    1  A    between atoms: N_1  and  C_2
REMARK    2  A    between atoms: C_6  and  C_7
REMARK    3  A    between atoms: C_7  and  N_8
REMARK    4  A    between atoms: C_11  and  N_12
REMARK    5  A    between atoms: N_12  and  C_13
REMARK                            x       y       z     vdW  Elec       q    Type
REMARK                         _______ _______ _______ _____ _____    ______ ____
ROOT
ATOM      1  N   UNL     1       2.268   7.143  18.501  0.00  0.00    +0.000 NA
ATOM      2  C   UNL     1       3.057   7.950  17.563  0.00  0.00    +0.000 C 
ATOM      3  C   UNL     1       2.795   9.417  17.868  0.00  0.00    +0.000 C 
ATOM      4  C   UNL     1       1.522   9.454  18.703  0.00  0.00    +0.000 C 
ATOM      5  C   UNL     1       1.465   8.060  19.333  0.00  0.00    +0.000 C 
ENDROOT
BRANCH   4   6
ATOM      6  N   UNL     1       0.378   9.779  17.832  0.00  0.00    +0.000 N 
ATOM      7  H   UNL     1       0.066   8.926  17.368  0.00  0.00    +0.000 HD
BRANCH   6   8
ATOM      8  C   UNL     1      -0.732  10.500  18.326  0.00  0.00    +0.000 A 
ATOM      9  C   UNL     1      -0.601  11.045  19.620  0.00  0.00    +0.000 A 
ATOM     10  C   UNL     1      -1.599  11.824  20.200  0.00  0.00    +0.000 A 
ATOM     11  C   UNL     1      -2.754  12.103  19.485  0.00  0.00    +0.000 A 
ATOM     12  C   UNL     1      -2.961  11.522  18.225  0.00  0.00    +0.000 A 
ATOM     13  C   UNL     1      -4.142  11.763  17.516  0.00  0.00    +0.000 A 
ATOM     14  N   UNL     1      -4.482  11.161  16.358  0.00  0.00    +0.000 NA
ATOM     15  C   UNL     1      -3.626  10.230  15.909  0.00  0.00    +0.000 A 
ATOM     16  C   UNL     1      -2.417   9.935  16.522  0.00  0.00    +0.000 A 
ATOM     17  C   UNL     1      -1.999  10.640  17.671  0.00  0.00    +0.000 A 
ENDBRANCH   6   8
ENDBRANCH   4   6
BRANCH   1  18
ATOM     18  C   UNL     1       3.108   6.280  19.348  0.00  0.00    +0.000 C 
BRANCH  18  23
ATOM     19  C   UNL     1       4.114   2.610  19.162  0.00  0.00    +0.000 A 
ATOM     20  C   UNL     1       3.284   2.149  18.138  0.00  0.00    +0.000 A 
ATOM     21  C   UNL     1       2.383   3.013  17.516  0.00  0.00    +0.000 A 
ATOM     22  C   UNL     1       2.294   4.345  17.920  0.00  0.00    +0.000 A 
ATOM     23  C   UNL     1       3.086   4.814  18.978  0.00  0.00    +0.000 A 
ATOM     24  C   UNL     1       3.949   3.917  19.626  0.00  0.00    +0.000 A 
BRANCH  19  25
ATOM     25  N   UNL     1       4.961   1.722  19.841  0.00  0.00    +0.000 N 
ATOM     26  H   UNL     1       5.769   1.449  19.290  0.00  0.00    +0.000 HD
ATOM     27  H   UNL     1       5.230   2.059  20.761  0.00  0.00    +0.000 HD
ENDBRANCH  19  25
ENDBRANCH  18  23
ENDBRANCH   1  18
TORSDOF 5
ENDMDL
MODEL 7
REMARK VINA RESULT:      -7.5      3.165      8.181
REMARK  Name = 
REMARK  5 active torsions:
REMARK  status: ('A' for Active; 'I' for Inactive)
REMARK    1  A    between atoms: N_1  and  C_2
REMARK    2  A    between atoms: C_6  and  C_7
REMARK    3  A    between atoms: C_7  and  N_8
REMARK    4  A    between atoms: C_11  and  N_12
REMARK    5  A    between atoms: N_12  and  C_13
REMARK                            x       y       z     vdW  Elec       q    Type
REMARK                         _______ _______ _______ _____ _____    ______ ____
ROOT
ATOM      1  N   UNL     1      -0.446   9.650  19.319  0.00  0.00    +0.000 NA
ATOM      2  C   UNL     1      -0.217   9.498  20.760  0.00  0.00    +0.000 C 
ATOM      3  C   UNL     1       1.256   9.184  20.972  0.00  0.00    +0.000 C 
ATOM      4  C   UNL     1       1.790   8.730  19.621  0.00  0.00    +0.000 C 
ATOM      5  C   UNL     1       0.823   9.368  18.620  0.00  0.00    +0.000 C 
ENDROOT
BRANCH   4   6
ATOM      6  N   UNL     1       1.829   7.257  19.581  0.00  0.00    +0.000 N 
ATOM      7  H   UNL     1       0.873   6.905  19.524  0.00  0.00    +0.000 HD
BRANCH   6   8
ATOM      8  C   UNL     1       2.656   6.574  18.662  0.00  0.00    +0.000 A 
ATOM      9  C   UNL     1       3.562   7.365  17.925  0.00  0.00    +0.000 A 
ATOM     10  C   UNL     1       4.471   6.809  17.029  0.00  0.00    +0.000 A 
ATOM     11  C   UNL     1       4.517   5.433  16.864  0.00  0.00    +0.000 A 
ATOM     12  C   UNL     1       3.587   4.612  17.519  0.00  0.00    +0.000 A 
ATOM     13  C   UNL     1       3.599   3.228  17.324  0.00  0.00    +0.000 A 
ATOM     14  N   UNL     1       2.677   2.372  17.814  0.00  0.00    +0.000 NA
ATOM     15  C   UNL     1       1.661   2.931  18.489  0.00  0.00    +0.000 A 
ATOM     16  C   UNL     1       1.570   4.289  18.760  0.00  0.00    +0.000 A 
ATOM     17  C   UNL     1       2.587   5.177  18.350  0.00  0.00    +0.000 A 
ENDBRANCH   6   8
ENDBRANCH   4   6
BRANCH   1  18
ATOM     18  C   UNL     1      -0.942  10.990  18.964  0.00  0.00    +0.000 C 
BRANCH  18  23
ATOM     19  C   UNL     1      -3.139  10.690  15.865  0.00  0.00    +0.000 A 
ATOM     20  C   UNL     1      -4.337  11.243  16.323  0.00  0.00    +0.000 A 
ATOM     21  C   UNL     1      -4.449  11.698  17.636  0.00  0.00    +0.000 A 
ATOM     22  C   UNL     1      -3.367  11.593  18.510  0.00  0.00    +0.000 A 
ATOM     23  C   UNL     1      -2.172  10.997  18.083  0.00  0.00    +0.000 A 
ATOM     24  C   UNL     1      -2.095  10.498  16.774  0.00  0.00    +0.000 A 
BRANCH  19  25
ATOM     25  N   UNL     1      -3.053  10.159  14.571  0.00  0.00    +0.000 N 
ATOM     26  H   UNL     1      -3.852   9.581  14.328  0.00  0.00    +0.000 HD
ATOM     27  H   UNL     1      -2.873  10.867  13.864  0.00  0.00    +0.000 HD
ENDBRANCH  19  25
ENDBRANCH  18  23
ENDBRANCH   1  18
TORSDOF 5
ENDMDL
MODEL 8
REMARK VINA RESULT:      -7.5      1.491      2.580
REMARK  Name = 
REMARK  5 active torsions:
REMARK  status: ('A' for Active; 'I' for Inactive)
REMARK    1  A    between atoms: N_1  and  C_2
REMARK    2  A    between atoms: C_6  and  C_7
REMARK    3  A    between atoms: C_7  and  N_8
REMARK    4  A    between atoms: C_11  and  N_12
REMARK    5  A    between atoms: N_12  and  C_13
REMARK                            x       y       z     vdW  Elec       q    Type
REMARK                         _______ _______ _______ _____ _____    ______ ____
ROOT
ATOM      1  N   UNL     1       3.539   4.887  19.623  0.00  0.00    +0.000 NA
ATOM      2  C   UNL     1       2.633   4.377  20.657  0.00  0.00    +0.000 C 
ATOM      3  C   UNL     1       1.385   5.245  20.661  0.00  0.00    +0.000 C 
ATOM      4  C   UNL     1       1.755   6.521  19.918  0.00  0.00    +0.000 C 
ATOM      5  C   UNL     1       2.926   6.092  19.030  0.00  0.00    +0.000 C 
ENDROOT
BRANCH   4   6
ATOM      6  N   UNL     1       2.082   7.576  20.895  0.00  0.00    +0.000 N 
ATOM      7  H   UNL     1       3.000   7.960  20.668  0.00  0.00    +0.000 HD
BRANCH   6   8
ATOM      8  C   UNL     1       1.172   8.620  21.173  0.00  0.00    +0.000 A 
ATOM      9  C   UNL     1       0.411   8.491  22.354  0.00  0.00    +0.000 A 
ATOM     10  C   UNL     1      -0.479   9.476  22.771  0.00  0.00    +0.000 A 
ATOM     11  C   UNL     1      -0.616  10.638  22.027  0.00  0.00    +0.000 A 
ATOM     12  C   UNL     1       0.063  10.779  20.808  0.00  0.00    +0.000 A 
ATOM     13  C   UNL     1      -0.102  11.929  20.030  0.00  0.00    +0.000 A 
ATOM     14  N   UNL     1       0.413  12.105  18.796  0.00  0.00    +0.000 NA
ATOM     15  C   UNL     1       1.084  11.060  18.287  0.00  0.00    +0.000 A 
ATOM     16  C   UNL     1       1.327   9.886  18.986  0.00  0.00    +0.000 A 
ATOM     17  C   UNL     1       0.890   9.736  20.319  0.00  0.00    +0.000 A 
ENDBRANCH   6   8
ENDBRANCH   4   6
BRANCH   1  18
ATOM     18  C   UNL     1       3.825   3.888  18.579  0.00  0.00    +0.000 C 
BRANCH  18  23
ATOM     19  C   UNL     1       6.013   4.129  15.469  0.00  0.00    +0.000 A 
ATOM     20  C   UNL     1       7.221   4.564  16.017  0.00  0.00    +0.000 A 
ATOM     21  C   UNL     1       7.332   4.801  17.387  0.00  0.00    +0.000 A 
ATOM     22  C   UNL     1       6.231   4.616  18.222  0.00  0.00    +0.000 A 
ATOM     23  C   UNL     1       4.997   4.224  17.685  0.00  0.00    +0.000 A 
ATOM     24  C   UNL     1       4.891   4.042  16.297  0.00  0.00    +0.000 A 
BRANCH  19  25
ATOM     25  N   UNL     1       5.880   3.970  14.083  0.00  0.00    +0.000 N 
ATOM     26  H   UNL     1       5.716   3.005  13.811  0.00  0.00    +0.000 HD
ATOM     27  H   UNL     1       5.191   4.597  13.677  0.00  0.00    +0.000 HD
ENDBRANCH  19  25
ENDBRANCH  18  23
ENDBRANCH   1  18
TORSDOF 5
ENDMDL
MODEL 9
REMARK VINA RESULT:      -7.5      4.358      6.843
REMARK  Name = 
REMARK  5 active torsions:
REMARK  status: ('A' for Active; 'I' for Inactive)
REMARK    1  A    between atoms: N_1  and  C_2
REMARK    2  A    between atoms: C_6  and  C_7
REMARK    3  A    between atoms: C_7  and  N_8
REMARK    4  A    between atoms: C_11  and  N_12
REMARK    5  A    between atoms: N_12  and  C_13
REMARK                            x       y       z     vdW  Elec       q    Type
REMARK                         _______ _______ _______ _____ _____    ______ ____
ROOT
ATOM      1  N   UNL     1       7.358   7.733  18.255  0.00  0.00    +0.000 NA
ATOM      2  C   UNL     1       8.108   6.577  18.757  0.00  0.00    +0.000 C 
ATOM      3  C   UNL     1       7.471   5.319  18.189  0.00  0.00    +0.000 C 
ATOM      4  C   UNL     1       6.089   5.728  17.701  0.00  0.00    +0.000 C 
ATOM      5  C   UNL     1       6.228   7.232  17.448  0.00  0.00    +0.000 C 
ENDROOT
BRANCH   4   6
ATOM      6  N   UNL     1       5.086   5.368  18.720  0.00  0.00    +0.000 N 
ATOM      7  H   UNL     1       4.664   6.224  19.082  0.00  0.00    +0.000 HD
BRANCH   6   8
ATOM      8  C   UNL     1       4.086   4.407  18.452  0.00  0.00    +0.000 A 
ATOM      9  C   UNL     1       3.968   3.981  17.112  0.00  0.00    +0.000 A 
ATOM     10  C   UNL     1       3.062   2.998  16.725  0.00  0.00    +0.000 A 
ATOM     11  C   UNL     1       2.260   2.390  17.679  0.00  0.00    +0.000 A 
ATOM     12  C   UNL     1       2.289   2.832  19.010  0.00  0.00    +0.000 A 
ATOM     13  C   UNL     1       1.453   2.254  19.970  0.00  0.00    +0.000 A 
ATOM     14  N   UNL     1       1.324   2.686  21.241  0.00  0.00    +0.000 NA
ATOM     15  C   UNL     1       2.025   3.786  21.559  0.00  0.00    +0.000 A 
ATOM     16  C   UNL     1       2.903   4.418  20.690  0.00  0.00    +0.000 A 
ATOM     17  C   UNL     1       3.130   3.906  19.395  0.00  0.00    +0.000 A 
ENDBRANCH   6   8
ENDBRANCH   4   6
BRANCH   1  18
ATOM     18  C   UNL     1       8.194   8.646  17.457  0.00  0.00    +0.000 C 
BRANCH  18  23
ATOM     19  C   UNL     1       8.960  12.331  18.053  0.00  0.00    +0.000 A 
ATOM     20  C   UNL     1       9.563  12.286  19.311  0.00  0.00    +0.000 A 
ATOM     21  C   UNL     1       9.709  11.072  19.982  0.00  0.00    +0.000 A 
ATOM     22  C   UNL     1       9.242   9.891  19.406  0.00  0.00    +0.000 A 
ATOM     23  C   UNL     1       8.591   9.922  18.165  0.00  0.00    +0.000 A 
ATOM     24  C   UNL     1       8.407  11.159  17.529  0.00  0.00    +0.000 A 
BRANCH  19  25
ATOM     25  N   UNL     1       8.740  13.560  17.416  0.00  0.00    +0.000 N 
ATOM     26  H   UNL     1       9.502  13.826  16.800  0.00  0.00    +0.000 HD
ATOM     27  H   UNL     1       7.841  13.606  16.943  0.00  0.00    +0.000 HD
ENDBRANCH  19  25
ENDBRANCH  18  23
ENDBRANCH   1  18
TORSDOF 5
ENDMDL
