MODEL 1
REMARK VINA RESULT:      -8.9      0.000      0.000
REMARK  Name = 
REMARK  7 active torsions:
REMARK  status: ('A' for Active; 'I' for Inactive)
REMARK    1  A    between atoms: C_1  and  C_2
REMARK    2  A    between atoms: C_2  and  C_3
REMARK    3  A    between atoms: C_3  and  C_5
REMARK    4  A    between atoms: C_7  and  C_8
REMARK    5  A    between atoms: C_8  and  C_9
REMARK    6  A    between atoms: C_13  and  C_14
REMARK    7  A    between atoms: N_25  and  C_26
REMARK                            x       y       z     vdW  Elec       q    Type
REMARK                         _______ _______ _______ _____ _____    ______ ____
ROOT
ATOM      1  C   UNL     1       3.200   4.897  19.039  0.00  0.00    +0.000 C 
ATOM      2  N   UNL     1       3.058   4.468  20.476  0.00  0.00    +0.000 NA
ATOM      3  C   UNL     1       2.191   3.505  20.480  0.00  0.00    +0.000 C 
ATOM      4  N   UNL     1       1.792   2.915  21.633  0.00  0.00    +0.000 N 
ATOM      5  N   UNL     1       1.710   3.123  19.283  0.00  0.00    +0.000 N 
ATOM      6  C   UNL     1       0.719   2.116  18.968  0.00  0.00    +0.000 C 
ATOM      7  C   UNL     1       2.245   3.929  18.326  0.00  0.00    +0.000 C 
ATOM      8  O   UNL     1       1.978   3.870  17.123  0.00  0.00    +0.000 OA
ATOM      9  H   UNL     1       2.382   3.117  22.431  0.00  0.00    +0.000 HD
ATOM     10  H   UNL     1       1.451   1.964  21.608  0.00  0.00    +0.000 HD
ENDROOT
BRANCH   1  11
ATOM     11  C   UNL     1       4.641   4.791  18.527  0.00  0.00    +0.000 A 
ATOM     12  C   UNL     1       5.730   5.209  19.314  0.00  0.00    +0.000 A 
ATOM     13  C   UNL     1       7.000   5.349  18.757  0.00  0.00    +0.000 A 
ATOM     14  C   UNL     1       7.207   5.077  17.411  0.00  0.00    +0.000 A 
ATOM     15  C   UNL     1       6.156   4.625  16.594  0.00  0.00    +0.000 A 
ATOM     16  C   UNL     1       4.897   4.434  17.191  0.00  0.00    +0.000 A 
BRANCH  15  17
ATOM     17  C   UNL     1       6.332   4.462  15.144  0.00  0.00    +0.000 A 
ATOM     18  C   UNL     1       5.521   3.590  14.402  0.00  0.00    +0.000 A 
ATOM     19  C   UNL     1       5.700   3.459  13.031  0.00  0.00    +0.000 A 
ATOM     20  C   UNL     1       6.683   4.214  12.420  0.00  0.00    +0.000 A 
ATOM     21  N   UNL     1       7.483   5.077  13.081  0.00  0.00    +0.000 NA
ATOM     22  C   UNL     1       7.286   5.176  14.409  0.00  0.00    +0.000 A 
ATOM     23  F   UNL     1       8.098   6.041  15.048  0.00  0.00    +0.000 F 
ENDBRANCH  15  17
ENDBRANCH   1  11
BRANCH   1  26
ATOM     24  C   UNL     1       1.743   8.389  19.538  0.00  0.00    +0.000 A 
ATOM     25  C   UNL     1       2.118   7.119  19.941  0.00  0.00    +0.000 A 
ATOM     26  C   UNL     1       2.784   6.360  18.908  0.00  0.00    +0.000 A 
ATOM     27  C   UNL     1       2.949   7.169  17.796  0.00  0.00    +0.000 A 
ATOM     28  S   UNL     1       2.202   8.693  17.926  0.00  0.00    +0.000 S 
BRANCH  24  29
ATOM     29  C   UNL     1       1.066   9.438  20.278  0.00  0.00    +0.000 C 
ATOM     30  O   UNL     1       0.606  10.458  19.748  0.00  0.00    +0.000 OA
BRANCH  29  32
ATOM     31  C   UNL     1      -0.420   8.826  22.202  0.00  0.00    +0.000 C 
ATOM     32  C   UNL     1       0.977   9.233  21.777  0.00  0.00    +0.000 C 
ENDBRANCH  29  32
ENDBRANCH  24  29
ENDBRANCH   1  26
TORSDOF 5
ENDMDL
MODEL 2
REMARK VINA RESULT:      -8.8      4.545      7.143
REMARK  Name = 
REMARK  7 active torsions:
REMARK  status: ('A' for Active; 'I' for Inactive)
REMARK    1  A    between atoms: C_1  and  C_2
REMARK    2  A    between atoms: C_2  and  C_3
REMARK    3  A    between atoms: C_3  and  C_5
REMARK    4  A    between atoms: C_7  and  C_8
REMARK    5  A    between atoms: C_8  and  C_9
REMARK    6  A    between atoms: C_13  and  C_14
REMARK    7  A    between atoms: N_25  and  C_26
REMARK                            x       y       z     vdW  Elec       q    Type
REMARK                         _______ _______ _______ _____ _____    ______ ____
ROOT
ATOM      1  C   UNL     1       0.784  11.016  19.281  0.00  0.00    +0.000 C 
ATOM      2  N   UNL     1       1.636  11.508  18.140  0.00  0.00    +0.000 NA
ATOM      3  C   UNL     1       2.321  12.505  18.605  0.00  0.00    +0.000 C 
ATOM      4  N   UNL     1       3.163  13.215  17.816  0.00  0.00    +0.000 N 
ATOM      5  N   UNL     1       2.150  12.797  19.907  0.00  0.00    +0.000 N 
ATOM      6  C   UNL     1       2.737  13.858  20.697  0.00  0.00    +0.000 C 
ATOM      7  C   UNL     1       1.207  11.958  20.417  0.00  0.00    +0.000 C 
ATOM      8  O   UNL     1       0.789  11.989  21.578  0.00  0.00    +0.000 OA
ATOM      9  H   UNL     1       3.385  12.768  16.935  0.00  0.00    +0.000 HD
ATOM     10  H   UNL     1       3.945  13.697  18.239  0.00  0.00    +0.000 HD
ENDROOT
BRANCH   1  11
ATOM     11  C   UNL     1       1.030   9.540  19.614  0.00  0.00    +0.000 A 
ATOM     12  C   UNL     1       0.757   9.024  20.894  0.00  0.00    +0.000 A 
ATOM     13  C   UNL     1       1.213   7.761  21.266  0.00  0.00    +0.000 A 
ATOM     14  C   UNL     1       1.949   6.993  20.373  0.00  0.00    +0.000 A 
ATOM     15  C   UNL     1       2.218   7.453  19.072  0.00  0.00    +0.000 A 
ATOM     16  C   UNL     1       1.695   8.705  18.700  0.00  0.00    +0.000 A 
BRANCH  15  17
ATOM     17  C   UNL     1       3.104   6.709  18.166  0.00  0.00    +0.000 A 
ATOM     18  C   UNL     1       4.167   7.340  17.502  0.00  0.00    +0.000 A 
ATOM     19  C   UNL     1       4.997   6.614  16.657  0.00  0.00    +0.000 A 
ATOM     20  C   UNL     1       4.757   5.262  16.500  0.00  0.00    +0.000 A 
ATOM     21  N   UNL     1       3.759   4.601  17.123  0.00  0.00    +0.000 NA
ATOM     22  C   UNL     1       2.970   5.336  17.931  0.00  0.00    +0.000 A 
ATOM     23  F   UNL     1       1.980   4.656  18.540  0.00  0.00    +0.000 F 
ENDBRANCH  15  17
ENDBRANCH   1  11
BRANCH   1  26
ATOM     24  C   UNL     1      -2.595  11.026  17.508  0.00  0.00    +0.000 A 
ATOM     25  C   UNL     1      -1.264  10.683  17.664  0.00  0.00    +0.000 A 
ATOM     26  C   UNL     1      -0.688  11.151  18.903  0.00  0.00    +0.000 A 
ATOM     27  C   UNL     1      -1.683  11.755  19.657  0.00  0.00    +0.000 A 
ATOM     28  S   UNL     1      -3.176  11.896  18.853  0.00  0.00    +0.000 S 
BRANCH  24  29
ATOM     29  C   UNL     1      -3.509  10.738  16.418  0.00  0.00    +0.000 C 
ATOM     30  O   UNL     1      -4.665  11.181  16.363  0.00  0.00    +0.000 OA
BRANCH  29  32
ATOM     31  C   UNL     1      -3.689  10.034  14.019  0.00  0.00    +0.000 C 
ATOM     32  C   UNL     1      -2.976   9.817  15.340  0.00  0.00    +0.000 C 
ENDBRANCH  29  32
ENDBRANCH  24  29
ENDBRANCH   1  26
TORSDOF 5
ENDMDL
MODEL 3
REMARK VINA RESULT:      -8.8      3.476      7.334
REMARK  Name = 
REMARK  7 active torsions:
REMARK  status: ('A' for Active; 'I' for Inactive)
REMARK    1  A    between atoms: C_1  and  C_2
REMARK    2  A    between atoms: C_2  and  C_3
REMARK    3  A    between atoms: C_3  and  C_5
REMARK    4  A    between atoms: C_7  and  C_8
REMARK    5  A    between atoms: C_8  and  C_9
REMARK    6  A    between atoms: C_13  and  C_14
REMARK    7  A    between atoms: N_25  and  C_26
REMARK                            x       y       z     vdW  Elec       q    Type
REMARK                         _______ _______ _______ _____ _____    ______ ____
ROOT
ATOM      1  C   UNL     1       2.587   4.830  18.744  0.00  0.00    +0.000 C 
ATOM      2  N   UNL     1       1.570   3.933  18.089  0.00  0.00    +0.000 NA
ATOM      3  C   UNL     1       1.110   3.165  19.026  0.00  0.00    +0.000 C 
ATOM      4  N   UNL     1       0.199   2.196  18.765  0.00  0.00    +0.000 N 
ATOM      5  N   UNL     1       1.582   3.382  20.267  0.00  0.00    +0.000 N 
ATOM      6  C   UNL     1       1.292   2.679  21.498  0.00  0.00    +0.000 C 
ATOM      7  C   UNL     1       2.517   4.369  20.207  0.00  0.00    +0.000 C 
ATOM      8  O   UNL     1       3.172   4.781  21.168  0.00  0.00    +0.000 OA
ATOM      9  H   UNL     1      -0.250   2.279  17.862  0.00  0.00    +0.000 HD
ATOM     10  H   UNL     1      -0.420   1.890  19.504  0.00  0.00    +0.000 HD
ENDROOT
BRANCH   1  11
ATOM     11  C   UNL     1       2.263   6.319  18.576  0.00  0.00    +0.000 A 
ATOM     12  C   UNL     1       2.885   7.095  17.582  0.00  0.00    +0.000 A 
ATOM     13  C   UNL     1       2.782   8.485  17.594  0.00  0.00    +0.000 A 
ATOM     14  C   UNL     1       2.060   9.124  18.595  0.00  0.00    +0.000 A 
ATOM     15  C   UNL     1       1.395   8.388  19.590  0.00  0.00    +0.000 A 
ATOM     16  C   UNL     1       1.463   6.984  19.522  0.00  0.00    +0.000 A 
BRANCH  15  17
ATOM     17  C   UNL     1       0.741   9.054  20.725  0.00  0.00    +0.000 A 
ATOM     18  C   UNL     1       1.106   8.768  22.049  0.00  0.00    +0.000 A 
ATOM     19  C   UNL     1       0.480   9.417  23.106  0.00  0.00    +0.000 A 
ATOM     20  C   UNL     1      -0.494  10.355  22.819  0.00  0.00    +0.000 A 
ATOM     21  N   UNL     1      -0.875  10.679  21.566  0.00  0.00    +0.000 NA
ATOM     22  C   UNL     1      -0.252  10.028  20.565  0.00  0.00    +0.000 A 
ATOM     23  F   UNL     1      -0.649  10.366  19.324  0.00  0.00    +0.000 F 
ENDBRANCH  15  17
ENDBRANCH   1  11
BRANCH   1  26
ATOM     24  C   UNL     1       6.304   4.739  17.879  0.00  0.00    +0.000 A 
ATOM     25  C   UNL     1       5.215   4.949  18.708  0.00  0.00    +0.000 A 
ATOM     26  C   UNL     1       3.953   4.594  18.103  0.00  0.00    +0.000 A 
ATOM     27  C   UNL     1       4.195   4.040  16.856  0.00  0.00    +0.000 A 
ATOM     28  S   UNL     1       5.827   4.097  16.375  0.00  0.00    +0.000 S 
BRANCH  24  29
ATOM     29  C   UNL     1       7.716   4.966  18.123  0.00  0.00    +0.000 C 
ATOM     30  O   UNL     1       8.597   4.143  17.839  0.00  0.00    +0.000 OA
BRANCH  29  32
ATOM     31  C   UNL     1       7.830   7.457  17.862  0.00  0.00    +0.000 C 
ATOM     32  C   UNL     1       8.065   6.281  18.790  0.00  0.00    +0.000 C 
ENDBRANCH  29  32
ENDBRANCH  24  29
ENDBRANCH   1  26
TORSDOF 5
ENDMDL
MODEL 4
REMARK VINA RESULT:      -8.8      3.229      7.731
REMARK  Name = 
REMARK  7 active torsions:
REMARK  status: ('A' for Active; 'I' for Inactive)
REMARK    1  A    between atoms: C_1  and  C_2
REMARK    2  A    between atoms: C_2  and  C_3
REMARK    3  A    between atoms: C_3  and  C_5
REMARK    4  A    between atoms: C_7  and  C_8
REMARK    5  A    between atoms: C_8  and  C_9
REMARK    6  A    between atoms: C_13  and  C_14
REMARK    7  A    between atoms: N_25  and  C_26
REMARK                            x       y       z     vdW  Elec       q    Type
REMARK                         _______ _______ _______ _____ _____    ______ ____
ROOT
ATOM      1  C   UNL     1       2.609   5.355  18.901  0.00  0.00    +0.000 C 
ATOM      2  N   UNL     1       1.822   4.378  18.068  0.00  0.00    +0.000 NA
ATOM      3  C   UNL     1       1.338   3.507  18.896  0.00  0.00    +0.000 C 
ATOM      4  N   UNL     1       0.608   2.449  18.466  0.00  0.00    +0.000 N 
ATOM      5  N   UNL     1       1.597   3.708  20.201  0.00  0.00    +0.000 N 
ATOM      6  C   UNL     1       1.231   2.905  21.347  0.00  0.00    +0.000 C 
ATOM      7  C   UNL     1       2.394   4.806  20.318  0.00  0.00    +0.000 C 
ATOM      8  O   UNL     1       2.847   5.239  21.381  0.00  0.00    +0.000 OA
ATOM      9  H   UNL     1       0.284   2.527  17.510  0.00  0.00    +0.000 HD
ATOM     10  H   UNL     1      -0.063   2.026  19.093  0.00  0.00    +0.000 HD
ENDROOT
BRANCH   1  11
ATOM     11  C   UNL     1       2.119   6.800  18.746  0.00  0.00    +0.000 A 
ATOM     12  C   UNL     1       2.602   7.629  17.716  0.00  0.00    +0.000 A 
ATOM     13  C   UNL     1       2.351   9.000  17.729  0.00  0.00    +0.000 A 
ATOM     14  C   UNL     1       1.620   9.567  18.765  0.00  0.00    +0.000 A 
ATOM     15  C   UNL     1       1.090   8.774  19.797  0.00  0.00    +0.000 A 
ATOM     16  C   UNL     1       1.304   7.385  19.731  0.00  0.00    +0.000 A 
BRANCH  15  17
ATOM     17  C   UNL     1       0.431   9.377  20.963  0.00  0.00    +0.000 A 
ATOM     18  C   UNL     1       0.707   8.941  22.267  0.00  0.00    +0.000 A 
ATOM     19  C   UNL     1       0.078   9.532  23.355  0.00  0.00    +0.000 A 
ATOM     20  C   UNL     1      -0.811  10.564  23.120  0.00  0.00    +0.000 A 
ATOM     21  N   UNL     1      -1.105  11.033  21.890  0.00  0.00    +0.000 NA
ATOM     22  C   UNL     1      -0.481  10.434  20.857  0.00  0.00    +0.000 A 
ATOM     23  F   UNL     1      -0.792  10.917  19.639  0.00  0.00    +0.000 F 
ENDBRANCH  15  17
ENDBRANCH   1  11
BRANCH   1  26
ATOM     24  C   UNL     1       5.887   5.043  16.971  0.00  0.00    +0.000 A 
ATOM     25  C   UNL     1       4.513   5.146  17.097  0.00  0.00    +0.000 A 
ATOM     26  C   UNL     1       4.070   5.328  18.460  0.00  0.00    +0.000 A 
ATOM     27  C   UNL     1       5.183   5.444  19.278  0.00  0.00    +0.000 A 
ATOM     28  S   UNL     1       6.664   5.183  18.481  0.00  0.00    +0.000 S 
BRANCH  24  29
ATOM     29  C   UNL     1       6.702   4.861  15.784  0.00  0.00    +0.000 C 
ATOM     30  O   UNL     1       7.600   5.645  15.447  0.00  0.00    +0.000 OA
BRANCH  29  32
ATOM     31  C   UNL     1       5.838   4.052  13.574  0.00  0.00    +0.000 C 
ATOM     32  C   UNL     1       6.368   3.650  14.937  0.00  0.00    +0.000 C 
ENDBRANCH  29  32
ENDBRANCH  24  29
ENDBRANCH   1  26
TORSDOF 5
ENDMDL
MODEL 5
REMARK VINA RESULT:      -8.7      3.042      7.695
REMARK  Name = 
REMARK  7 active torsions:
REMARK  status: ('A' for Active; 'I' for Inactive)
REMARK    1  A    between atoms: C_1  and  C_2
REMARK    2  A    between atoms: C_2  and  C_3
REMARK    3  A    between atoms: C_3  and  C_5
REMARK    4  A    between atoms: C_7  and  C_8
REMARK    5  A    between atoms: C_8  and  C_9
REMARK    6  A    between atoms: C_13  and  C_14
REMARK    7  A    between atoms: N_25  and  C_26
REMARK                            x       y       z     vdW  Elec       q    Type
REMARK                         _______ _______ _______ _____ _____    ______ ____
ROOT
ATOM      1  C   UNL     1       2.561   5.405  18.945  0.00  0.00    +0.000 C 
ATOM      2  N   UNL     1       1.791   4.415  18.110  0.00  0.00    +0.000 NA
ATOM      3  C   UNL     1       1.288   3.557  18.941  0.00  0.00    +0.000 C 
ATOM      4  N   UNL     1       0.568   2.493  18.511  0.00  0.00    +0.000 N 
ATOM      5  N   UNL     1       1.520   3.778  20.248  0.00  0.00    +0.000 N 
ATOM      6  C   UNL     1       1.128   2.992  21.398  0.00  0.00    +0.000 C 
ATOM      7  C   UNL     1       2.314   4.877  20.365  0.00  0.00    +0.000 C 
ATOM      8  O   UNL     1       2.744   5.326  21.431  0.00  0.00    +0.000 OA
ATOM      9  H   UNL     1       0.265   2.556  17.548  0.00  0.00    +0.000 HD
ATOM     10  H   UNL     1      -0.117   2.080  19.129  0.00  0.00    +0.000 HD
ENDROOT
BRANCH   1  11
ATOM     11  C   UNL     1       2.075   6.847  18.757  0.00  0.00    +0.000 A 
ATOM     12  C   UNL     1       2.532   7.639  17.689  0.00  0.00    +0.000 A 
ATOM     13  C   UNL     1       2.290   9.012  17.664  0.00  0.00    +0.000 A 
ATOM     14  C   UNL     1       1.592   9.617  18.702  0.00  0.00    +0.000 A 
ATOM     15  C   UNL     1       1.087   8.860  19.773  0.00  0.00    +0.000 A 
ATOM     16  C   UNL     1       1.292   7.469  19.746  0.00  0.00    +0.000 A 
BRANCH  15  17
ATOM     17  C   UNL     1       0.465   9.505  20.938  0.00  0.00    +0.000 A 
ATOM     18  C   UNL     1      -0.582  10.427  20.791  0.00  0.00    +0.000 A 
ATOM     19  C   UNL     1      -1.161  11.018  21.906  0.00  0.00    +0.000 A 
ATOM     20  C   UNL     1      -0.690  10.665  23.157  0.00  0.00    +0.000 A 
ATOM     21  N   UNL     1       0.304   9.775  23.359  0.00  0.00    +0.000 NA
ATOM     22  C   UNL     1       0.847   9.225  22.255  0.00  0.00    +0.000 A 
ATOM     23  F   UNL     1       1.838   8.343  22.481  0.00  0.00    +0.000 F 
ENDBRANCH  15  17
ENDBRANCH   1  11
BRANCH   1  26
ATOM     24  C   UNL     1       5.881   5.034  17.100  0.00  0.00    +0.000 A 
ATOM     25  C   UNL     1       4.503   5.129  17.193  0.00  0.00    +0.000 A 
ATOM     26  C   UNL     1       4.031   5.371  18.536  0.00  0.00    +0.000 A 
ATOM     27  C   UNL     1       5.125   5.535  19.371  0.00  0.00    +0.000 A 
ATOM     28  S   UNL     1       6.624   5.251  18.618  0.00  0.00    +0.000 S 
BRANCH  24  29
ATOM     29  C   UNL     1       6.722   4.804  15.940  0.00  0.00    +0.000 C 
ATOM     30  O   UNL     1       7.906   4.447  16.017  0.00  0.00    +0.000 OA
BRANCH  29  32
ATOM     31  C   UNL     1       6.074   3.818  13.728  0.00  0.00    +0.000 C 
ATOM     32  C   UNL     1       6.072   5.061  14.596  0.00  0.00    +0.000 C 
ENDBRANCH  29  32
ENDBRANCH  24  29
ENDBRANCH   1  26
TORSDOF 5
ENDMDL
MODEL 6
REMARK VINA RESULT:      -8.5      3.427      7.287
REMARK  Name = 
REMARK  7 active torsions:
REMARK  status: ('A' for Active; 'I' for Inactive)
REMARK    1  A    between atoms: C_1  and  C_2
REMARK    2  A    between atoms: C_2  and  C_3
REMARK    3  A    between atoms: C_3  and  C_5
REMARK    4  A    between atoms: C_7  and  C_8
REMARK    5  A    between atoms: C_8  and  C_9
REMARK    6  A    between atoms: C_13  and  C_14
REMARK    7  A    between atoms: N_25  and  C_26
REMARK                            x       y       z     vdW  Elec       q    Type
REMARK                         _______ _______ _______ _____ _____    ______ ____
ROOT
ATOM      1  C   UNL     1       2.670   5.083  18.950  0.00  0.00    +0.000 C 
ATOM      2  N   UNL     1       1.849   4.109  18.147  0.00  0.00    +0.000 NA
ATOM      3  C   UNL     1       1.296   3.311  19.006  0.00  0.00    +0.000 C 
ATOM      4  N   UNL     1       0.518   2.274  18.611  0.00  0.00    +0.000 N 
ATOM      5  N   UNL     1       1.535   3.566  20.305  0.00  0.00    +0.000 N 
ATOM      6  C   UNL     1       1.095   2.846  21.480  0.00  0.00    +0.000 C 
ATOM      7  C   UNL     1       2.389   4.622  20.387  0.00  0.00    +0.000 C 
ATOM      8  O   UNL     1       2.840   5.085  21.438  0.00  0.00    +0.000 OA
ATOM      9  H   UNL     1       0.222   2.319  17.644  0.00  0.00    +0.000 HD
ATOM     10  H   UNL     1      -0.192   1.923  19.240  0.00  0.00    +0.000 HD
ENDROOT
BRANCH   1  11
ATOM     11  C   UNL     1       2.267   6.542  18.707  0.00  0.00    +0.000 A 
ATOM     12  C   UNL     1       2.821   7.288  17.650  0.00  0.00    +0.000 A 
ATOM     13  C   UNL     1       2.649   8.670  17.586  0.00  0.00    +0.000 A 
ATOM     14  C   UNL     1       1.926   9.331  18.570  0.00  0.00    +0.000 A 
ATOM     15  C   UNL     1       1.326   8.623  19.627  0.00  0.00    +0.000 A 
ATOM     16  C   UNL     1       1.462   7.223  19.637  0.00  0.00    +0.000 A 
BRANCH  15  17
ATOM     17  C   UNL     1       0.673   9.323  20.741  0.00  0.00    +0.000 A 
ATOM     18  C   UNL     1      -0.389  10.214  20.524  0.00  0.00    +0.000 A 
ATOM     19  C   UNL     1      -0.997  10.857  21.594  0.00  0.00    +0.000 A 
ATOM     20  C   UNL     1      -0.540  10.588  22.870  0.00  0.00    +0.000 A 
ATOM     21  N   UNL     1       0.467   9.732  23.139  0.00  0.00    +0.000 NA
ATOM     22  C   UNL     1       1.038   9.128  22.079  0.00  0.00    +0.000 A 
ATOM     23  F   UNL     1       2.042   8.281  22.371  0.00  0.00    +0.000 F 
ENDBRANCH  15  17
ENDBRANCH   1  11
BRANCH   1  26
ATOM     24  C   UNL     1       6.464   5.374  18.648  0.00  0.00    +0.000 A 
ATOM     25  C   UNL     1       5.240   5.539  19.274  0.00  0.00    +0.000 A 
ATOM     26  C   UNL     1       4.137   4.952  18.551  0.00  0.00    +0.000 A 
ATOM     27  C   UNL     1       4.636   4.286  17.442  0.00  0.00    +0.000 A 
ATOM     28  S   UNL     1       6.307   4.496  17.196  0.00  0.00    +0.000 S 
BRANCH  24  29
ATOM     29  C   UNL     1       7.786   5.812  19.057  0.00  0.00    +0.000 C 
ATOM     30  O   UNL     1       8.577   5.094  19.684  0.00  0.00    +0.000 OA
BRANCH  29  32
ATOM     31  C   UNL     1       7.602   7.625  17.336  0.00  0.00    +0.000 C 
ATOM     32  C   UNL     1       8.145   7.239  18.698  0.00  0.00    +0.000 C 
ENDBRANCH  29  32
ENDBRANCH  24  29
ENDBRANCH   1  26
TORSDOF 5
ENDMDL
MODEL 7
REMARK VINA RESULT:      -8.4      0.996      1.255
REMARK  Name = 
REMARK  7 active torsions:
REMARK  status: ('A' for Active; 'I' for Inactive)
REMARK    1  A    between atoms: C_1  and  C_2
REMARK    2  A    between atoms: C_2  and  C_3
REMARK    3  A    between atoms: C_3  and  C_5
REMARK    4  A    between atoms: C_7  and  C_8
REMARK    5  A    between atoms: C_8  and  C_9
REMARK    6  A    between atoms: C_13  and  C_14
REMARK    7  A    between atoms: N_25  and  C_26
REMARK                            x       y       z     vdW  Elec       q    Type
REMARK                         _______ _______ _______ _____ _____    ______ ____
ROOT
ATOM      1  C   UNL     1       3.458   4.907  19.016  0.00  0.00    +0.000 C 
ATOM      2  N   UNL     1       3.335   4.482  20.456  0.00  0.00    +0.000 NA
ATOM      3  C   UNL     1       2.512   3.480  20.466  0.00  0.00    +0.000 C 
ATOM      4  N   UNL     1       2.140   2.880  21.623  0.00  0.00    +0.000 N 
ATOM      5  N   UNL     1       2.050   3.068  19.271  0.00  0.00    +0.000 N 
ATOM      6  C   UNL     1       1.107   2.015  18.963  0.00  0.00    +0.000 C 
ATOM      7  C   UNL     1       2.548   3.892  18.309  0.00  0.00    +0.000 C 
ATOM      8  O   UNL     1       2.286   3.812  17.106  0.00  0.00    +0.000 OA
ATOM      9  H   UNL     1       2.720   3.115  22.419  0.00  0.00    +0.000 HD
ATOM     10  H   UNL     1       1.842   1.915  21.604  0.00  0.00    +0.000 HD
ENDROOT
BRANCH   1  11
ATOM     11  C   UNL     1       4.902   4.864  18.504  0.00  0.00    +0.000 A 
ATOM     12  C   UNL     1       5.973   5.309  19.301  0.00  0.00    +0.000 A 
ATOM     13  C   UNL     1       7.238   5.505  18.749  0.00  0.00    +0.000 A 
ATOM     14  C   UNL     1       7.457   5.263  17.399  0.00  0.00    +0.000 A 
ATOM     15  C   UNL     1       6.426   4.785  16.572  0.00  0.00    +0.000 A 
ATOM     16  C   UNL     1       5.174   4.538  17.164  0.00  0.00    +0.000 A 
BRANCH  15  17
ATOM     17  C   UNL     1       6.610   4.652  15.120  0.00  0.00    +0.000 A 
ATOM     18  C   UNL     1       7.675   5.280  14.457  0.00  0.00    +0.000 A 
ATOM     19  C   UNL     1       7.834   5.133  13.086  0.00  0.00    +0.000 A 
ATOM     20  C   UNL     1       6.929   4.346  12.398  0.00  0.00    +0.000 A 
ATOM     21  N   UNL     1       5.894   3.709  12.985  0.00  0.00    +0.000 NA
ATOM     22  C   UNL     1       5.766   3.877  14.316  0.00  0.00    +0.000 A 
ATOM     23  F   UNL     1       4.726   3.234  14.879  0.00  0.00    +0.000 F 
ENDBRANCH  15  17
ENDBRANCH   1  11
BRANCH   1  26
ATOM     24  C   UNL     1       1.794   8.313  19.460  0.00  0.00    +0.000 A 
ATOM     25  C   UNL     1       2.210   7.058  19.872  0.00  0.00    +0.000 A 
ATOM     26  C   UNL     1       2.975   6.348  18.875  0.00  0.00    +0.000 A 
ATOM     27  C   UNL     1       3.166   7.180  17.782  0.00  0.00    +0.000 A 
ATOM     28  S   UNL     1       2.334   8.661  17.882  0.00  0.00    +0.000 S 
BRANCH  24  29
ATOM     29  C   UNL     1       1.020   9.316  20.168  0.00  0.00    +0.000 C 
ATOM     30  O   UNL     1       1.035  10.519  19.875  0.00  0.00    +0.000 OA
BRANCH  29  32
ATOM     31  C   UNL     1       0.782   9.252  22.663  0.00  0.00    +0.000 C 
ATOM     32  C   UNL     1       0.199   8.808  21.335  0.00  0.00    +0.000 C 
ENDBRANCH  29  32
ENDBRANCH  24  29
ENDBRANCH   1  26
TORSDOF 5
ENDMDL
MODEL 8
REMARK VINA RESULT:      -8.2      4.384      6.838
REMARK  Name = 
REMARK  7 active torsions:
REMARK  status: ('A' for Active; 'I' for Inactive)
REMARK    1  A    between atoms: C_1  and  C_2
REMARK    2  A    between atoms: C_2  and  C_3
REMARK    3  A    between atoms: C_3  and  C_5
REMARK    4  A    between atoms: C_7  and  C_8
REMARK    5  A    between atoms: C_8  and  C_9
REMARK    6  A    between atoms: C_13  and  C_14
REMARK    7  A    between atoms: N_25  and  C_26
REMARK                            x       y       z     vdW  Elec       q    Type
REMARK                         _______ _______ _______ _____ _____    ______ ____
ROOT
ATOM      1  C   UNL     1       0.794  10.799  19.101  0.00  0.00    +0.000 C 
ATOM      2  N   UNL     1       1.681  11.345  18.013  0.00  0.00    +0.000 NA
ATOM      3  C   UNL     1       2.272  12.383  18.516  0.00  0.00    +0.000 C 
ATOM      4  N   UNL     1       3.115  13.146  17.779  0.00  0.00    +0.000 N 
ATOM      5  N   UNL     1       2.006  12.660  19.806  0.00  0.00    +0.000 N 
ATOM      6  C   UNL     1       2.477  13.754  20.628  0.00  0.00    +0.000 C 
ATOM      7  C   UNL     1       1.088  11.763  20.260  0.00  0.00    +0.000 C 
ATOM      8  O   UNL     1       0.601  11.764  21.393  0.00  0.00    +0.000 OA
ATOM      9  H   UNL     1       3.417  12.716  16.913  0.00  0.00    +0.000 HD
ATOM     10  H   UNL     1       3.838  13.675  18.247  0.00  0.00    +0.000 HD
ENDROOT
BRANCH   1  11
ATOM     11  C   UNL     1       1.111   9.341  19.450  0.00  0.00    +0.000 A 
ATOM     12  C   UNL     1       0.878   8.830  20.741  0.00  0.00    +0.000 A 
ATOM     13  C   UNL     1       1.397   7.594  21.123  0.00  0.00    +0.000 A 
ATOM     14  C   UNL     1       2.155   6.848  20.230  0.00  0.00    +0.000 A 
ATOM     15  C   UNL     1       2.386   7.302  18.920  0.00  0.00    +0.000 A 
ATOM     16  C   UNL     1       1.803   8.524  18.538  0.00  0.00    +0.000 A 
BRANCH  15  17
ATOM     17  C   UNL     1       3.294   6.587  18.012  0.00  0.00    +0.000 A 
ATOM     18  C   UNL     1       4.360   7.243  17.378  0.00  0.00    +0.000 A 
ATOM     19  C   UNL     1       5.211   6.545  16.531  0.00  0.00    +0.000 A 
ATOM     20  C   UNL     1       4.989   5.193  16.342  0.00  0.00    +0.000 A 
ATOM     21  N   UNL     1       3.989   4.509  16.936  0.00  0.00    +0.000 NA
ATOM     22  C   UNL     1       3.180   5.218  17.747  0.00  0.00    +0.000 A 
ATOM     23  F   UNL     1       2.188   4.515  18.326  0.00  0.00    +0.000 F 
ENDBRANCH  15  17
ENDBRANCH   1  11
BRANCH   1  26
ATOM     24  C   UNL     1      -2.939  11.473  18.682  0.00  0.00    +0.000 A 
ATOM     25  C   UNL     1      -1.675  11.702  19.197  0.00  0.00    +0.000 A 
ATOM     26  C   UNL     1      -0.659  10.843  18.635  0.00  0.00    +0.000 A 
ATOM     27  C   UNL     1      -1.231  10.065  17.641  0.00  0.00    +0.000 A 
ATOM     28  S   UNL     1      -2.919  10.239  17.507  0.00  0.00    +0.000 S 
BRANCH  24  29
ATOM     29  C   UNL     1      -4.200  12.124  18.985  0.00  0.00    +0.000 C 
ATOM     30  O   UNL     1      -5.141  12.194  18.183  0.00  0.00    +0.000 OA
BRANCH  29  32
ATOM     31  C   UNL     1      -5.264  13.929  20.362  0.00  0.00    +0.000 C 
ATOM     32  C   UNL     1      -4.297  12.760  20.357  0.00  0.00    +0.000 C 
ENDBRANCH  29  32
ENDBRANCH  24  29
ENDBRANCH   1  26
TORSDOF 5
ENDMDL
MODEL 9
REMARK VINA RESULT:      -8.2      4.616      7.280
REMARK  Name = 
REMARK  7 active torsions:
REMARK  status: ('A' for Active; 'I' for Inactive)
REMARK    1  A    between atoms: C_1  and  C_2
REMARK    2  A    between atoms: C_2  and  C_3
REMARK    3  A    between atoms: C_3  and  C_5
REMARK    4  A    between atoms: C_7  and  C_8
REMARK    5  A    between atoms: C_8  and  C_9
REMARK    6  A    between atoms: C_13  and  C_14
REMARK    7  A    between atoms: N_25  and  C_26
REMARK                            x       y       z     vdW  Elec       q    Type
REMARK                         _______ _______ _______ _____ _____    ______ ____
ROOT
ATOM      1  C   UNL     1       0.707  11.214  19.429  0.00  0.00    +0.000 C 
ATOM      2  N   UNL     1       1.454  11.637  18.191  0.00  0.00    +0.000 NA
ATOM      3  C   UNL     1       2.232  12.608  18.553  0.00  0.00    +0.000 C 
ATOM      4  N   UNL     1       3.018  13.257  17.661  0.00  0.00    +0.000 N 
ATOM      5  N   UNL     1       2.216  12.936  19.858  0.00  0.00    +0.000 N 
ATOM      6  C   UNL     1       2.935  13.983  20.552  0.00  0.00    +0.000 C 
ATOM      7  C   UNL     1       1.295  12.157  20.488  0.00  0.00    +0.000 C 
ATOM      8  O   UNL     1       1.006  12.234  21.685  0.00  0.00    +0.000 OA
ATOM      9  H   UNL     1       3.122  12.781  16.773  0.00  0.00    +0.000 HD
ATOM     10  H   UNL     1       3.863  13.708  17.985  0.00  0.00    +0.000 HD
ENDROOT
BRANCH   1  11
ATOM     11  C   UNL     1       0.916   9.735  19.773  0.00  0.00    +0.000 A 
ATOM     12  C   UNL     1       0.628   9.235  21.057  0.00  0.00    +0.000 A 
ATOM     13  C   UNL     1       1.053   7.964  21.439  0.00  0.00    +0.000 A 
ATOM     14  C   UNL     1       1.771   7.171  20.552  0.00  0.00    +0.000 A 
ATOM     15  C   UNL     1       2.053   7.615  19.249  0.00  0.00    +0.000 A 
ATOM     16  C   UNL     1       1.562   8.877  18.866  0.00  0.00    +0.000 A 
BRANCH  15  17
ATOM     17  C   UNL     1       2.923   6.843  18.350  0.00  0.00    +0.000 A 
ATOM     18  C   UNL     1       3.979   7.450  17.654  0.00  0.00    +0.000 A 
ATOM     19  C   UNL     1       4.793   6.699  16.817  0.00  0.00    +0.000 A 
ATOM     20  C   UNL     1       4.545   5.344  16.700  0.00  0.00    +0.000 A 
ATOM     21  N   UNL     1       3.553   4.705  17.354  0.00  0.00    +0.000 NA
ATOM     22  C   UNL     1       2.779   5.464  18.154  0.00  0.00    +0.000 A 
ATOM     23  F   UNL     1       1.795   4.806  18.795  0.00  0.00    +0.000 F 
ENDBRANCH  15  17
ENDBRANCH   1  11
BRANCH   1  26
ATOM     24  C   UNL     1      -2.836  11.377  18.019  0.00  0.00    +0.000 A 
ATOM     25  C   UNL     1      -1.511  10.974  18.036  0.00  0.00    +0.000 A 
ATOM     26  C   UNL     1      -0.789  11.415  19.207  0.00  0.00    +0.000 A 
ATOM     27  C   UNL     1      -1.672  12.062  20.058  0.00  0.00    +0.000 A 
ATOM     28  S   UNL     1      -3.233  12.271  19.414  0.00  0.00    +0.000 S 
BRANCH  24  29
ATOM     29  C   UNL     1      -3.870  11.132  17.031  0.00  0.00    +0.000 C 
ATOM     30  O   UNL     1      -3.733  10.353  16.079  0.00  0.00    +0.000 OA
BRANCH  29  32
ATOM     31  C   UNL     1      -6.206  11.122  17.941  0.00  0.00    +0.000 C 
ATOM     32  C   UNL     1      -5.149  11.925  17.209  0.00  0.00    +0.000 C 
ENDBRANCH  29  32
ENDBRANCH  24  29
ENDBRANCH   1  26
TORSDOF 5
ENDMDL
