MODEL 1
REMARK VINA RESULT:      -7.4      0.000      0.000
REMARK  Name = 
REMARK  6 active torsions:
REMARK  status: ('A' for Active; 'I' for Inactive)
REMARK    1  A    between atoms: C_1  and  C_2
REMARK    2  A    between atoms: C_2  and  C_3
REMARK    3  A    between atoms: C_3  and  C_4
REMARK    4  A    between atoms: C_4  and  N_5
REMARK    5  A    between atoms: N_8  and  C_9
REMARK    6  A    between atoms: C_18  and  C_19
REMARK                            x       y       z     vdW  Elec       q    Type
REMARK                         _______ _______ _______ _____ _____    ______ ____
ROOT
ATOM      1  C   UNL     1       5.502   4.926  16.446  0.00  0.00    +0.000 A 
ATOM      2  N   UNL     1       5.073   4.222  15.365  0.00  0.00    +0.000 NA
ATOM      3  C   UNL     1       5.821   4.234  14.240  0.00  0.00    +0.000 A 
ATOM      4  C   UNL     1       5.422   3.518  13.117  0.00  0.00    +0.000 A 
ATOM      5  C   UNL     1       6.213   3.475  11.964  0.00  0.00    +0.000 A 
ATOM      6  C   UNL     1       7.416   4.170  11.929  0.00  0.00    +0.000 A 
ATOM      7  C   UNL     1       7.809   4.918  13.033  0.00  0.00    +0.000 A 
ATOM      8  C   UNL     1       7.033   4.956  14.179  0.00  0.00    +0.000 A 
ATOM      9  N   UNL     1       7.477   5.668  15.217  0.00  0.00    +0.000 NA
ATOM     10  C   UNL     1       6.713   5.636  16.338  0.00  0.00    +0.000 A 
ENDROOT
BRANCH   1  14
ATOM     11  N   UNL     1       2.638   3.894  19.407  0.00  0.00    +0.000 NA
ATOM     12  C   UNL     1       2.316   4.577  18.138  0.00  0.00    +0.000 C 
ATOM     13  C   UNL     1       3.402   5.549  17.646  0.00  0.00    +0.000 C 
ATOM     14  N   UNL     1       4.708   4.884  17.572  0.00  0.00    +0.000 N 
ATOM     15  C   UNL     1       5.096   4.059  18.727  0.00  0.00    +0.000 C 
ATOM     16  C   UNL     1       3.923   3.174  19.215  0.00  0.00    +0.000 C 
BRANCH  11  17
ATOM     17  C   UNL     1       2.727   4.813  20.556  0.00  0.00    +0.000 C 
BRANCH  17  18
ATOM     18  C   UNL     1       1.531   5.759  20.708  0.00  0.00    +0.000 C 
BRANCH  18  20
ATOM     19  C   UNL     1       0.971   8.145  21.249  0.00  0.00    +0.000 C 
ATOM     20  C   UNL     1       1.932   7.220  20.529  0.00  0.00    +0.000 C 
ENDBRANCH  18  20
ENDBRANCH  17  18
ENDBRANCH  11  17
ENDBRANCH   1  14
BRANCH  10  21
ATOM     21  C   UNL     1       7.311   6.336  17.433  0.00  0.00    +0.000 C 
ATOM     22  N   UNL     1       7.766   6.925  18.332  0.00  0.00    +0.000 NA
ENDBRANCH  10  21
TORSDOF 5
ENDMDL
MODEL 2
REMARK VINA RESULT:      -7.4      1.202      2.096
REMARK  Name = 
REMARK  6 active torsions:
REMARK  status: ('A' for Active; 'I' for Inactive)
REMARK    1  A    between atoms: C_1  and  C_2
REMARK    2  A    between atoms: C_2  and  C_3
REMARK    3  A    between atoms: C_3  and  C_4
REMARK    4  A    between atoms: C_4  and  N_5
REMARK    5  A    between atoms: N_8  and  C_9
REMARK    6  A    between atoms: C_18  and  C_19
REMARK                            x       y       z     vdW  Elec       q    Type
REMARK                         _______ _______ _______ _____ _____    ______ ____
ROOT
ATOM      1  C   UNL     1       5.315   4.905  16.238  0.00  0.00    +0.000 A 
ATOM      2  N   UNL     1       4.920   4.233  15.125  0.00  0.00    +0.000 NA
ATOM      3  C   UNL     1       5.732   4.221  14.046  0.00  0.00    +0.000 A 
ATOM      4  C   UNL     1       5.368   3.537  12.892  0.00  0.00    +0.000 A 
ATOM      5  C   UNL     1       6.223   3.469  11.787  0.00  0.00    +0.000 A 
ATOM      6  C   UNL     1       7.456   4.107  11.831  0.00  0.00    +0.000 A 
ATOM      7  C   UNL     1       7.817   4.824  12.966  0.00  0.00    +0.000 A 
ATOM      8  C   UNL     1       6.978   4.886  14.065  0.00  0.00    +0.000 A 
ATOM      9  N   UNL     1       7.392   5.566  15.136  0.00  0.00    +0.000 NA
ATOM     10  C   UNL     1       6.562   5.558  16.210  0.00  0.00    +0.000 A 
ENDROOT
BRANCH   1  14
ATOM     11  N   UNL     1       3.508   5.392  20.050  0.00  0.00    +0.000 NA
ATOM     12  C   UNL     1       4.538   4.380  19.738  0.00  0.00    +0.000 C 
ATOM     13  C   UNL     1       4.457   3.810  18.312  0.00  0.00    +0.000 C 
ATOM     14  N   UNL     1       4.456   4.888  17.315  0.00  0.00    +0.000 N 
ATOM     15  C   UNL     1       3.563   6.027  17.575  0.00  0.00    +0.000 C 
ATOM     16  C   UNL     1       3.638   6.485  19.052  0.00  0.00    +0.000 C 
BRANCH  11  17
ATOM     17  C   UNL     1       2.139   4.849  20.047  0.00  0.00    +0.000 C 
BRANCH  17  18
ATOM     18  C   UNL     1       1.845   3.856  21.177  0.00  0.00    +0.000 C 
BRANCH  18  20
ATOM     19  C   UNL     1       0.936   2.620  19.190  0.00  0.00    +0.000 C 
ATOM     20  C   UNL     1       1.352   2.514  20.644  0.00  0.00    +0.000 C 
ENDBRANCH  18  20
ENDBRANCH  17  18
ENDBRANCH  11  17
ENDBRANCH   1  14
BRANCH  10  21
ATOM     21  C   UNL     1       7.126   6.219  17.348  0.00  0.00    +0.000 C 
ATOM     22  N   UNL     1       7.589   6.788  18.255  0.00  0.00    +0.000 NA
ENDBRANCH  10  21
TORSDOF 5
ENDMDL
MODEL 3
REMARK VINA RESULT:      -7.2      1.232      1.874
REMARK  Name = 
REMARK  6 active torsions:
REMARK  status: ('A' for Active; 'I' for Inactive)
REMARK    1  A    between atoms: C_1  and  C_2
REMARK    2  A    between atoms: C_2  and  C_3
REMARK    3  A    between atoms: C_3  and  C_4
REMARK    4  A    between atoms: C_4  and  N_5
REMARK    5  A    between atoms: N_8  and  C_9
REMARK    6  A    between atoms: C_18  and  C_19
REMARK                            x       y       z     vdW  Elec       q    Type
REMARK                         _______ _______ _______ _____ _____    ______ ____
ROOT
ATOM      1  C   UNL     1       5.351   4.885  16.290  0.00  0.00    +0.000 A 
ATOM      2  N   UNL     1       4.958   4.254  15.152  0.00  0.00    +0.000 NA
ATOM      3  C   UNL     1       5.781   4.268  14.081  0.00  0.00    +0.000 A 
ATOM      4  C   UNL     1       5.419   3.626  12.902  0.00  0.00    +0.000 A 
ATOM      5  C   UNL     1       6.284   3.585  11.803  0.00  0.00    +0.000 A 
ATOM      6  C   UNL     1       7.524   4.207  11.879  0.00  0.00    +0.000 A 
ATOM      7  C   UNL     1       7.882   4.882  13.040  0.00  0.00    +0.000 A 
ATOM      8  C   UNL     1       7.033   4.918  14.134  0.00  0.00    +0.000 A 
ATOM      9  N   UNL     1       7.445   5.557  15.230  0.00  0.00    +0.000 NA
ATOM     10  C   UNL     1       6.605   5.524  16.296  0.00  0.00    +0.000 A 
ENDROOT
BRANCH   1  14
ATOM     11  N   UNL     1       1.909   4.898  18.778  0.00  0.00    +0.000 NA
ATOM     12  C   UNL     1       2.527   6.110  18.204  0.00  0.00    +0.000 C 
ATOM     13  C   UNL     1       4.060   6.046  18.085  0.00  0.00    +0.000 C 
ATOM     14  N   UNL     1       4.481   4.842  17.358  0.00  0.00    +0.000 N 
ATOM     15  C   UNL     1       3.839   3.577  17.748  0.00  0.00    +0.000 C 
ATOM     16  C   UNL     1       2.311   3.746  17.931  0.00  0.00    +0.000 C 
BRANCH  11  17
ATOM     17  C   UNL     1       2.285   4.663  20.183  0.00  0.00    +0.000 C 
BRANCH  17  18
ATOM     18  C   UNL     1       1.224   3.930  21.012  0.00  0.00    +0.000 C 
BRANCH  18  20
ATOM     19  C   UNL     1       3.214   2.417  21.243  0.00  0.00    +0.000 C 
ATOM     20  C   UNL     1       1.744   2.605  21.563  0.00  0.00    +0.000 C 
ENDBRANCH  18  20
ENDBRANCH  17  18
ENDBRANCH  11  17
ENDBRANCH   1  14
BRANCH  10  21
ATOM     21  C   UNL     1       7.165   6.140  17.459  0.00  0.00    +0.000 C 
ATOM     22  N   UNL     1       7.623   6.610  18.424  0.00  0.00    +0.000 NA
ENDBRANCH  10  21
TORSDOF 5
ENDMDL
MODEL 4
REMARK VINA RESULT:      -7.0      0.977      1.214
REMARK  Name = 
REMARK  6 active torsions:
REMARK  status: ('A' for Active; 'I' for Inactive)
REMARK    1  A    between atoms: C_1  and  C_2
REMARK    2  A    between atoms: C_2  and  C_3
REMARK    3  A    between atoms: C_3  and  C_4
REMARK    4  A    between atoms: C_4  and  N_5
REMARK    5  A    between atoms: N_8  and  C_9
REMARK    6  A    between atoms: C_18  and  C_19
REMARK                            x       y       z     vdW  Elec       q    Type
REMARK                         _______ _______ _______ _____ _____    ______ ____
ROOT
ATOM      1  C   UNL     1       5.482   4.371  16.615  0.00  0.00    +0.000 A 
ATOM      2  N   UNL     1       5.145   3.804  15.427  0.00  0.00    +0.000 NA
ATOM      3  C   UNL     1       5.897   4.073  14.338  0.00  0.00    +0.000 A 
ATOM      4  C   UNL     1       5.591   3.505  13.107  0.00  0.00    +0.000 A 
ATOM      5  C   UNL     1       6.393   3.730  11.984  0.00  0.00    +0.000 A 
ATOM      6  C   UNL     1       7.511   4.548  12.088  0.00  0.00    +0.000 A 
ATOM      7  C   UNL     1       7.807   5.151  13.305  0.00  0.00    +0.000 A 
ATOM      8  C   UNL     1       7.022   4.923  14.423  0.00  0.00    +0.000 A 
ATOM      9  N   UNL     1       7.374   5.507  15.569  0.00  0.00    +0.000 NA
ATOM     10  C   UNL     1       6.607   5.216  16.651  0.00  0.00    +0.000 A 
ENDROOT
BRANCH   1  14
ATOM     11  N   UNL     1       3.079   2.407  19.514  0.00  0.00    +0.000 NA
ATOM     12  C   UNL     1       2.609   2.804  18.172  0.00  0.00    +0.000 C 
ATOM     13  C   UNL     1       3.221   4.113  17.645  0.00  0.00    +0.000 C 
ATOM     14  N   UNL     1       4.688   4.066  17.699  0.00  0.00    +0.000 N 
ATOM     15  C   UNL     1       5.287   3.562  18.944  0.00  0.00    +0.000 C 
ATOM     16  C   UNL     1       4.559   2.294  19.455  0.00  0.00    +0.000 C 
BRANCH  11  17
ATOM     17  C   UNL     1       2.674   3.347  20.574  0.00  0.00    +0.000 C 
BRANCH  17  18
ATOM     18  C   UNL     1       1.162   3.574  20.680  0.00  0.00    +0.000 C 
BRANCH  18  20
ATOM     19  C   UNL     1       1.984   5.941  20.527  0.00  0.00    +0.000 C 
ATOM     20  C   UNL     1       0.782   5.025  20.402  0.00  0.00    +0.000 C 
ENDBRANCH  18  20
ENDBRANCH  17  18
ENDBRANCH  11  17
ENDBRANCH   1  14
BRANCH  10  21
ATOM     21  C   UNL     1       7.113   5.797  17.858  0.00  0.00    +0.000 C 
ATOM     22  N   UNL     1       7.544   6.239  18.848  0.00  0.00    +0.000 NA
ENDBRANCH  10  21
TORSDOF 5
ENDMDL
MODEL 5
REMARK VINA RESULT:      -6.9      1.540      7.299
REMARK  Name = 
REMARK  6 active torsions:
REMARK  status: ('A' for Active; 'I' for Inactive)
REMARK    1  A    between atoms: C_1  and  C_2
REMARK    2  A    between atoms: C_2  and  C_3
REMARK    3  A    between atoms: C_3  and  C_4
REMARK    4  A    between atoms: C_4  and  N_5
REMARK    5  A    between atoms: N_8  and  C_9
REMARK    6  A    between atoms: C_18  and  C_19
REMARK                            x       y       z     vdW  Elec       q    Type
REMARK                         _______ _______ _______ _____ _____    ______ ____
ROOT
ATOM      1  C   UNL     1       3.843   6.233  17.904  0.00  0.00    +0.000 A 
ATOM      2  N   UNL     1       3.207   7.420  17.720  0.00  0.00    +0.000 NA
ATOM      3  C   UNL     1       2.375   7.871  18.685  0.00  0.00    +0.000 A 
ATOM      4  C   UNL     1       1.714   9.085  18.539  0.00  0.00    +0.000 A 
ATOM      5  C   UNL     1       0.893   9.591  19.552  0.00  0.00    +0.000 A 
ATOM      6  C   UNL     1       0.719   8.866  20.724  0.00  0.00    +0.000 A 
ATOM      7  C   UNL     1       1.347   7.633  20.867  0.00  0.00    +0.000 A 
ATOM      8  C   UNL     1       2.168   7.133  19.871  0.00  0.00    +0.000 A 
ATOM      9  N   UNL     1       2.766   5.958  20.078  0.00  0.00    +0.000 NA
ATOM     10  C   UNL     1       3.603   5.529  19.099  0.00  0.00    +0.000 A 
ENDROOT
BRANCH   1  14
ATOM     11  N   UNL     1       6.922   4.390  15.633  0.00  0.00    +0.000 NA
ATOM     12  C   UNL     1       7.117   5.570  16.498  0.00  0.00    +0.000 C 
ATOM     13  C   UNL     1       5.916   6.531  16.543  0.00  0.00    +0.000 C 
ATOM     14  N   UNL     1       4.684   5.814  16.895  0.00  0.00    +0.000 N 
ATOM     15  C   UNL     1       4.433   4.546  16.194  0.00  0.00    +0.000 C 
ATOM     16  C   UNL     1       5.712   3.676  16.115  0.00  0.00    +0.000 C 
BRANCH  11  17
ATOM     17  C   UNL     1       6.787   4.729  14.206  0.00  0.00    +0.000 C 
BRANCH  17  18
ATOM     18  C   UNL     1       5.882   3.784  13.409  0.00  0.00    +0.000 C 
BRANCH  18  20
ATOM     19  C   UNL     1       5.883   2.122  11.528  0.00  0.00    +0.000 C 
ATOM     20  C   UNL     1       6.498   3.398  12.067  0.00  0.00    +0.000 C 
ENDBRANCH  18  20
ENDBRANCH  17  18
ENDBRANCH  11  17
ENDBRANCH   1  14
BRANCH  10  21
ATOM     21  C   UNL     1       4.281   4.318  19.445  0.00  0.00    +0.000 C 
ATOM     22  N   UNL     1       4.847   3.346  19.758  0.00  0.00    +0.000 NA
ENDBRANCH  10  21
TORSDOF 5
ENDMDL
MODEL 6
REMARK VINA RESULT:      -6.6      2.530      6.593
REMARK  Name = 
REMARK  6 active torsions:
REMARK  status: ('A' for Active; 'I' for Inactive)
REMARK    1  A    between atoms: C_1  and  C_2
REMARK    2  A    between atoms: C_2  and  C_3
REMARK    3  A    between atoms: C_3  and  C_4
REMARK    4  A    between atoms: C_4  and  N_5
REMARK    5  A    between atoms: N_8  and  C_9
REMARK    6  A    between atoms: C_18  and  C_19
REMARK                            x       y       z     vdW  Elec       q    Type
REMARK                         _______ _______ _______ _____ _____    ______ ____
ROOT
ATOM      1  C   UNL     1       4.555   4.982  18.390  0.00  0.00    +0.000 A 
ATOM      2  N   UNL     1       3.677   4.993  19.427  0.00  0.00    +0.000 NA
ATOM      3  C   UNL     1       2.632   4.137  19.407  0.00  0.00    +0.000 A 
ATOM      4  C   UNL     1       1.717   4.112  20.453  0.00  0.00    +0.000 A 
ATOM      5  C   UNL     1       0.662   3.193  20.474  0.00  0.00    +0.000 A 
ATOM      6  C   UNL     1       0.512   2.295  19.425  0.00  0.00    +0.000 A 
ATOM      7  C   UNL     1       1.399   2.334  18.356  0.00  0.00    +0.000 A 
ATOM      8  C   UNL     1       2.450   3.235  18.336  0.00  0.00    +0.000 A 
ATOM      9  N   UNL     1       3.286   3.205  17.296  0.00  0.00    +0.000 NA
ATOM     10  C   UNL     1       4.332   4.069  17.341  0.00  0.00    +0.000 A 
ENDROOT
BRANCH   1  14
ATOM     11  N   UNL     1       8.175   7.105  17.738  0.00  0.00    +0.000 NA
ATOM     12  C   UNL     1       8.083   5.809  18.440  0.00  0.00    +0.000 C 
ATOM     13  C   UNL     1       6.802   5.625  19.271  0.00  0.00    +0.000 C 
ATOM     14  N   UNL     1       5.607   5.870  18.454  0.00  0.00    +0.000 N 
ATOM     15  C   UNL     1       5.623   7.069  17.602  0.00  0.00    +0.000 C 
ATOM     16  C   UNL     1       6.977   7.228  16.868  0.00  0.00    +0.000 C 
BRANCH  11  17
ATOM     17  C   UNL     1       8.272   8.256  18.652  0.00  0.00    +0.000 C 
BRANCH  17  18
ATOM     18  C   UNL     1       8.463   9.608  17.954  0.00  0.00    +0.000 C 
BRANCH  18  20
ATOM     19  C   UNL     1      10.208  11.412  17.929  0.00  0.00    +0.000 C 
ATOM     20  C   UNL     1       9.290  10.574  18.797  0.00  0.00    +0.000 C 
ENDBRANCH  18  20
ENDBRANCH  17  18
ENDBRANCH  11  17
ENDBRANCH   1  14
BRANCH  10  21
ATOM     21  C   UNL     1       5.235   3.900  16.244  0.00  0.00    +0.000 C 
ATOM     22  N   UNL     1       5.994   3.786  15.365  0.00  0.00    +0.000 NA
ENDBRANCH  10  21
TORSDOF 5
ENDMDL
MODEL 7
REMARK VINA RESULT:      -6.5      1.630      2.008
REMARK  Name = 
REMARK  6 active torsions:
REMARK  status: ('A' for Active; 'I' for Inactive)
REMARK    1  A    between atoms: C_1  and  C_2
REMARK    2  A    between atoms: C_2  and  C_3
REMARK    3  A    between atoms: C_3  and  C_4
REMARK    4  A    between atoms: C_4  and  N_5
REMARK    5  A    between atoms: N_8  and  C_9
REMARK    6  A    between atoms: C_18  and  C_19
REMARK                            x       y       z     vdW  Elec       q    Type
REMARK                         _______ _______ _______ _____ _____    ______ ____
ROOT
ATOM      1  C   UNL     1       4.923   4.203  16.616  0.00  0.00    +0.000 A 
ATOM      2  N   UNL     1       4.815   3.915  15.292  0.00  0.00    +0.000 NA
ATOM      3  C   UNL     1       5.824   4.260  14.464  0.00  0.00    +0.000 A 
ATOM      4  C   UNL     1       5.756   3.974  13.105  0.00  0.00    +0.000 A 
ATOM      5  C   UNL     1       6.817   4.276  12.245  0.00  0.00    +0.000 A 
ATOM      6  C   UNL     1       7.959   4.886  12.748  0.00  0.00    +0.000 A 
ATOM      7  C   UNL     1       8.025   5.210  14.099  0.00  0.00    +0.000 A 
ATOM      8  C   UNL     1       6.981   4.905  14.956  0.00  0.00    +0.000 A 
ATOM      9  N   UNL     1       7.115   5.214  16.247  0.00  0.00    +0.000 NA
ATOM     10  C   UNL     1       6.091   4.850  17.061  0.00  0.00    +0.000 A 
ENDROOT
BRANCH   1  14
ATOM     11  N   UNL     1       1.179   2.880  18.121  0.00  0.00    +0.000 NA
ATOM     12  C   UNL     1       1.431   4.233  17.586  0.00  0.00    +0.000 C 
ATOM     13  C   UNL     1       2.842   4.776  17.872  0.00  0.00    +0.000 C 
ATOM     14  N   UNL     1       3.870   3.829  17.423  0.00  0.00    +0.000 N 
ATOM     15  C   UNL     1       3.669   2.417  17.780  0.00  0.00    +0.000 C 
ATOM     16  C   UNL     1       2.204   1.973  17.546  0.00  0.00    +0.000 C 
BRANCH  11  17
ATOM     17  C   UNL     1       1.203   2.821  19.593  0.00  0.00    +0.000 C 
BRANCH  17  18
ATOM     18  C   UNL     1       1.099   4.184  20.286  0.00  0.00    +0.000 C 
BRANCH  18  20
ATOM     19  C   UNL     1       2.557   2.953  21.916  0.00  0.00    +0.000 C 
ATOM     20  C   UNL     1       2.084   4.313  21.444  0.00  0.00    +0.000 C 
ENDBRANCH  18  20
ENDBRANCH  17  18
ENDBRANCH  11  17
ENDBRANCH   1  14
BRANCH  10  21
ATOM     21  C   UNL     1       6.359   5.123  18.440  0.00  0.00    +0.000 C 
ATOM     22  N   UNL     1       6.544   5.334  19.573  0.00  0.00    +0.000 NA
ENDBRANCH  10  21
TORSDOF 5
ENDMDL
MODEL 8
REMARK VINA RESULT:      -6.4      2.009      7.686
REMARK  Name = 
REMARK  6 active torsions:
REMARK  status: ('A' for Active; 'I' for Inactive)
REMARK    1  A    between atoms: C_1  and  C_2
REMARK    2  A    between atoms: C_2  and  C_3
REMARK    3  A    between atoms: C_3  and  C_4
REMARK    4  A    between atoms: C_4  and  N_5
REMARK    5  A    between atoms: N_8  and  C_9
REMARK    6  A    between atoms: C_18  and  C_19
REMARK                            x       y       z     vdW  Elec       q    Type
REMARK                         _______ _______ _______ _____ _____    ______ ____
ROOT
ATOM      1  C   UNL     1       2.392   6.738  19.176  0.00  0.00    +0.000 A 
ATOM      2  N   UNL     1       2.175   8.014  18.760  0.00  0.00    +0.000 NA
ATOM      3  C   UNL     1       1.447   8.840  19.543  0.00  0.00    +0.000 A 
ATOM      4  C   UNL     1       1.211  10.155  19.157  0.00  0.00    +0.000 A 
ATOM      5  C   UNL     1       0.507  11.038  19.982  0.00  0.00    +0.000 A 
ATOM      6  C   UNL     1       0.019  10.597  21.205  0.00  0.00    +0.000 A 
ATOM      7  C   UNL     1       0.218   9.275  21.586  0.00  0.00    +0.000 A 
ATOM      8  C   UNL     1       0.923   8.399  20.777  0.00  0.00    +0.000 A 
ATOM      9  N   UNL     1       1.106   7.151  21.210  0.00  0.00    +0.000 NA
ATOM     10  C   UNL     1       1.846   6.341  20.411  0.00  0.00    +0.000 A 
ENDROOT
BRANCH   1  14
ATOM     11  N   UNL     1       4.823   3.656  17.556  0.00  0.00    +0.000 NA
ATOM     12  C   UNL     1       5.330   4.770  18.382  0.00  0.00    +0.000 C 
ATOM     13  C   UNL     1       4.590   6.103  18.174  0.00  0.00    +0.000 C 
ATOM     14  N   UNL     1       3.142   5.932  18.347  0.00  0.00    +0.000 N 
ATOM     15  C   UNL     1       2.528   4.775  17.678  0.00  0.00    +0.000 C 
ATOM     16  C   UNL     1       3.378   3.494  17.861  0.00  0.00    +0.000 C 
BRANCH  11  17
ATOM     17  C   UNL     1       5.027   3.862  16.112  0.00  0.00    +0.000 C 
BRANCH  17  18
ATOM     18  C   UNL     1       6.489   4.056  15.696  0.00  0.00    +0.000 C 
BRANCH  18  20
ATOM     19  C   UNL     1       6.189   3.752  13.223  0.00  0.00    +0.000 C 
ATOM     20  C   UNL     1       6.611   4.707  14.322  0.00  0.00    +0.000 C 
ENDBRANCH  18  20
ENDBRANCH  17  18
ENDBRANCH  11  17
ENDBRANCH   1  14
BRANCH  10  21
ATOM     21  C   UNL     1       2.083   5.056  20.996  0.00  0.00    +0.000 C 
ATOM     22  N   UNL     1       2.297   4.025  21.497  0.00  0.00    +0.000 NA
ENDBRANCH  10  21
TORSDOF 5
ENDMDL
MODEL 9
REMARK VINA RESULT:      -6.3      1.832      6.904
REMARK  Name = 
REMARK  6 active torsions:
REMARK  status: ('A' for Active; 'I' for Inactive)
REMARK    1  A    between atoms: C_1  and  C_2
REMARK    2  A    between atoms: C_2  and  C_3
REMARK    3  A    between atoms: C_3  and  C_4
REMARK    4  A    between atoms: C_4  and  N_5
REMARK    5  A    between atoms: N_8  and  C_9
REMARK    6  A    between atoms: C_18  and  C_19
REMARK                            x       y       z     vdW  Elec       q    Type
REMARK                         _______ _______ _______ _____ _____    ______ ____
ROOT
ATOM      1  C   UNL     1       4.391   4.288  17.745  0.00  0.00    +0.000 A 
ATOM      2  N   UNL     1       3.127   3.798  17.654  0.00  0.00    +0.000 NA
ATOM      3  C   UNL     1       2.460   3.496  18.789  0.00  0.00    +0.000 A 
ATOM      4  C   UNL     1       1.161   3.002  18.738  0.00  0.00    +0.000 A 
ATOM      5  C   UNL     1       0.439   2.737  19.906  0.00  0.00    +0.000 A 
ATOM      6  C   UNL     1       1.028   2.956  21.144  0.00  0.00    +0.000 A 
ATOM      7  C   UNL     1       2.338   3.415  21.209  0.00  0.00    +0.000 A 
ATOM      8  C   UNL     1       3.055   3.688  20.056  0.00  0.00    +0.000 A 
ATOM      9  N   UNL     1       4.298   4.154  20.182  0.00  0.00    +0.000 NA
ATOM     10  C   UNL     1       4.946   4.458  19.028  0.00  0.00    +0.000 A 
ENDROOT
BRANCH   1  14
ATOM     11  N   UNL     1       7.235   5.359  14.778  0.00  0.00    +0.000 NA
ATOM     12  C   UNL     1       6.556   6.322  15.669  0.00  0.00    +0.000 C 
ATOM     13  C   UNL     1       5.106   5.948  16.022  0.00  0.00    +0.000 C 
ATOM     14  N   UNL     1       5.032   4.584  16.562  0.00  0.00    +0.000 N 
ATOM     15  C   UNL     1       5.778   3.544  15.836  0.00  0.00    +0.000 C 
ATOM     16  C   UNL     1       7.194   4.030  15.441  0.00  0.00    +0.000 C 
BRANCH  11  17
ATOM     17  C   UNL     1       6.634   5.285  13.435  0.00  0.00    +0.000 C 
BRANCH  17  18
ATOM     18  C   UNL     1       7.437   4.459  12.424  0.00  0.00    +0.000 C 
BRANCH  18  20
ATOM     19  C   UNL     1       5.153   3.464  12.117  0.00  0.00    +0.000 C 
ATOM     20  C   UNL     1       6.640   3.269  11.897  0.00  0.00    +0.000 C 
ENDBRANCH  18  20
ENDBRANCH  17  18
ENDBRANCH  11  17
ENDBRANCH   1  14
BRANCH  10  21
ATOM     21  C   UNL     1       6.229   5.048  19.255  0.00  0.00    +0.000 C 
ATOM     22  N   UNL     1       7.261   5.553  19.463  0.00  0.00    +0.000 NA
ENDBRANCH  10  21
TORSDOF 5
ENDMDL
