MODEL 1
REMARK VINA RESULT:      -8.0      0.000      0.000
REMARK  Name = 
REMARK  3 active torsions:
REMARK  status: ('A' for Active; 'I' for Inactive)
REMARK    1  A    between atoms: C_1  and  C_2
REMARK    2  A    between atoms: C_11  and  C_12
REMARK    3  A    between atoms: C_20  and  C_21
REMARK                            x       y       z     vdW  Elec       q    Type
REMARK                         _______ _______ _______ _____ _____    ______ ____
ROOT
ATOM      1  C   UNL     1       0.495  11.561  19.072  0.00  0.00    +0.000 C 
ATOM      2  C   UNL     1       0.816  10.459  20.040  0.00  0.00    +0.000 A 
ATOM      3  C   UNL     1       0.595  10.592  21.357  0.00  0.00    +0.000 A 
ATOM      4  C   UNL     1       0.903   9.455  22.243  0.00  0.00    +0.000 A 
ATOM      5  O   UNL     1       0.778   9.540  23.458  0.00  0.00    +0.000 OA
ATOM      6  N   UNL     1       1.333   8.336  21.605  0.00  0.00    +0.000 N 
ATOM      7  C   UNL     1       1.551   8.324  20.255  0.00  0.00    +0.000 A 
ATOM      8  N   UNL     1       2.070   7.084  19.829  0.00  0.00    +0.000 N 
ATOM      9  N   UNL     1       2.123   6.054  20.730  0.00  0.00    +0.000 NA
ATOM     10  C   UNL     1       2.648   5.047  20.033  0.00  0.00    +0.000 A 
ATOM     11  C   UNL     1       3.065   5.422  18.740  0.00  0.00    +0.000 A 
ATOM     12  C   UNL     1       2.588   6.718  18.597  0.00  0.00    +0.000 A 
ATOM     13  C   UNL     1       2.632   7.647  17.434  0.00  0.00    +0.000 C 
ATOM     14  N   UNL     1       1.335   9.324  19.464  0.00  0.00    +0.000 NA
ATOM     15  H   UNL     1       1.561   7.510  22.149  0.00  0.00    +0.000 HD
ENDROOT
BRANCH  11  16
ATOM     16  C   UNL     1       3.798   4.650  17.744  0.00  0.00    +0.000 C 
ATOM     17  O   UNL     1       3.231   3.787  17.084  0.00  0.00    +0.000 OA
ATOM     18  N   UNL     1       5.140   4.975  17.540  0.00  0.00    +0.000 N 
ATOM     19  C   UNL     1       5.914   6.018  18.223  0.00  0.00    +0.000 C 
ATOM     20  C   UNL     1       6.692   6.885  17.232  0.00  0.00    +0.000 C 
ATOM     21  O   UNL     1       7.492   6.084  16.357  0.00  0.00    +0.000 OA
ATOM     22  C   UNL     1       6.664   5.174  15.612  0.00  0.00    +0.000 C 
ATOM     23  C   UNL     1       5.916   4.220  16.551  0.00  0.00    +0.000 C 
ENDBRANCH  11  16
TORSDOF 1
ENDMDL
MODEL 2
REMARK VINA RESULT:      -7.5      2.301      3.767
REMARK  Name = 
REMARK  3 active torsions:
REMARK  status: ('A' for Active; 'I' for Inactive)
REMARK    1  A    between atoms: C_1  and  C_2
REMARK    2  A    between atoms: C_11  and  C_12
REMARK    3  A    between atoms: C_20  and  C_21
REMARK                            x       y       z     vdW  Elec       q    Type
REMARK                         _______ _______ _______ _____ _____    ______ ____
ROOT
ATOM      1  C   UNL     1      -0.507   9.645  22.869  0.00  0.00    +0.000 C 
ATOM      2  C   UNL     1      -0.192   9.886  21.421  0.00  0.00    +0.000 A 
ATOM      3  C   UNL     1      -0.727  10.914  20.746  0.00  0.00    +0.000 A 
ATOM      4  C   UNL     1      -0.346  11.108  19.335  0.00  0.00    +0.000 A 
ATOM      5  O   UNL     1      -0.849  11.992  18.653  0.00  0.00    +0.000 OA
ATOM      6  N   UNL     1       0.583  10.234  18.871  0.00  0.00    +0.000 N 
ATOM      7  C   UNL     1       1.038   9.201  19.643  0.00  0.00    +0.000 A 
ATOM      8  N   UNL     1       1.935   8.381  18.927  0.00  0.00    +0.000 N 
ATOM      9  N   UNL     1       2.347   8.789  17.688  0.00  0.00    +0.000 NA
ATOM     10  C   UNL     1       3.168   7.819  17.288  0.00  0.00    +0.000 A 
ATOM     11  C   UNL     1       3.205   6.721  18.170  0.00  0.00    +0.000 A 
ATOM     12  C   UNL     1       2.476   7.152  19.272  0.00  0.00    +0.000 A 
ATOM     13  C   UNL     1       2.204   6.489  20.577  0.00  0.00    +0.000 C 
ATOM     14  N   UNL     1       0.683   8.982  20.867  0.00  0.00    +0.000 NA
ATOM     15  H   UNL     1       0.899  10.307  17.910  0.00  0.00    +0.000 HD
ENDROOT
BRANCH  11  16
ATOM     16  C   UNL     1       3.865   5.431  18.016  0.00  0.00    +0.000 C 
ATOM     17  O   UNL     1       5.084   5.341  18.106  0.00  0.00    +0.000 OA
ATOM     18  N   UNL     1       3.053   4.312  17.822  0.00  0.00    +0.000 N 
ATOM     19  C   UNL     1       1.588   4.282  17.752  0.00  0.00    +0.000 C 
ATOM     20  C   UNL     1       1.002   3.186  18.643  0.00  0.00    +0.000 C 
ATOM     21  O   UNL     1       1.597   1.915  18.365  0.00  0.00    +0.000 OA
ATOM     22  C   UNL     1       3.018   1.968  18.583  0.00  0.00    +0.000 C 
ATOM     23  C   UNL     1       3.677   2.996  17.657  0.00  0.00    +0.000 C 
ENDBRANCH  11  16
TORSDOF 1
ENDMDL
MODEL 3
REMARK VINA RESULT:      -7.5      1.982      2.977
REMARK  Name = 
REMARK  3 active torsions:
REMARK  status: ('A' for Active; 'I' for Inactive)
REMARK    1  A    between atoms: C_1  and  C_2
REMARK    2  A    between atoms: C_11  and  C_12
REMARK    3  A    between atoms: C_20  and  C_21
REMARK                            x       y       z     vdW  Elec       q    Type
REMARK                         _______ _______ _______ _____ _____    ______ ____
ROOT
ATOM      1  C   UNL     1      -0.016  12.656  18.518  0.00  0.00    +0.000 C 
ATOM      2  C   UNL     1       0.143  11.695  19.660  0.00  0.00    +0.000 A 
ATOM      3  C   UNL     1      -0.300  11.987  20.892  0.00  0.00    +0.000 A 
ATOM      4  C   UNL     1      -0.141  10.981  21.957  0.00  0.00    +0.000 A 
ATOM      5  O   UNL     1      -0.470  11.216  23.113  0.00  0.00    +0.000 OA
ATOM      6  N   UNL     1       0.399   9.803  21.552  0.00  0.00    +0.000 N 
ATOM      7  C   UNL     1       0.844   9.626  20.271  0.00  0.00    +0.000 A 
ATOM      8  N   UNL     1       1.435   8.357  20.103  0.00  0.00    +0.000 N 
ATOM      9  N   UNL     1       1.341   7.451  21.125  0.00  0.00    +0.000 NA
ATOM     10  C   UNL     1       1.984   6.380  20.663  0.00  0.00    +0.000 A 
ATOM     11  C   UNL     1       2.612   6.599  19.420  0.00  0.00    +0.000 A 
ATOM     12  C   UNL     1       2.159   7.853  19.032  0.00  0.00    +0.000 A 
ATOM     13  C   UNL     1       2.393   8.628  17.783  0.00  0.00    +0.000 C 
ATOM     14  N   UNL     1       0.759  10.511  19.331  0.00  0.00    +0.000 NA
ATOM     15  H   UNL     1       0.537   9.059  22.228  0.00  0.00    +0.000 HD
ENDROOT
BRANCH  11  16
ATOM     16  C   UNL     1       3.509   5.729  18.670  0.00  0.00    +0.000 C 
ATOM     17  O   UNL     1       4.710   5.964  18.624  0.00  0.00    +0.000 OA
ATOM     18  N   UNL     1       2.951   4.601  18.065  0.00  0.00    +0.000 N 
ATOM     19  C   UNL     1       1.546   4.182  18.094  0.00  0.00    +0.000 C 
ATOM     20  C   UNL     1       1.403   2.703  18.456  0.00  0.00    +0.000 C 
ATOM     21  O   UNL     1       2.210   1.880  17.608  0.00  0.00    +0.000 OA
ATOM     22  C   UNL     1       3.596   2.246  17.724  0.00  0.00    +0.000 C 
ATOM     23  C   UNL     1       3.817   3.701  17.296  0.00  0.00    +0.000 C 
ENDBRANCH  11  16
TORSDOF 1
ENDMDL
MODEL 4
REMARK VINA RESULT:      -7.3      2.536      7.888
REMARK  Name = 
REMARK  3 active torsions:
REMARK  status: ('A' for Active; 'I' for Inactive)
REMARK    1  A    between atoms: C_1  and  C_2
REMARK    2  A    between atoms: C_11  and  C_12
REMARK    3  A    between atoms: C_20  and  C_21
REMARK                            x       y       z     vdW  Elec       q    Type
REMARK                         _______ _______ _______ _____ _____    ______ ____
ROOT
ATOM      1  C   UNL     1       5.563   2.726  12.104  0.00  0.00    +0.000 C 
ATOM      2  C   UNL     1       6.295   3.782  12.880  0.00  0.00    +0.000 A 
ATOM      3  C   UNL     1       7.444   4.313  12.435  0.00  0.00    +0.000 A 
ATOM      4  C   UNL     1       8.089   5.370  13.233  0.00  0.00    +0.000 A 
ATOM      5  O   UNL     1       9.168   5.848  12.907  0.00  0.00    +0.000 OA
ATOM      6  N   UNL     1       7.399   5.751  14.339  0.00  0.00    +0.000 N 
ATOM      7  C   UNL     1       6.247   5.116  14.713  0.00  0.00    +0.000 A 
ATOM      8  N   UNL     1       5.751   5.627  15.931  0.00  0.00    +0.000 N 
ATOM      9  N   UNL     1       6.346   6.739  16.463  0.00  0.00    +0.000 NA
ATOM     10  C   UNL     1       5.661   6.962  17.584  0.00  0.00    +0.000 A 
ATOM     11  C   UNL     1       4.721   5.953  17.873  0.00  0.00    +0.000 A 
ATOM     12  C   UNL     1       4.728   5.153  16.737  0.00  0.00    +0.000 A 
ATOM     13  C   UNL     1       3.906   3.965  16.379  0.00  0.00    +0.000 C 
ATOM     14  N   UNL     1       5.687   4.153  14.055  0.00  0.00    +0.000 NA
ATOM     15  H   UNL     1       7.778   6.477  14.937  0.00  0.00    +0.000 HD
ENDROOT
BRANCH  11  16
ATOM     16  C   UNL     1       3.892   5.772  19.058  0.00  0.00    +0.000 C 
ATOM     17  O   UNL     1       4.234   4.997  19.944  0.00  0.00    +0.000 OA
ATOM     18  N   UNL     1       2.739   6.552  19.161  0.00  0.00    +0.000 N 
ATOM     19  C   UNL     1       2.253   7.548  18.199  0.00  0.00    +0.000 C 
ATOM     20  C   UNL     1       1.877   8.861  18.887  0.00  0.00    +0.000 C 
ATOM     21  O   UNL     1       0.964   8.641  19.966  0.00  0.00    +0.000 OA
ATOM     22  C   UNL     1       1.547   7.764  20.946  0.00  0.00    +0.000 C 
ATOM     23  C   UNL     1       1.874   6.397  20.335  0.00  0.00    +0.000 C 
ENDBRANCH  11  16
TORSDOF 1
ENDMDL
MODEL 5
REMARK VINA RESULT:      -7.3      3.693      7.750
REMARK  Name = 
REMARK  3 active torsions:
REMARK  status: ('A' for Active; 'I' for Inactive)
REMARK    1  A    between atoms: C_1  and  C_2
REMARK    2  A    between atoms: C_11  and  C_12
REMARK    3  A    between atoms: C_20  and  C_21
REMARK                            x       y       z     vdW  Elec       q    Type
REMARK                         _______ _______ _______ _____ _____    ______ ____
ROOT
ATOM      1  C   UNL     1       5.616   2.529  12.056  0.00  0.00    +0.000 C 
ATOM      2  C   UNL     1       6.233   3.640  12.856  0.00  0.00    +0.000 A 
ATOM      3  C   UNL     1       7.380   4.225  12.479  0.00  0.00    +0.000 A 
ATOM      4  C   UNL     1       7.908   5.333  13.295  0.00  0.00    +0.000 A 
ATOM      5  O   UNL     1       8.980   5.864  13.034  0.00  0.00    +0.000 OA
ATOM      6  N   UNL     1       7.121   5.697  14.340  0.00  0.00    +0.000 N 
ATOM      7  C   UNL     1       5.982   5.006  14.649  0.00  0.00    +0.000 A 
ATOM      8  N   UNL     1       5.374   5.513  15.816  0.00  0.00    +0.000 N 
ATOM      9  N   UNL     1       5.867   6.668  16.361  0.00  0.00    +0.000 NA
ATOM     10  C   UNL     1       5.094   6.875  17.425  0.00  0.00    +0.000 A 
ATOM     11  C   UNL     1       4.191   5.820  17.672  0.00  0.00    +0.000 A 
ATOM     12  C   UNL     1       4.323   4.999  16.560  0.00  0.00    +0.000 A 
ATOM     13  C   UNL     1       3.594   3.760  16.174  0.00  0.00    +0.000 C 
ATOM     14  N   UNL     1       5.524   4.000  13.976  0.00  0.00    +0.000 NA
ATOM     15  H   UNL     1       7.417   6.456  14.946  0.00  0.00    +0.000 HD
ENDROOT
BRANCH  11  16
ATOM     16  C   UNL     1       3.292   5.617  18.800  0.00  0.00    +0.000 C 
ATOM     17  O   UNL     1       2.248   6.254  18.887  0.00  0.00    +0.000 OA
ATOM     18  N   UNL     1       3.641   4.638  19.732  0.00  0.00    +0.000 N 
ATOM     19  C   UNL     1       4.827   3.776  19.711  0.00  0.00    +0.000 C 
ATOM     20  C   UNL     1       4.465   2.309  19.945  0.00  0.00    +0.000 C 
ATOM     21  O   UNL     1       3.685   2.149  21.134  0.00  0.00    +0.000 OA
ATOM     22  C   UNL     1       2.468   2.909  21.041  0.00  0.00    +0.000 C 
ATOM     23  C   UNL     1       2.766   4.405  20.886  0.00  0.00    +0.000 C 
ENDBRANCH  11  16
TORSDOF 1
ENDMDL
MODEL 6
REMARK VINA RESULT:      -7.2      1.580      2.476
REMARK  Name = 
REMARK  3 active torsions:
REMARK  status: ('A' for Active; 'I' for Inactive)
REMARK    1  A    between atoms: C_1  and  C_2
REMARK    2  A    between atoms: C_11  and  C_12
REMARK    3  A    between atoms: C_20  and  C_21
REMARK                            x       y       z     vdW  Elec       q    Type
REMARK                         _______ _______ _______ _____ _____    ______ ____
ROOT
ATOM      1  C   UNL     1      -0.277   9.494  23.321  0.00  0.00    +0.000 C 
ATOM      2  C   UNL     1       0.007   9.877  21.898  0.00  0.00    +0.000 A 
ATOM      3  C   UNL     1      -0.435  11.032  21.378  0.00  0.00    +0.000 A 
ATOM      4  C   UNL     1      -0.088  11.358  19.983  0.00  0.00    +0.000 A 
ATOM      5  O   UNL     1      -0.514  12.367  19.438  0.00  0.00    +0.000 OA
ATOM      6  N   UNL     1       0.721  10.454  19.372  0.00  0.00    +0.000 N 
ATOM      7  C   UNL     1       1.087   9.291  19.992  0.00  0.00    +0.000 A 
ATOM      8  N   UNL     1       1.859   8.476  19.138  0.00  0.00    +0.000 N 
ATOM      9  N   UNL     1       2.268   8.989  17.937  0.00  0.00    +0.000 NA
ATOM     10  C   UNL     1       2.961   7.995  17.383  0.00  0.00    +0.000 A 
ATOM     11  C   UNL     1       2.908   6.798  18.126  0.00  0.00    +0.000 A 
ATOM     12  C   UNL     1       2.273   7.163  19.306  0.00  0.00    +0.000 A 
ATOM     13  C   UNL     1       1.978   6.377  20.535  0.00  0.00    +0.000 C 
ATOM     14  N   UNL     1       0.756   8.961  21.197  0.00  0.00    +0.000 NA
ATOM     15  H   UNL     1       1.007  10.612  18.411  0.00  0.00    +0.000 HD
ENDROOT
BRANCH  11  16
ATOM     16  C   UNL     1       3.415   5.475  17.786  0.00  0.00    +0.000 C 
ATOM     17  O   UNL     1       2.642   4.563  17.514  0.00  0.00    +0.000 OA
ATOM     18  N   UNL     1       4.800   5.313  17.728  0.00  0.00    +0.000 N 
ATOM     19  C   UNL     1       5.823   6.334  17.975  0.00  0.00    +0.000 C 
ATOM     20  C   UNL     1       6.883   6.353  16.873  0.00  0.00    +0.000 C 
ATOM     21  O   UNL     1       7.438   5.051  16.663  0.00  0.00    +0.000 OA
ATOM     22  C   UNL     1       6.408   4.120  16.289  0.00  0.00    +0.000 C 
ATOM     23  C   UNL     1       5.353   3.996  17.394  0.00  0.00    +0.000 C 
ENDBRANCH  11  16
TORSDOF 1
ENDMDL
MODEL 7
REMARK VINA RESULT:      -7.1      3.503      7.951
REMARK  Name = 
REMARK  3 active torsions:
REMARK  status: ('A' for Active; 'I' for Inactive)
REMARK    1  A    between atoms: C_1  and  C_2
REMARK    2  A    between atoms: C_11  and  C_12
REMARK    3  A    between atoms: C_20  and  C_21
REMARK                            x       y       z     vdW  Elec       q    Type
REMARK                         _______ _______ _______ _____ _____    ______ ____
ROOT
ATOM      1  C   UNL     1       5.354   3.139  11.598  0.00  0.00    +0.000 C 
ATOM      2  C   UNL     1       6.189   3.897  12.589  0.00  0.00    +0.000 A 
ATOM      3  C   UNL     1       7.264   4.604  12.209  0.00  0.00    +0.000 A 
ATOM      4  C   UNL     1       8.016   5.351  13.233  0.00  0.00    +0.000 A 
ATOM      5  O   UNL     1       9.039   5.963  12.954  0.00  0.00    +0.000 OA
ATOM      6  N   UNL     1       7.488   5.294  14.482  0.00  0.00    +0.000 N 
ATOM      7  C   UNL     1       6.400   4.514  14.761  0.00  0.00    +0.000 A 
ATOM      8  N   UNL     1       6.080   4.550  16.134  0.00  0.00    +0.000 N 
ATOM      9  N   UNL     1       6.744   5.438  16.937  0.00  0.00    +0.000 NA
ATOM     10  C   UNL     1       6.224   5.229  18.145  0.00  0.00    +0.000 A 
ATOM     11  C   UNL     1       5.332   4.138  18.186  0.00  0.00    +0.000 A 
ATOM     12  C   UNL     1       5.179   3.779  16.853  0.00  0.00    +0.000 A 
ATOM     13  C   UNL     1       4.314   2.749  16.216  0.00  0.00    +0.000 C 
ATOM     14  N   UNL     1       5.752   3.812  13.889  0.00  0.00    +0.000 NA
ATOM     15  H   UNL     1       7.948   5.787  15.240  0.00  0.00    +0.000 HD
ENDROOT
BRANCH  11  16
ATOM     16  C   UNL     1       4.677   3.520  19.332  0.00  0.00    +0.000 C 
ATOM     17  O   UNL     1       5.287   2.735  20.049  0.00  0.00    +0.000 OA
ATOM     18  N   UNL     1       3.363   3.903  19.605  0.00  0.00    +0.000 N 
ATOM     19  C   UNL     1       2.548   4.869  18.860  0.00  0.00    +0.000 C 
ATOM     20  C   UNL     1       1.871   5.876  19.791  0.00  0.00    +0.000 C 
ATOM     21  O   UNL     1       1.139   5.216  20.827  0.00  0.00    +0.000 OA
ATOM     22  C   UNL     1       2.016   4.387  21.612  0.00  0.00    +0.000 C 
ATOM     23  C   UNL     1       2.665   3.302  20.746  0.00  0.00    +0.000 C 
ENDBRANCH  11  16
TORSDOF 1
ENDMDL
MODEL 8
REMARK VINA RESULT:      -7.0      2.711      6.998
REMARK  Name = 
REMARK  3 active torsions:
REMARK  status: ('A' for Active; 'I' for Inactive)
REMARK    1  A    between atoms: C_1  and  C_2
REMARK    2  A    between atoms: C_11  and  C_12
REMARK    3  A    between atoms: C_20  and  C_21
REMARK                            x       y       z     vdW  Elec       q    Type
REMARK                         _______ _______ _______ _____ _____    ______ ____
ROOT
ATOM      1  C   UNL     1       4.478   5.342  17.584  0.00  0.00    +0.000 C 
ATOM      2  C   UNL     1       3.550   5.543  18.747  0.00  0.00    +0.000 A 
ATOM      3  C   UNL     1       3.371   4.594  19.678  0.00  0.00    +0.000 A 
ATOM      4  C   UNL     1       2.471   4.875  20.810  0.00  0.00    +0.000 A 
ATOM      5  O   UNL     1       2.223   4.025  21.656  0.00  0.00    +0.000 OA
ATOM      6  N   UNL     1       1.949   6.129  20.825  0.00  0.00    +0.000 N 
ATOM      7  C   UNL     1       2.178   7.008  19.803  0.00  0.00    +0.000 A 
ATOM      8  N   UNL     1       1.473   8.214  19.996  0.00  0.00    +0.000 N 
ATOM      9  N   UNL     1       0.829   8.412  21.188  0.00  0.00    +0.000 NA
ATOM     10  C   UNL     1       0.275   9.616  21.056  0.00  0.00    +0.000 A 
ATOM     11  C   UNL     1       0.423  10.160  19.764  0.00  0.00    +0.000 A 
ATOM     12  C   UNL     1       1.288   9.279  19.127  0.00  0.00    +0.000 A 
ATOM     13  C   UNL     1       1.898   9.325  17.770  0.00  0.00    +0.000 C 
ATOM     14  N   UNL     1       2.925   6.767  18.775  0.00  0.00    +0.000 NA
ATOM     15  H   UNL     1       1.323   6.399  21.577  0.00  0.00    +0.000 HD
ENDROOT
BRANCH  11  16
ATOM     16  C   UNL     1      -0.152  11.374  19.199  0.00  0.00    +0.000 C 
ATOM     17  O   UNL     1      -1.289  11.370  18.743  0.00  0.00    +0.000 OA
ATOM     18  N   UNL     1       0.620  12.536  19.254  0.00  0.00    +0.000 N 
ATOM     19  C   UNL     1       1.965  12.681  19.820  0.00  0.00    +0.000 C 
ATOM     20  C   UNL     1       2.059  13.891  20.752  0.00  0.00    +0.000 C 
ATOM     21  O   UNL     1       1.597  15.081  20.107  0.00  0.00    +0.000 OA
ATOM     22  C   UNL     1       0.227  14.930  19.693  0.00  0.00    +0.000 C 
ATOM     23  C   UNL     1       0.081  13.779  18.692  0.00  0.00    +0.000 C 
ENDBRANCH  11  16
TORSDOF 1
ENDMDL
MODEL 9
REMARK VINA RESULT:      -7.0      2.887      6.962
REMARK  Name = 
REMARK  3 active torsions:
REMARK  status: ('A' for Active; 'I' for Inactive)
REMARK    1  A    between atoms: C_1  and  C_2
REMARK    2  A    between atoms: C_11  and  C_12
REMARK    3  A    between atoms: C_20  and  C_21
REMARK                            x       y       z     vdW  Elec       q    Type
REMARK                         _______ _______ _______ _____ _____    ______ ____
ROOT
ATOM      1  C   UNL     1       4.077   4.046  17.622  0.00  0.00    +0.000 C 
ATOM      2  C   UNL     1       3.336   4.492  18.850  0.00  0.00    +0.000 A 
ATOM      3  C   UNL     1       3.129   3.666  19.886  0.00  0.00    +0.000 A 
ATOM      4  C   UNL     1       2.424   4.183  21.072  0.00  0.00    +0.000 A 
ATOM      5  O   UNL     1       2.153   3.459  22.021  0.00  0.00    +0.000 OA
ATOM      6  N   UNL     1       2.104   5.502  21.014  0.00  0.00    +0.000 N 
ATOM      7  C   UNL     1       2.339   6.243  19.889  0.00  0.00    +0.000 A 
ATOM      8  N   UNL     1       1.853   7.560  20.031  0.00  0.00    +0.000 N 
ATOM      9  N   UNL     1       1.394   7.959  21.258  0.00  0.00    +0.000 NA
ATOM     10  C   UNL     1       1.017   9.221  21.063  0.00  0.00    +0.000 A 
ATOM     11  C   UNL     1       1.090   9.623  19.714  0.00  0.00    +0.000 A 
ATOM     12  C   UNL     1       1.728   8.563  19.083  0.00  0.00    +0.000 A 
ATOM     13  C   UNL     1       2.171   8.396  17.671  0.00  0.00    +0.000 C 
ATOM     14  N   UNL     1       2.912   5.799  18.819  0.00  0.00    +0.000 NA
ATOM     15  H   UNL     1       1.620   5.932  21.796  0.00  0.00    +0.000 HD
ENDROOT
BRANCH  11  16
ATOM     16  C   UNL     1       0.642  10.862  19.092  0.00  0.00    +0.000 C 
ATOM     17  O   UNL     1       1.445  11.745  18.815  0.00  0.00    +0.000 OA
ATOM     18  N   UNL     1      -0.715  10.971  18.780  0.00  0.00    +0.000 N 
ATOM     19  C   UNL     1      -1.760   9.968  19.010  0.00  0.00    +0.000 C 
ATOM     20  C   UNL     1      -2.618   9.748  17.763  0.00  0.00    +0.000 C 
ATOM     21  O   UNL     1      -3.136  10.985  17.263  0.00  0.00    +0.000 OA
ATOM     22  C   UNL     1      -2.061  11.880  16.925  0.00  0.00    +0.000 C 
ATOM     23  C   UNL     1      -1.209  12.203  18.158  0.00  0.00    +0.000 C 
ENDBRANCH  11  16
TORSDOF 1
ENDMDL
