MODEL 1
REMARK VINA RESULT:      -7.5      0.000      0.000
REMARK  Name = 
REMARK  8 active torsions:
REMARK  status: ('A' for Active; 'I' for Inactive)
REMARK    1  A    between atoms: C_1  and  N_2
REMARK    2  A    between atoms: N_2  and  C_3
REMARK    3  A    between atoms: N_2  and  C_4
REMARK    4  A    between atoms: C_4  and  C_5
REMARK    5  A    between atoms: C_5  and  C_6
REMARK    6  A    between atoms: C_6  and  N_7
REMARK    7  A    between atoms: C_8  and  C_9
REMARK    8  A    between atoms: C_10  and  C_11
REMARK                            x       y       z     vdW  Elec       q    Type
REMARK                         _______ _______ _______ _____ _____    ______ ____
ROOT
ATOM      1  N   UNL     1       2.070   7.314  19.904  0.00  0.00    +0.000 N 
ATOM      2  C   UNL     1       2.392   7.653  18.593  0.00  0.00    +0.000 A 
ATOM      3  N   UNL     1       1.984   8.753  18.031  0.00  0.00    +0.000 NA
ATOM      4  C   UNL     1       1.137   9.611  18.746  0.00  0.00    +0.000 A 
ATOM      5  C   UNL     1       0.558  10.709  18.102  0.00  0.00    +0.000 A 
ATOM      6  C   UNL     1      -0.340  11.545  18.778  0.00  0.00    +0.000 A 
ATOM      7  C   UNL     1      -0.670  11.294  20.110  0.00  0.00    +0.000 A 
ATOM      8  C   UNL     1      -0.091  10.212  20.766  0.00  0.00    +0.000 A 
ATOM      9  C   UNL     1       0.809   9.389  20.076  0.00  0.00    +0.000 A 
ATOM     10  C   UNL     1       1.392   8.216  20.727  0.00  0.00    +0.000 A 
ATOM     11  O   UNL     1       1.234   8.074  21.939  0.00  0.00    +0.000 OA
ENDROOT
BRANCH   2  12
ATOM     12  C   UNL     1       3.209   6.683  17.791  0.00  0.00    +0.000 C 
ATOM     13  C   UNL     1       4.549   6.782  17.664  0.00  0.00    +0.000 C 
BRANCH  13  14
ATOM     14  C   UNL     1       5.391   5.912  16.803  0.00  0.00    +0.000 A 
ATOM     15  C   UNL     1       4.966   5.577  15.502  0.00  0.00    +0.000 A 
ATOM     16  C   UNL     1       5.785   4.856  14.623  0.00  0.00    +0.000 A 
ATOM     17  C   UNL     1       7.062   4.477  15.012  0.00  0.00    +0.000 A 
ATOM     18  C   UNL     1       7.505   4.776  16.298  0.00  0.00    +0.000 A 
ATOM     19  C   UNL     1       6.670   5.469  17.193  0.00  0.00    +0.000 A 
ATOM     20 BR   UNL     1       7.348   5.706  18.959  0.00  0.00    +0.000 Br
ENDBRANCH  13  14
ENDBRANCH   2  12
BRANCH   1  21
ATOM     21  C   UNL     1       2.407   6.043  20.560  0.00  0.00    +0.000 C 
BRANCH  21  22
ATOM     22  C   UNL     1       1.273   5.005  20.457  0.00  0.00    +0.000 C 
BRANCH  22  23
ATOM     23  C   UNL     1       1.581   3.841  19.507  0.00  0.00    +0.000 C 
BRANCH  23  25
ATOM     24  C   UNL     1       3.528   2.553  20.173  0.00  0.00    +0.000 C 
ATOM     25  N   UNL     1       2.068   2.643  20.211  0.00  0.00    +0.000 NA
ATOM     26  C   UNL     1       1.597   2.647  21.598  0.00  0.00    +0.000 C 
ENDBRANCH  23  25
ENDBRANCH  22  23
ENDBRANCH  21  22
ENDBRANCH   1  21
TORSDOF 6
ENDMDL
MODEL 2
REMARK VINA RESULT:      -7.3      0.869      1.021
REMARK  Name = 
REMARK  8 active torsions:
REMARK  status: ('A' for Active; 'I' for Inactive)
REMARK    1  A    between atoms: C_1  and  N_2
REMARK    2  A    between atoms: N_2  and  C_3
REMARK    3  A    between atoms: N_2  and  C_4
REMARK    4  A    between atoms: C_4  and  C_5
REMARK    5  A    between atoms: C_5  and  C_6
REMARK    6  A    between atoms: C_6  and  N_7
REMARK    7  A    between atoms: C_8  and  C_9
REMARK    8  A    between atoms: C_10  and  C_11
REMARK                            x       y       z     vdW  Elec       q    Type
REMARK                         _______ _______ _______ _____ _____    ______ ____
ROOT
ATOM      1  N   UNL     1       2.109   7.322  19.786  0.00  0.00    +0.000 N 
ATOM      2  C   UNL     1       2.340   7.745  18.480  0.00  0.00    +0.000 A 
ATOM      3  N   UNL     1       1.866   8.859  18.007  0.00  0.00    +0.000 NA
ATOM      4  C   UNL     1       1.038   9.647  18.819  0.00  0.00    +0.000 A 
ATOM      5  C   UNL     1       0.388  10.759  18.274  0.00  0.00    +0.000 A 
ATOM      6  C   UNL     1      -0.492  11.526  19.049  0.00  0.00    +0.000 A 
ATOM      7  C   UNL     1      -0.734  11.190  20.380  0.00  0.00    +0.000 A 
ATOM      8  C   UNL     1      -0.084  10.093  20.939  0.00  0.00    +0.000 A 
ATOM      9  C   UNL     1       0.797   9.340  20.151  0.00  0.00    +0.000 A 
ATOM     10  C   UNL     1       1.453   8.154  20.698  0.00  0.00    +0.000 A 
ATOM     11  O   UNL     1       1.374   7.939  21.906  0.00  0.00    +0.000 OA
ENDROOT
BRANCH   2  12
ATOM     12  C   UNL     1       3.137   6.848  17.577  0.00  0.00    +0.000 C 
ATOM     13  C   UNL     1       4.389   6.438  17.870  0.00  0.00    +0.000 C 
BRANCH  13  14
ATOM     14  C   UNL     1       5.257   5.637  16.969  0.00  0.00    +0.000 A 
ATOM     15  C   UNL     1       4.734   4.517  16.291  0.00  0.00    +0.000 A 
ATOM     16  C   UNL     1       5.490   3.808  15.348  0.00  0.00    +0.000 A 
ATOM     17  C   UNL     1       6.778   4.221  15.035  0.00  0.00    +0.000 A 
ATOM     18  C   UNL     1       7.330   5.312  15.701  0.00  0.00    +0.000 A 
ATOM     19  C   UNL     1       6.585   6.002  16.674  0.00  0.00    +0.000 A 
ATOM     20 BR   UNL     1       7.499   7.397  17.596  0.00  0.00    +0.000 Br
ENDBRANCH  13  14
ENDBRANCH   2  12
BRANCH   1  21
ATOM     21  C   UNL     1       2.523   6.029  20.347  0.00  0.00    +0.000 C 
BRANCH  21  22
ATOM     22  C   UNL     1       1.454   4.933  20.161  0.00  0.00    +0.000 C 
BRANCH  22  23
ATOM     23  C   UNL     1       2.015   3.507  20.199  0.00  0.00    +0.000 C 
BRANCH  23  25
ATOM     24  C   UNL     1       4.250   2.773  19.599  0.00  0.00    +0.000 C 
ATOM     25  N   UNL     1       2.954   3.233  19.098  0.00  0.00    +0.000 NA
ATOM     26  C   UNL     1       2.384   2.241  18.185  0.00  0.00    +0.000 C 
ENDBRANCH  23  25
ENDBRANCH  22  23
ENDBRANCH  21  22
ENDBRANCH   1  21
TORSDOF 6
ENDMDL
MODEL 3
REMARK VINA RESULT:      -7.2      2.723      6.897
REMARK  Name = 
REMARK  8 active torsions:
REMARK  status: ('A' for Active; 'I' for Inactive)
REMARK    1  A    between atoms: C_1  and  N_2
REMARK    2  A    between atoms: N_2  and  C_3
REMARK    3  A    between atoms: N_2  and  C_4
REMARK    4  A    between atoms: C_4  and  C_5
REMARK    5  A    between atoms: C_5  and  C_6
REMARK    6  A    between atoms: C_6  and  N_7
REMARK    7  A    between atoms: C_8  and  C_9
REMARK    8  A    between atoms: C_10  and  C_11
REMARK                            x       y       z     vdW  Elec       q    Type
REMARK                         _______ _______ _______ _____ _____    ______ ____
ROOT
ATOM      1  N   UNL     1       2.330   4.861  18.068  0.00  0.00    +0.000 N 
ATOM      2  C   UNL     1       2.761   6.047  18.655  0.00  0.00    +0.000 A 
ATOM      3  N   UNL     1       3.959   6.523  18.483  0.00  0.00    +0.000 NA
ATOM      4  C   UNL     1       4.881   5.790  17.723  0.00  0.00    +0.000 A 
ATOM      5  C   UNL     1       6.216   6.203  17.665  0.00  0.00    +0.000 A 
ATOM      6  C   UNL     1       7.169   5.454  16.963  0.00  0.00    +0.000 A 
ATOM      7  C   UNL     1       6.799   4.279  16.309  0.00  0.00    +0.000 A 
ATOM      8  C   UNL     1       5.471   3.864  16.347  0.00  0.00    +0.000 A 
ATOM      9  C   UNL     1       4.530   4.629  17.049  0.00  0.00    +0.000 A 
ATOM     10  C   UNL     1       3.139   4.188  17.149  0.00  0.00    +0.000 A 
ATOM     11  O   UNL     1       2.767   3.246  16.450  0.00  0.00    +0.000 OA
ENDROOT
BRANCH   2  12
ATOM     12  C   UNL     1       1.809   6.777  19.557  0.00  0.00    +0.000 C 
ATOM     13  C   UNL     1       1.822   8.118  19.707  0.00  0.00    +0.000 C 
BRANCH  13  14
ATOM     14  C   UNL     1       0.973   8.879  20.659  0.00  0.00    +0.000 A 
ATOM     15  C   UNL     1       1.098   8.667  22.047  0.00  0.00    +0.000 A 
ATOM     16  C   UNL     1       0.398   9.446  22.977  0.00  0.00    +0.000 A 
ATOM     17  C   UNL     1      -0.423  10.479  22.544  0.00  0.00    +0.000 A 
ATOM     18  C   UNL     1      -0.583  10.701  21.179  0.00  0.00    +0.000 A 
ATOM     19  C   UNL     1       0.092   9.896  20.243  0.00  0.00    +0.000 A 
ATOM     20 BR   UNL     1      -0.310  10.225  18.410  0.00  0.00    +0.000 Br
ENDBRANCH  13  14
ENDBRANCH   2  12
BRANCH   1  21
ATOM     21  C   UNL     1       1.033   4.216  18.308  0.00  0.00    +0.000 C 
BRANCH  21  22
ATOM     22  C   UNL     1       0.952   3.546  19.693  0.00  0.00    +0.000 C 
BRANCH  22  23
ATOM     23  C   UNL     1       1.826   2.293  19.829  0.00  0.00    +0.000 C 
BRANCH  23  25
ATOM     24  C   UNL     1       4.207   2.515  20.247  0.00  0.00    +0.000 C 
ATOM     25  N   UNL     1       2.876   2.437  20.851  0.00  0.00    +0.000 NA
ATOM     26  C   UNL     1       2.621   3.624  21.670  0.00  0.00    +0.000 C 
ENDBRANCH  23  25
ENDBRANCH  22  23
ENDBRANCH  21  22
ENDBRANCH   1  21
TORSDOF 6
ENDMDL
MODEL 4
REMARK VINA RESULT:      -7.1      2.466      6.626
REMARK  Name = 
REMARK  8 active torsions:
REMARK  status: ('A' for Active; 'I' for Inactive)
REMARK    1  A    between atoms: C_1  and  N_2
REMARK    2  A    between atoms: N_2  and  C_3
REMARK    3  A    between atoms: N_2  and  C_4
REMARK    4  A    between atoms: C_4  and  C_5
REMARK    5  A    between atoms: C_5  and  C_6
REMARK    6  A    between atoms: C_6  and  N_7
REMARK    7  A    between atoms: C_8  and  C_9
REMARK    8  A    between atoms: C_10  and  C_11
REMARK                            x       y       z     vdW  Elec       q    Type
REMARK                         _______ _______ _______ _____ _____    ______ ____
ROOT
ATOM      1  N   UNL     1       2.745   5.342  17.686  0.00  0.00    +0.000 N 
ATOM      2  C   UNL     1       2.970   6.712  17.789  0.00  0.00    +0.000 A 
ATOM      3  N   UNL     1       4.147   7.244  17.644  0.00  0.00    +0.000 NA
ATOM      4  C   UNL     1       5.252   6.408  17.431  0.00  0.00    +0.000 A 
ATOM      5  C   UNL     1       6.543   6.947  17.437  0.00  0.00    +0.000 A 
ATOM      6  C   UNL     1       7.665   6.123  17.288  0.00  0.00    +0.000 A 
ATOM      7  C   UNL     1       7.513   4.746  17.129  0.00  0.00    +0.000 A 
ATOM      8  C   UNL     1       6.234   4.198  17.107  0.00  0.00    +0.000 A 
ATOM      9  C   UNL     1       5.121   5.037  17.253  0.00  0.00    +0.000 A 
ATOM     10  C   UNL     1       3.770   4.481  17.285  0.00  0.00    +0.000 A 
ATOM     11  O   UNL     1       3.611   3.297  16.990  0.00  0.00    +0.000 OA
ENDROOT
BRANCH   2  12
ATOM     12  C   UNL     1       1.805   7.597  18.126  0.00  0.00    +0.000 C 
ATOM     13  C   UNL     1       1.952   8.844  18.621  0.00  0.00    +0.000 C 
BRANCH  13  14
ATOM     14  C   UNL     1       0.838   9.722  19.065  0.00  0.00    +0.000 A 
ATOM     15  C   UNL     1       0.126  10.495  18.125  0.00  0.00    +0.000 A 
ATOM     16  C   UNL     1      -1.000  11.244  18.490  0.00  0.00    +0.000 A 
ATOM     17  C   UNL     1      -1.462  11.215  19.799  0.00  0.00    +0.000 A 
ATOM     18  C   UNL     1      -0.770  10.477  20.755  0.00  0.00    +0.000 A 
ATOM     19  C   UNL     1       0.382   9.753  20.397  0.00  0.00    +0.000 A 
ATOM     20 BR   UNL     1       1.304   8.886  21.822  0.00  0.00    +0.000 Br
ENDBRANCH  13  14
ENDBRANCH   2  12
BRANCH   1  21
ATOM     21  C   UNL     1       1.465   4.669  17.945  0.00  0.00    +0.000 C 
BRANCH  21  22
ATOM     22  C   UNL     1       1.311   4.235  19.416  0.00  0.00    +0.000 C 
BRANCH  22  23
ATOM     23  C   UNL     1       1.425   2.722  19.632  0.00  0.00    +0.000 C 
BRANCH  23  25
ATOM     24  C   UNL     1       3.739   2.484  20.327  0.00  0.00    +0.000 C 
ATOM     25  N   UNL     1       2.337   2.368  20.732  0.00  0.00    +0.000 NA
ATOM     26  C   UNL     1       2.075   3.219  21.896  0.00  0.00    +0.000 C 
ENDBRANCH  23  25
ENDBRANCH  22  23
ENDBRANCH  21  22
ENDBRANCH   1  21
TORSDOF 6
ENDMDL
MODEL 5
REMARK VINA RESULT:      -7.0      2.589      6.855
REMARK  Name = 
REMARK  8 active torsions:
REMARK  status: ('A' for Active; 'I' for Inactive)
REMARK    1  A    between atoms: C_1  and  N_2
REMARK    2  A    between atoms: N_2  and  C_3
REMARK    3  A    between atoms: N_2  and  C_4
REMARK    4  A    between atoms: C_4  and  C_5
REMARK    5  A    between atoms: C_5  and  C_6
REMARK    6  A    between atoms: C_6  and  N_7
REMARK    7  A    between atoms: C_8  and  C_9
REMARK    8  A    between atoms: C_10  and  C_11
REMARK                            x       y       z     vdW  Elec       q    Type
REMARK                         _______ _______ _______ _____ _____    ______ ____
ROOT
ATOM      1  N   UNL     1       3.414   5.180  19.915  0.00  0.00    +0.000 N 
ATOM      2  C   UNL     1       3.009   6.340  19.262  0.00  0.00    +0.000 A 
ATOM      3  N   UNL     1       3.608   6.796  18.202  0.00  0.00    +0.000 NA
ATOM      4  C   UNL     1       4.747   6.133  17.723  0.00  0.00    +0.000 A 
ATOM      5  C   UNL     1       5.497   6.702  16.689  0.00  0.00    +0.000 A 
ATOM      6  C   UNL     1       6.672   6.089  16.236  0.00  0.00    +0.000 A 
ATOM      7  C   UNL     1       7.113   4.897  16.811  0.00  0.00    +0.000 A 
ATOM      8  C   UNL     1       6.368   4.314  17.832  0.00  0.00    +0.000 A 
ATOM      9  C   UNL     1       5.192   4.938  18.270  0.00  0.00    +0.000 A 
ATOM     10  C   UNL     1       4.420   4.373  19.375  0.00  0.00    +0.000 A 
ATOM     11  O   UNL     1       4.707   3.249  19.783  0.00  0.00    +0.000 OA
ENDROOT
BRANCH   2  12
ATOM     12  C   UNL     1       1.856   7.110  19.838  0.00  0.00    +0.000 C 
ATOM     13  C   UNL     1       1.996   8.333  20.392  0.00  0.00    +0.000 C 
BRANCH  13  14
ATOM     14  C   UNL     1       0.912   9.093  21.066  0.00  0.00    +0.000 A 
ATOM     15  C   UNL     1       0.722   8.976  22.458  0.00  0.00    +0.000 A 
ATOM     16  C   UNL     1      -0.213   9.762  23.142  0.00  0.00    +0.000 A 
ATOM     17  C   UNL     1      -0.962  10.710  22.457  0.00  0.00    +0.000 A 
ATOM     18  C   UNL     1      -0.811  10.837  21.079  0.00  0.00    +0.000 A 
ATOM     19  C   UNL     1       0.102  10.023  20.385  0.00  0.00    +0.000 A 
ATOM     20 BR   UNL     1       0.121  10.212  18.489  0.00  0.00    +0.000 Br
ENDBRANCH  13  14
ENDBRANCH   2  12
BRANCH   1  21
ATOM     21  C   UNL     1       2.851   4.671  21.173  0.00  0.00    +0.000 C 
BRANCH  21  22
ATOM     22  C   UNL     1       1.964   3.428  20.964  0.00  0.00    +0.000 C 
BRANCH  22  23
ATOM     23  C   UNL     1       0.758   3.672  20.049  0.00  0.00    +0.000 C 
BRANCH  23  25
ATOM     24  C   UNL     1       1.286   3.788  17.683  0.00  0.00    +0.000 C 
ATOM     25  N   UNL     1       0.843   2.929  18.781  0.00  0.00    +0.000 NA
ATOM     26  C   UNL     1       1.747   1.786  18.927  0.00  0.00    +0.000 C 
ENDBRANCH  23  25
ENDBRANCH  22  23
ENDBRANCH  21  22
ENDBRANCH   1  21
TORSDOF 6
ENDMDL
MODEL 6
REMARK VINA RESULT:      -6.8      2.596      6.637
REMARK  Name = 
REMARK  8 active torsions:
REMARK  status: ('A' for Active; 'I' for Inactive)
REMARK    1  A    between atoms: C_1  and  N_2
REMARK    2  A    between atoms: N_2  and  C_3
REMARK    3  A    between atoms: N_2  and  C_4
REMARK    4  A    between atoms: C_4  and  C_5
REMARK    5  A    between atoms: C_5  and  C_6
REMARK    6  A    between atoms: C_6  and  N_7
REMARK    7  A    between atoms: C_8  and  C_9
REMARK    8  A    between atoms: C_10  and  C_11
REMARK                            x       y       z     vdW  Elec       q    Type
REMARK                         _______ _______ _______ _____ _____    ______ ____
ROOT
ATOM      1  N   UNL     1       2.751   5.638  17.702  0.00  0.00    +0.000 N 
ATOM      2  C   UNL     1       2.998   7.006  17.783  0.00  0.00    +0.000 A 
ATOM      3  N   UNL     1       4.181   7.519  17.615  0.00  0.00    +0.000 NA
ATOM      4  C   UNL     1       5.271   6.663  17.403  0.00  0.00    +0.000 A 
ATOM      5  C   UNL     1       6.569   7.185  17.387  0.00  0.00    +0.000 A 
ATOM      6  C   UNL     1       7.678   6.342  17.238  0.00  0.00    +0.000 A 
ATOM      7  C   UNL     1       7.504   4.966  17.102  0.00  0.00    +0.000 A 
ATOM      8  C   UNL     1       6.217   4.435  17.103  0.00  0.00    +0.000 A 
ATOM      9  C   UNL     1       5.119   5.293  17.248  0.00  0.00    +0.000 A 
ATOM     10  C   UNL     1       3.760   4.756  17.304  0.00  0.00    +0.000 A 
ATOM     11  O   UNL     1       3.581   3.570  17.029  0.00  0.00    +0.000 OA
ENDROOT
BRANCH   2  12
ATOM     12  C   UNL     1       1.850   7.913  18.118  0.00  0.00    +0.000 C 
ATOM     13  C   UNL     1       1.911   9.254  17.982  0.00  0.00    +0.000 C 
BRANCH  13  14
ATOM     14  C   UNL     1       0.845  10.203  18.394  0.00  0.00    +0.000 A 
ATOM     15  C   UNL     1      -0.449   9.730  18.694  0.00  0.00    +0.000 A 
ATOM     16  C   UNL     1      -1.445  10.578  19.194  0.00  0.00    +0.000 A 
ATOM     17  C   UNL     1      -1.165  11.917  19.436  0.00  0.00    +0.000 A 
ATOM     18  C   UNL     1       0.098  12.419  19.132  0.00  0.00    +0.000 A 
ATOM     19  C   UNL     1       1.088  11.576  18.596  0.00  0.00    +0.000 A 
ATOM     20 BR   UNL     1       2.729  12.414  18.110  0.00  0.00    +0.000 Br
ENDBRANCH  13  14
ENDBRANCH   2  12
BRANCH   1  21
ATOM     21  C   UNL     1       1.465   4.988  17.986  0.00  0.00    +0.000 C 
BRANCH  21  22
ATOM     22  C   UNL     1       1.365   4.482  19.439  0.00  0.00    +0.000 C 
BRANCH  22  23
ATOM     23  C   UNL     1       1.319   2.954  19.563  0.00  0.00    +0.000 C 
BRANCH  23  25
ATOM     24  C   UNL     1       3.610   2.508  20.229  0.00  0.00    +0.000 C 
ATOM     25  N   UNL     1       2.203   2.441  20.623  0.00  0.00    +0.000 NA
ATOM     26  C   UNL     1       1.988   3.189  21.864  0.00  0.00    +0.000 C 
ENDBRANCH  23  25
ENDBRANCH  22  23
ENDBRANCH  21  22
ENDBRANCH   1  21
TORSDOF 6
ENDMDL
MODEL 7
REMARK VINA RESULT:      -6.8      2.248      6.586
REMARK  Name = 
REMARK  8 active torsions:
REMARK  status: ('A' for Active; 'I' for Inactive)
REMARK    1  A    between atoms: C_1  and  N_2
REMARK    2  A    between atoms: N_2  and  C_3
REMARK    3  A    between atoms: N_2  and  C_4
REMARK    4  A    between atoms: C_4  and  C_5
REMARK    5  A    between atoms: C_5  and  C_6
REMARK    6  A    between atoms: C_6  and  N_7
REMARK    7  A    between atoms: C_8  and  C_9
REMARK    8  A    between atoms: C_10  and  C_11
REMARK                            x       y       z     vdW  Elec       q    Type
REMARK                         _______ _______ _______ _____ _____    ______ ____
ROOT
ATOM      1  N   UNL     1       3.355   5.704  19.294  0.00  0.00    +0.000 N 
ATOM      2  C   UNL     1       3.050   6.641  18.310  0.00  0.00    +0.000 A 
ATOM      3  N   UNL     1       3.759   6.784  17.230  0.00  0.00    +0.000 NA
ATOM      4  C   UNL     1       4.915   6.008  17.066  0.00  0.00    +0.000 A 
ATOM      5  C   UNL     1       5.777   6.265  15.994  0.00  0.00    +0.000 A 
ATOM      6  C   UNL     1       6.968   5.545  15.843  0.00  0.00    +0.000 A 
ATOM      7  C   UNL     1       7.315   4.556  16.763  0.00  0.00    +0.000 A 
ATOM      8  C   UNL     1       6.461   4.281  17.827  0.00  0.00    +0.000 A 
ATOM      9  C   UNL     1       5.270   5.008  17.960  0.00  0.00    +0.000 A 
ATOM     10  C   UNL     1       4.380   4.774  19.096  0.00  0.00    +0.000 A 
ATOM     11  O   UNL     1       4.592   3.805  19.823  0.00  0.00    +0.000 OA
ENDROOT
BRANCH   2  12
ATOM     12  C   UNL     1       1.874   7.546  18.537  0.00  0.00    +0.000 C 
ATOM     13  C   UNL     1       2.005   8.838  18.905  0.00  0.00    +0.000 C 
BRANCH  13  14
ATOM     14  C   UNL     1       0.879   9.748  19.241  0.00  0.00    +0.000 A 
ATOM     15  C   UNL     1       0.208  10.452  18.221  0.00  0.00    +0.000 A 
ATOM     16  C   UNL     1      -0.928  11.228  18.486  0.00  0.00    +0.000 A 
ATOM     17  C   UNL     1      -1.441  11.294  19.774  0.00  0.00    +0.000 A 
ATOM     18  C   UNL     1      -0.790  10.626  20.807  0.00  0.00    +0.000 A 
ATOM     19  C   UNL     1       0.371   9.876  20.548  0.00  0.00    +0.000 A 
ATOM     20 BR   UNL     1       1.233   9.113  22.067  0.00  0.00    +0.000 Br
ENDBRANCH  13  14
ENDBRANCH   2  12
BRANCH   1  21
ATOM     21  C   UNL     1       2.661   5.565  20.581  0.00  0.00    +0.000 C 
BRANCH  21  22
ATOM     22  C   UNL     1       1.271   4.916  20.436  0.00  0.00    +0.000 C 
BRANCH  22  23
ATOM     23  C   UNL     1       1.264   3.402  20.677  0.00  0.00    +0.000 C 
BRANCH  23  25
ATOM     24  C   UNL     1       0.931   3.502  18.275  0.00  0.00    +0.000 C 
ATOM     25  N   UNL     1       1.064   2.628  19.440  0.00  0.00    +0.000 NA
ATOM     26  C   UNL     1       2.174   1.692  19.247  0.00  0.00    +0.000 C 
ENDBRANCH  23  25
ENDBRANCH  22  23
ENDBRANCH  21  22
ENDBRANCH   1  21
TORSDOF 6
ENDMDL
MODEL 8
REMARK VINA RESULT:      -6.7      2.454      6.714
REMARK  Name = 
REMARK  8 active torsions:
REMARK  status: ('A' for Active; 'I' for Inactive)
REMARK    1  A    between atoms: C_1  and  N_2
REMARK    2  A    between atoms: N_2  and  C_3
REMARK    3  A    between atoms: N_2  and  C_4
REMARK    4  A    between atoms: C_4  and  C_5
REMARK    5  A    between atoms: C_5  and  C_6
REMARK    6  A    between atoms: C_6  and  N_7
REMARK    7  A    between atoms: C_8  and  C_9
REMARK    8  A    between atoms: C_10  and  C_11
REMARK                            x       y       z     vdW  Elec       q    Type
REMARK                         _______ _______ _______ _____ _____    ______ ____
ROOT
ATOM      1  N   UNL     1       2.461   5.450  18.220  0.00  0.00    +0.000 N 
ATOM      2  C   UNL     1       2.891   6.770  18.321  0.00  0.00    +0.000 A 
ATOM      3  N   UNL     1       4.010   7.187  17.806  0.00  0.00    +0.000 NA
ATOM      4  C   UNL     1       4.854   6.265  17.172  0.00  0.00    +0.000 A 
ATOM      5  C   UNL     1       6.131   6.662  16.761  0.00  0.00    +0.000 A 
ATOM      6  C   UNL     1       7.015   5.744  16.180  0.00  0.00    +0.000 A 
ATOM      7  C   UNL     1       6.633   4.414  16.002  0.00  0.00    +0.000 A 
ATOM      8  C   UNL     1       5.361   4.009  16.395  0.00  0.00    +0.000 A 
ATOM      9  C   UNL     1       4.487   4.942  16.969  0.00  0.00    +0.000 A 
ATOM     10  C   UNL     1       3.165   4.531  17.437  0.00  0.00    +0.000 A 
ATOM     11  O   UNL     1       2.757   3.407  17.145  0.00  0.00    +0.000 OA
ENDROOT
BRANCH   2  12
ATOM     12  C   UNL     1       2.039   7.735  19.095  0.00  0.00    +0.000 C 
ATOM     13  C   UNL     1       1.739   8.971  18.646  0.00  0.00    +0.000 C 
BRANCH  13  14
ATOM     14  C   UNL     1       0.989   9.999  19.412  0.00  0.00    +0.000 A 
ATOM     15  C   UNL     1       0.030   9.610  20.369  0.00  0.00    +0.000 A 
ATOM     16  C   UNL     1      -0.613  10.545  21.190  0.00  0.00    +0.000 A 
ATOM     17  C   UNL     1      -0.291  11.893  21.096  0.00  0.00    +0.000 A 
ATOM     18  C   UNL     1       0.638  12.311  20.148  0.00  0.00    +0.000 A 
ATOM     19  C   UNL     1       1.258  11.377  19.299  0.00  0.00    +0.000 A 
ATOM     20 BR   UNL     1       2.415  12.094  17.965  0.00  0.00    +0.000 Br
ENDBRANCH  13  14
ENDBRANCH   2  12
BRANCH   1  21
ATOM     21  C   UNL     1       1.266   4.893  18.868  0.00  0.00    +0.000 C 
BRANCH  21  22
ATOM     22  C   UNL     1       1.395   4.842  20.403  0.00  0.00    +0.000 C 
BRANCH  22  23
ATOM     23  C   UNL     1       2.794   4.454  20.897  0.00  0.00    +0.000 C 
BRANCH  23  25
ATOM     24  C   UNL     1       1.549   2.494  21.602  0.00  0.00    +0.000 C 
ATOM     25  N   UNL     1       2.876   3.053  21.340  0.00  0.00    +0.000 NA
ATOM     26  C   UNL     1       3.575   2.247  20.336  0.00  0.00    +0.000 C 
ENDBRANCH  23  25
ENDBRANCH  22  23
ENDBRANCH  21  22
ENDBRANCH   1  21
TORSDOF 6
ENDMDL
MODEL 9
REMARK VINA RESULT:      -6.7      3.297      5.765
REMARK  Name = 
REMARK  8 active torsions:
REMARK  status: ('A' for Active; 'I' for Inactive)
REMARK    1  A    between atoms: C_1  and  N_2
REMARK    2  A    between atoms: N_2  and  C_3
REMARK    3  A    between atoms: N_2  and  C_4
REMARK    4  A    between atoms: C_4  and  C_5
REMARK    5  A    between atoms: C_5  and  C_6
REMARK    6  A    between atoms: C_6  and  N_7
REMARK    7  A    between atoms: C_8  and  C_9
REMARK    8  A    between atoms: C_10  and  C_11
REMARK                            x       y       z     vdW  Elec       q    Type
REMARK                         _______ _______ _______ _____ _____    ______ ____
ROOT
ATOM      1  N   UNL     1       0.102  10.843  18.608  0.00  0.00    +0.000 N 
ATOM      2  C   UNL     1       1.417  10.537  18.268  0.00  0.00    +0.000 A 
ATOM      3  N   UNL     1       2.355  11.436  18.205  0.00  0.00    +0.000 NA
ATOM      4  C   UNL     1       2.027  12.780  18.430  0.00  0.00    +0.000 A 
ATOM      5  C   UNL     1       2.984  13.775  18.205  0.00  0.00    +0.000 A 
ATOM      6  C   UNL     1       2.663  15.129  18.364  0.00  0.00    +0.000 A 
ATOM      7  C   UNL     1       1.378  15.507  18.752  0.00  0.00    +0.000 A 
ATOM      8  C   UNL     1       0.420  14.527  18.992  0.00  0.00    +0.000 A 
ATOM      9  C   UNL     1       0.760  13.177  18.833  0.00  0.00    +0.000 A 
ATOM     10  C   UNL     1      -0.242  12.130  19.029  0.00  0.00    +0.000 A 
ATOM     11  O   UNL     1      -1.328  12.436  19.521  0.00  0.00    +0.000 OA
ENDROOT
BRANCH   2  12
ATOM     12  C   UNL     1       1.745   9.114  17.920  0.00  0.00    +0.000 C 
ATOM     13  C   UNL     1       2.741   8.425  18.514  0.00  0.00    +0.000 C 
BRANCH  13  14
ATOM     14  C   UNL     1       3.173   7.055  18.139  0.00  0.00    +0.000 A 
ATOM     15  C   UNL     1       4.000   6.854  17.015  0.00  0.00    +0.000 A 
ATOM     16  C   UNL     1       4.519   5.592  16.698  0.00  0.00    +0.000 A 
ATOM     17  C   UNL     1       4.249   4.502  17.515  0.00  0.00    +0.000 A 
ATOM     18  C   UNL     1       3.420   4.663  18.622  0.00  0.00    +0.000 A 
ATOM     19  C   UNL     1       2.869   5.923  18.921  0.00  0.00    +0.000 A 
ATOM     20 BR   UNL     1       1.655   5.980  20.388  0.00  0.00    +0.000 Br
ENDBRANCH  13  14
ENDBRANCH   2  12
BRANCH   1  21
ATOM     21  C   UNL     1      -1.022   9.898  18.592  0.00  0.00    +0.000 C 
BRANCH  21  22
ATOM     22  C   UNL     1      -1.786   9.908  17.253  0.00  0.00    +0.000 C 
BRANCH  22  23
ATOM     23  C   UNL     1      -3.308   9.804  17.406  0.00  0.00    +0.000 C 
BRANCH  23  25
ATOM     24  C   UNL     1      -4.683  11.722  16.837  0.00  0.00    +0.000 C 
ATOM     25  N   UNL     1      -4.038  10.507  16.338  0.00  0.00    +0.000 NA
ATOM     26  C   UNL     1      -3.129  10.833  15.236  0.00  0.00    +0.000 C 
ENDBRANCH  23  25
ENDBRANCH  22  23
ENDBRANCH  21  22
ENDBRANCH   1  21
TORSDOF 6
ENDMDL
