MODEL 1
REMARK VINA RESULT:      -7.1      0.000      0.000
REMARK  Name = 
REMARK  1 active torsions:
REMARK  status: ('A' for Active; 'I' for Inactive)
REMARK    1  A    between atoms: C_7  and  C_8
REMARK                            x       y       z     vdW  Elec       q    Type
REMARK                         _______ _______ _______ _____ _____    ______ ____
ROOT
ATOM      1 CL   UNL     1       7.988   5.722  19.166  0.00  0.00    +0.000 Cl
ATOM      2  C   UNL     1       6.761   4.976  18.216  0.00  0.00    +0.000 A 
ATOM      3  C   UNL     1       6.992   4.727  16.869  0.00  0.00    +0.000 A 
ATOM      4  C   UNL     1       5.988   4.137  16.114  0.00  0.00    +0.000 A 
ATOM      5 CL   UNL     1       6.253   3.815  14.444  0.00  0.00    +0.000 Cl
ATOM      6  C   UNL     1       4.759   3.810  16.693  0.00  0.00    +0.000 A 
ATOM      7  C   UNL     1       4.502   4.056  18.056  0.00  0.00    +0.000 A 
ATOM      8  C   UNL     1       5.540   4.638  18.807  0.00  0.00    +0.000 A 
ENDROOT
BRANCH   7   9
ATOM      9  C   UNL     1       3.184   3.739  18.661  0.00  0.00    +0.000 A 
ATOM     10  C   UNL     1       2.721   4.401  19.814  0.00  0.00    +0.000 A 
ATOM     11  C   UNL     1       1.499   4.068  20.410  0.00  0.00    +0.000 A 
ATOM     12  C   UNL     1       0.700   3.075  19.854  0.00  0.00    +0.000 A 
ATOM     13  C   UNL     1       1.122   2.416  18.705  0.00  0.00    +0.000 A 
ATOM     14  C   UNL     1       2.350   2.742  18.119  0.00  0.00    +0.000 A 
ENDBRANCH   7   9
TORSDOF 1
ENDMDL
MODEL 2
REMARK VINA RESULT:      -7.1      0.076      2.404
REMARK  Name = 
REMARK  1 active torsions:
REMARK  status: ('A' for Active; 'I' for Inactive)
REMARK    1  A    between atoms: C_7  and  C_8
REMARK                            x       y       z     vdW  Elec       q    Type
REMARK                         _______ _______ _______ _____ _____    ______ ____
ROOT
ATOM      1 CL   UNL     1       6.258   3.755  14.488  0.00  0.00    +0.000 Cl
ATOM      2  C   UNL     1       5.963   4.145  16.139  0.00  0.00    +0.000 A 
ATOM      3  C   UNL     1       6.974   4.716  16.900  0.00  0.00    +0.000 A 
ATOM      4  C   UNL     1       6.724   5.012  18.233  0.00  0.00    +0.000 A 
ATOM      5 CL   UNL     1       7.959   5.725  19.196  0.00  0.00    +0.000 Cl
ATOM      6  C   UNL     1       5.480   4.727  18.806  0.00  0.00    +0.000 A 
ATOM      7  C   UNL     1       4.442   4.146  18.053  0.00  0.00    +0.000 A 
ATOM      8  C   UNL     1       4.712   3.871  16.698  0.00  0.00    +0.000 A 
ENDROOT
BRANCH   7   9
ATOM      9  C   UNL     1       3.135   3.813  18.671  0.00  0.00    +0.000 A 
ATOM     10  C   UNL     1       2.695   4.437  19.854  0.00  0.00    +0.000 A 
ATOM     11  C   UNL     1       1.483   4.087  20.460  0.00  0.00    +0.000 A 
ATOM     12  C   UNL     1       0.671   3.115  19.886  0.00  0.00    +0.000 A 
ATOM     13  C   UNL     1       1.070   2.493  18.708  0.00  0.00    +0.000 A 
ATOM     14  C   UNL     1       2.288   2.835  18.111  0.00  0.00    +0.000 A 
ENDBRANCH   7   9
TORSDOF 1
ENDMDL
MODEL 3
REMARK VINA RESULT:      -7.1      0.088      1.285
REMARK  Name = 
REMARK  1 active torsions:
REMARK  status: ('A' for Active; 'I' for Inactive)
REMARK    1  A    between atoms: C_7  and  C_8
REMARK                            x       y       z     vdW  Elec       q    Type
REMARK                         _______ _______ _______ _____ _____    ______ ____
ROOT
ATOM      1 CL   UNL     1       7.993   5.784  19.134  0.00  0.00    +0.000 Cl
ATOM      2  C   UNL     1       6.759   5.016  18.210  0.00  0.00    +0.000 A 
ATOM      3  C   UNL     1       6.968   4.765  16.861  0.00  0.00    +0.000 A 
ATOM      4  C   UNL     1       5.959   4.157  16.127  0.00  0.00    +0.000 A 
ATOM      5 CL   UNL     1       6.196   3.831  14.454  0.00  0.00    +0.000 Cl
ATOM      6  C   UNL     1       4.745   3.815  16.731  0.00  0.00    +0.000 A 
ATOM      7  C   UNL     1       4.511   4.063  18.097  0.00  0.00    +0.000 A 
ATOM      8  C   UNL     1       5.555   4.663  18.826  0.00  0.00    +0.000 A 
ENDROOT
BRANCH   7   9
ATOM      9  C   UNL     1       3.209   3.731  18.729  0.00  0.00    +0.000 A 
ATOM     10  C   UNL     1       2.310   2.823  18.138  0.00  0.00    +0.000 A 
ATOM     11  C   UNL     1       1.063   2.548  18.712  0.00  0.00    +0.000 A 
ATOM     12  C   UNL     1       0.693   3.161  19.903  0.00  0.00    +0.000 A 
ATOM     13  C   UNL     1       1.568   4.049  20.521  0.00  0.00    +0.000 A 
ATOM     14  C   UNL     1       2.807   4.333  19.938  0.00  0.00    +0.000 A 
ENDBRANCH   7   9
TORSDOF 1
ENDMDL
MODEL 4
REMARK VINA RESULT:      -7.0      0.178      2.729
REMARK  Name = 
REMARK  1 active torsions:
REMARK  status: ('A' for Active; 'I' for Inactive)
REMARK    1  A    between atoms: C_7  and  C_8
REMARK                            x       y       z     vdW  Elec       q    Type
REMARK                         _______ _______ _______ _____ _____    ______ ____
ROOT
ATOM      1 CL   UNL     1       6.015   3.991  14.298  0.00  0.00    +0.000 Cl
ATOM      2  C   UNL     1       5.808   4.285  15.982  0.00  0.00    +0.000 A 
ATOM      3  C   UNL     1       6.856   4.820  16.719  0.00  0.00    +0.000 A 
ATOM      4  C   UNL     1       6.677   5.039  18.078  0.00  0.00    +0.000 A 
ATOM      5 CL   UNL     1       7.959   5.704  19.013  0.00  0.00    +0.000 Cl
ATOM      6  C   UNL     1       5.467   4.714  18.699  0.00  0.00    +0.000 A 
ATOM      7  C   UNL     1       4.392   4.169  17.971  0.00  0.00    +0.000 A 
ATOM      8  C   UNL     1       4.589   3.973  16.591  0.00  0.00    +0.000 A 
ENDROOT
BRANCH   7   9
ATOM      9  C   UNL     1       3.120   3.794  18.638  0.00  0.00    +0.000 A 
ATOM     10  C   UNL     1       2.297   2.767  18.138  0.00  0.00    +0.000 A 
ATOM     11  C   UNL     1       1.076   2.447  18.742  0.00  0.00    +0.000 A 
ATOM     12  C   UNL     1       0.656   3.136  19.875  0.00  0.00    +0.000 A 
ATOM     13  C   UNL     1       1.456   4.144  20.403  0.00  0.00    +0.000 A 
ATOM     14  C   UNL     1       2.670   4.470  19.789  0.00  0.00    +0.000 A 
ENDBRANCH   7   9
TORSDOF 1
ENDMDL
MODEL 5
REMARK VINA RESULT:      -7.0      1.158      2.603
REMARK  Name = 
REMARK  1 active torsions:
REMARK  status: ('A' for Active; 'I' for Inactive)
REMARK    1  A    between atoms: C_7  and  C_8
REMARK                            x       y       z     vdW  Elec       q    Type
REMARK                         _______ _______ _______ _____ _____    ______ ____
ROOT
ATOM      1 CL   UNL     1       6.103   3.811  14.123  0.00  0.00    +0.000 Cl
ATOM      2  C   UNL     1       5.847   4.647  15.607  0.00  0.00    +0.000 A 
ATOM      3  C   UNL     1       6.783   5.575  16.042  0.00  0.00    +0.000 A 
ATOM      4  C   UNL     1       6.568   6.231  17.246  0.00  0.00    +0.000 A 
ATOM      5 CL   UNL     1       7.711   7.390  17.804  0.00  0.00    +0.000 Cl
ATOM      6  C   UNL     1       5.435   5.953  18.017  0.00  0.00    +0.000 A 
ATOM      7  C   UNL     1       4.474   5.013  17.596  0.00  0.00    +0.000 A 
ATOM      8  C   UNL     1       4.703   4.374  16.363  0.00  0.00    +0.000 A 
ENDROOT
BRANCH   7   9
ATOM      9  C   UNL     1       3.290   4.694  18.432  0.00  0.00    +0.000 A 
ATOM     10  C   UNL     1       3.108   5.265  19.706  0.00  0.00    +0.000 A 
ATOM     11  C   UNL     1       2.015   4.926  20.512  0.00  0.00    +0.000 A 
ATOM     12  C   UNL     1       1.065   4.020  20.054  0.00  0.00    +0.000 A 
ATOM     13  C   UNL     1       1.208   3.452  18.792  0.00  0.00    +0.000 A 
ATOM     14  C   UNL     1       2.309   3.783  17.994  0.00  0.00    +0.000 A 
ENDBRANCH   7   9
TORSDOF 1
ENDMDL
MODEL 6
REMARK VINA RESULT:      -7.0      1.181      2.898
REMARK  Name = 
REMARK  1 active torsions:
REMARK  status: ('A' for Active; 'I' for Inactive)
REMARK    1  A    between atoms: C_7  and  C_8
REMARK                            x       y       z     vdW  Elec       q    Type
REMARK                         _______ _______ _______ _____ _____    ______ ____
ROOT
ATOM      1 CL   UNL     1       6.025   3.839  14.047  0.00  0.00    +0.000 Cl
ATOM      2  C   UNL     1       5.800   4.654  15.547  0.00  0.00    +0.000 A 
ATOM      3  C   UNL     1       6.731   5.595  15.963  0.00  0.00    +0.000 A 
ATOM      4  C   UNL     1       6.542   6.233  17.181  0.00  0.00    +0.000 A 
ATOM      5 CL   UNL     1       7.680   7.408  17.716  0.00  0.00    +0.000 Cl
ATOM      6  C   UNL     1       5.440   5.924  17.985  0.00  0.00    +0.000 A 
ATOM      7  C   UNL     1       4.485   4.971  17.584  0.00  0.00    +0.000 A 
ATOM      8  C   UNL     1       4.687   4.349  16.336  0.00  0.00    +0.000 A 
ENDROOT
BRANCH   7   9
ATOM      9  C   UNL     1       3.335   4.619  18.453  0.00  0.00    +0.000 A 
ATOM     10  C   UNL     1       2.262   3.839  17.981  0.00  0.00    +0.000 A 
ATOM     11  C   UNL     1       1.156   3.549  18.789  0.00  0.00    +0.000 A 
ATOM     12  C   UNL     1       1.106   4.017  20.097  0.00  0.00    +0.000 A 
ATOM     13  C   UNL     1       2.159   4.774  20.598  0.00  0.00    +0.000 A 
ATOM     14  C   UNL     1       3.257   5.074  19.784  0.00  0.00    +0.000 A 
ENDBRANCH   7   9
TORSDOF 1
ENDMDL
MODEL 7
REMARK VINA RESULT:      -6.8      0.945      2.682
REMARK  Name = 
REMARK  1 active torsions:
REMARK  status: ('A' for Active; 'I' for Inactive)
REMARK    1  A    between atoms: C_7  and  C_8
REMARK                            x       y       z     vdW  Elec       q    Type
REMARK                         _______ _______ _______ _____ _____    ______ ____
ROOT
ATOM      1 CL   UNL     1       5.674   4.026  14.686  0.00  0.00    +0.000 Cl
ATOM      2  C   UNL     1       5.649   4.397  16.367  0.00  0.00    +0.000 A 
ATOM      3  C   UNL     1       6.728   5.056  16.940  0.00  0.00    +0.000 A 
ATOM      4  C   UNL     1       6.699   5.336  18.299  0.00  0.00    +0.000 A 
ATOM      5 CL   UNL     1       8.023   6.156  19.032  0.00  0.00    +0.000 Cl
ATOM      6  C   UNL     1       5.607   4.950  19.083  0.00  0.00    +0.000 A 
ATOM      7  C   UNL     1       4.503   4.278  18.523  0.00  0.00    +0.000 A 
ATOM      8  C   UNL     1       4.547   4.021  17.140  0.00  0.00    +0.000 A 
ENDROOT
BRANCH   7   9
ATOM      9  C   UNL     1       3.361   3.839  19.363  0.00  0.00    +0.000 A 
ATOM     10  C   UNL     1       2.055   4.316  19.144  0.00  0.00    +0.000 A 
ATOM     11  C   UNL     1       0.988   3.936  19.967  0.00  0.00    +0.000 A 
ATOM     12  C   UNL     1       1.200   3.053  21.020  0.00  0.00    +0.000 A 
ATOM     13  C   UNL     1       2.476   2.550  21.250  0.00  0.00    +0.000 A 
ATOM     14  C   UNL     1       3.543   2.942  20.434  0.00  0.00    +0.000 A 
ENDBRANCH   7   9
TORSDOF 1
ENDMDL
MODEL 8
REMARK VINA RESULT:      -6.8      1.252      2.741
REMARK  Name = 
REMARK  1 active torsions:
REMARK  status: ('A' for Active; 'I' for Inactive)
REMARK    1  A    between atoms: C_7  and  C_8
REMARK                            x       y       z     vdW  Elec       q    Type
REMARK                         _______ _______ _______ _____ _____    ______ ____
ROOT
ATOM      1 CL   UNL     1       6.681   4.205  13.552  0.00  0.00    +0.000 Cl
ATOM      2  C   UNL     1       6.262   4.542  15.188  0.00  0.00    +0.000 A 
ATOM      3  C   UNL     1       7.103   5.329  15.964  0.00  0.00    +0.000 A 
ATOM      4  C   UNL     1       6.758   5.580  17.285  0.00  0.00    +0.000 A 
ATOM      5 CL   UNL     1       7.782   6.556  18.264  0.00  0.00    +0.000 Cl
ATOM      6  C   UNL     1       5.590   5.039  17.832  0.00  0.00    +0.000 A 
ATOM      7  C   UNL     1       4.724   4.236  17.064  0.00  0.00    +0.000 A 
ATOM      8  C   UNL     1       5.084   4.010  15.722  0.00  0.00    +0.000 A 
ENDROOT
BRANCH   7   9
ATOM      9  C   UNL     1       3.503   3.635  17.656  0.00  0.00    +0.000 A 
ATOM     10  C   UNL     1       2.277   4.326  17.683  0.00  0.00    +0.000 A 
ATOM     11  C   UNL     1       1.139   3.776  18.284  0.00  0.00    +0.000 A 
ATOM     12  C   UNL     1       1.195   2.510  18.857  0.00  0.00    +0.000 A 
ATOM     13  C   UNL     1       2.388   1.795  18.830  0.00  0.00    +0.000 A 
ATOM     14  C   UNL     1       3.528   2.353  18.241  0.00  0.00    +0.000 A 
ENDBRANCH   7   9
TORSDOF 1
ENDMDL
MODEL 9
REMARK VINA RESULT:      -6.7      1.081      1.139
REMARK  Name = 
REMARK  1 active torsions:
REMARK  status: ('A' for Active; 'I' for Inactive)
REMARK    1  A    between atoms: C_7  and  C_8
REMARK                            x       y       z     vdW  Elec       q    Type
REMARK                         _______ _______ _______ _____ _____    ______ ____
ROOT
ATOM      1 CL   UNL     1       7.889   6.145  18.810  0.00  0.00    +0.000 Cl
ATOM      2  C   UNL     1       6.855   5.317  17.710  0.00  0.00    +0.000 A 
ATOM      3  C   UNL     1       7.215   5.218  16.373  0.00  0.00    +0.000 A 
ATOM      4  C   UNL     1       6.364   4.558  15.497  0.00  0.00    +0.000 A 
ATOM      5 CL   UNL     1       6.790   4.418  13.835  0.00  0.00    +0.000 Cl
ATOM      6  C   UNL     1       5.157   4.015  15.948  0.00  0.00    +0.000 A 
ATOM      7  C   UNL     1       4.771   4.107  17.299  0.00  0.00    +0.000 A 
ATOM      8  C   UNL     1       5.658   4.764  18.174  0.00  0.00    +0.000 A 
ENDROOT
BRANCH   7   9
ATOM      9  C   UNL     1       3.474   3.561  17.770  0.00  0.00    +0.000 A 
ATOM     10  C   UNL     1       2.334   4.375  17.907  0.00  0.00    +0.000 A 
ATOM     11  C   UNL     1       1.125   3.867  18.396  0.00  0.00    +0.000 A 
ATOM     12  C   UNL     1       1.022   2.524  18.742  0.00  0.00    +0.000 A 
ATOM     13  C   UNL     1       2.126   1.690  18.601  0.00  0.00    +0.000 A 
ATOM     14  C   UNL     1       3.337   2.204  18.125  0.00  0.00    +0.000 A 
ENDBRANCH   7   9
TORSDOF 1
ENDMDL
