MODEL 1
REMARK VINA RESULT:      -7.1      0.000      0.000
REMARK  Name = 
REMARK  5 active torsions:
REMARK  status: ('A' for Active; 'I' for Inactive)
REMARK    1  A    between atoms: C_1  and  N_2
REMARK    2  A    between atoms: C_4  and  C_5
REMARK    3  A    between atoms: C_10  and  N_11
REMARK    4  A    between atoms: C_13  and  C_14
REMARK    5  A    between atoms: N_18  and  C_19
REMARK                            x       y       z     vdW  Elec       q    Type
REMARK                         _______ _______ _______ _____ _____    ______ ____
ROOT
ATOM      1  C   UNL     1       3.698   6.167  18.125  0.00  0.00    +0.000 C 
ATOM      2  O   UNL     1       3.264   7.314  18.170  0.00  0.00    +0.000 OA
ATOM      3  N   UNL     1       4.988   5.827  17.652  0.00  0.00    +0.000 N 
ATOM      4  C   UNL     1       5.358   4.428  17.446  0.00  0.00    +0.000 C 
ATOM      5  C   UNL     1       6.833   4.184  17.173  0.00  0.00    +0.000 C 
ATOM      6  C   UNL     1       7.415   5.142  16.140  0.00  0.00    +0.000 C 
ATOM      7  C   UNL     1       7.104   6.582  16.543  0.00  0.00    +0.000 C 
ATOM      8  C   UNL     1       5.616   6.818  16.782  0.00  0.00    +0.000 C 
ENDROOT
BRANCH   1  12
ATOM      9  C   UNL     1       2.033   3.408  21.713  0.00  0.00    +0.000 C 
ATOM     10  N   UNL     1       1.991   3.695  20.292  0.00  0.00    +0.000 N 
ATOM     11  N   UNL     1       2.879   4.632  19.843  0.00  0.00    +0.000 NA
ATOM     12  C   UNL     1       2.771   5.048  18.616  0.00  0.00    +0.000 A 
ATOM     13  C   UNL     1       1.807   4.501  17.641  0.00  0.00    +0.000 A 
ATOM     14  C   UNL     1       0.973   3.560  18.091  0.00  0.00    +0.000 A 
ATOM     15  C   UNL     1       0.998   3.127  19.508  0.00  0.00    +0.000 A 
ATOM     16  O   UNL     1       0.162   2.321  19.907  0.00  0.00    +0.000 OA
ENDBRANCH   1  12
BRANCH   6  17
ATOM     17  N   UNL     1       7.049   4.841  14.762  0.00  0.00    +0.000 N 
ATOM     18  N   UNL     1       5.973   4.083  14.375  0.00  0.00    +0.000 NA
ATOM     19  C   UNL     1       6.044   4.041  13.065  0.00  0.00    +0.000 A 
ATOM     20  N   UNL     1       7.084   4.742  12.559  0.00  0.00    +0.000 N 
ATOM     21  C   UNL     1       7.586   4.902  11.212  0.00  0.00    +0.000 C 
ATOM     22  C   UNL     1       7.749   5.270  13.637  0.00  0.00    +0.000 A 
ATOM     23  O   UNL     1       8.760   5.954  13.612  0.00  0.00    +0.000 OA
BRANCH  19  24
ATOM     24  C   UNL     1       5.041   3.264  12.216  0.00  0.00    +0.000 C 
ATOM     25  F   UNL     1       3.872   2.981  12.850  0.00  0.00    +0.000 F 
ATOM     26  F   UNL     1       4.692   3.945  11.089  0.00  0.00    +0.000 F 
ATOM     27  F   UNL     1       5.539   2.066  11.803  0.00  0.00    +0.000 F 
ENDBRANCH  19  24
ENDBRANCH   6  17
TORSDOF 3
ENDMDL
MODEL 2
REMARK VINA RESULT:      -6.8      6.032      8.728
REMARK  Name = 
REMARK  5 active torsions:
REMARK  status: ('A' for Active; 'I' for Inactive)
REMARK    1  A    between atoms: C_1  and  N_2
REMARK    2  A    between atoms: C_4  and  C_5
REMARK    3  A    between atoms: C_10  and  N_11
REMARK    4  A    between atoms: C_13  and  C_14
REMARK    5  A    between atoms: N_18  and  C_19
REMARK                            x       y       z     vdW  Elec       q    Type
REMARK                         _______ _______ _______ _____ _____    ______ ____
ROOT
ATOM      1  C   UNL     1       1.895   6.941  20.104  0.00  0.00    +0.000 C 
ATOM      2  O   UNL     1       1.597   6.334  21.128  0.00  0.00    +0.000 OA
ATOM      3  N   UNL     1       1.666   8.325  19.909  0.00  0.00    +0.000 N 
ATOM      4  C   UNL     1       1.867   8.932  18.595  0.00  0.00    +0.000 C 
ATOM      5  C   UNL     1       1.826  10.451  18.573  0.00  0.00    +0.000 C 
ATOM      6  C   UNL     1       0.651  11.028  19.353  0.00  0.00    +0.000 C 
ATOM      7  C   UNL     1       0.635  10.442  20.764  0.00  0.00    +0.000 C 
ATOM      8  C   UNL     1       0.644   8.917  20.767  0.00  0.00    +0.000 C 
ENDROOT
BRANCH   1  12
ATOM      9  C   UNL     1       5.642   6.179  17.164  0.00  0.00    +0.000 C 
ATOM     10  N   UNL     1       4.301   5.774  17.540  0.00  0.00    +0.000 N 
ATOM     11  N   UNL     1       3.683   6.547  18.483  0.00  0.00    +0.000 NA
ATOM     12  C   UNL     1       2.554   6.134  18.977  0.00  0.00    +0.000 A 
ATOM     13  C   UNL     1       1.843   4.926  18.516  0.00  0.00    +0.000 A 
ATOM     14  C   UNL     1       2.448   4.204  17.568  0.00  0.00    +0.000 A 
ATOM     15  C   UNL     1       3.780   4.587  17.046  0.00  0.00    +0.000 A 
ATOM     16  O   UNL     1       4.344   3.855  16.237  0.00  0.00    +0.000 OA
ENDBRANCH   1  12
BRANCH   6  17
ATOM     17  N   UNL     1      -0.635  10.924  18.676  0.00  0.00    +0.000 N 
ATOM     18  N   UNL     1      -0.850  10.295  17.476  0.00  0.00    +0.000 NA
ATOM     19  C   UNL     1      -2.127  10.473  17.226  0.00  0.00    +0.000 A 
ATOM     20  N   UNL     1      -2.775  11.159  18.195  0.00  0.00    +0.000 N 
ATOM     21  C   UNL     1      -4.133  11.646  18.300  0.00  0.00    +0.000 C 
ATOM     22  C   UNL     1      -1.831  11.461  19.145  0.00  0.00    +0.000 A 
ATOM     23  O   UNL     1      -2.005  12.092  20.176  0.00  0.00    +0.000 OA
BRANCH  19  24
ATOM     24  C   UNL     1      -2.792   9.953  15.954  0.00  0.00    +0.000 C 
ATOM     25  F   UNL     1      -1.994   9.159  15.190  0.00  0.00    +0.000 F 
ATOM     26  F   UNL     1      -3.899   9.208  16.227  0.00  0.00    +0.000 F 
ATOM     27  F   UNL     1      -3.200  10.965  15.138  0.00  0.00    +0.000 F 
ENDBRANCH  19  24
ENDBRANCH   6  17
TORSDOF 3
ENDMDL
MODEL 3
REMARK VINA RESULT:      -6.6      9.961     11.093
REMARK  Name = 
REMARK  5 active torsions:
REMARK  status: ('A' for Active; 'I' for Inactive)
REMARK    1  A    between atoms: C_1  and  N_2
REMARK    2  A    between atoms: C_4  and  C_5
REMARK    3  A    between atoms: C_10  and  N_11
REMARK    4  A    between atoms: C_13  and  C_14
REMARK    5  A    between atoms: N_18  and  C_19
REMARK                            x       y       z     vdW  Elec       q    Type
REMARK                         _______ _______ _______ _____ _____    ______ ____
ROOT
ATOM      1  C   UNL     1       5.309  13.934  22.416  0.00  0.00    +0.000 C 
ATOM      2  O   UNL     1       4.180  13.775  21.962  0.00  0.00    +0.000 OA
ATOM      3  N   UNL     1       6.314  14.705  21.785  0.00  0.00    +0.000 N 
ATOM      4  C   UNL     1       7.688  14.686  22.283  0.00  0.00    +0.000 C 
ATOM      5  C   UNL     1       8.609  15.733  21.680  0.00  0.00    +0.000 C 
ATOM      6  C   UNL     1       8.498  15.821  20.163  0.00  0.00    +0.000 C 
ATOM      7  C   UNL     1       7.035  16.001  19.765  0.00  0.00    +0.000 C 
ATOM      8  C   UNL     1       6.129  14.924  20.353  0.00  0.00    +0.000 C 
ENDROOT
BRANCH   1  12
ATOM      9  C   UNL     1       4.967  13.793  27.225  0.00  0.00    +0.000 C 
ATOM     10  N   UNL     1       5.521  13.175  26.035  0.00  0.00    +0.000 N 
ATOM     11  N   UNL     1       5.306  13.837  24.859  0.00  0.00    +0.000 NA
ATOM     12  C   UNL     1       5.632  13.245  23.748  0.00  0.00    +0.000 A 
ATOM     13  C   UNL     1       6.313  11.938  23.678  0.00  0.00    +0.000 A 
ATOM     14  C   UNL     1       6.547  11.325  24.841  0.00  0.00    +0.000 A 
ATOM     15  C   UNL     1       6.104  11.920  26.124  0.00  0.00    +0.000 A 
ATOM     16  O   UNL     1       6.261  11.290  27.167  0.00  0.00    +0.000 OA
ENDBRANCH   1  12
BRANCH   6  17
ATOM     17  N   UNL     1       9.158  14.739  19.443  0.00  0.00    +0.000 N 
ATOM     18  N   UNL     1       9.190  13.426  19.842  0.00  0.00    +0.000 NA
ATOM     19  C   UNL     1       9.912  12.815  18.931  0.00  0.00    +0.000 A 
ATOM     20  N   UNL     1      10.341  13.634  17.944  0.00  0.00    +0.000 N 
ATOM     21  C   UNL     1      11.210  13.418  16.808  0.00  0.00    +0.000 C 
ATOM     22  C   UNL     1       9.865  14.885  18.252  0.00  0.00    +0.000 A 
ATOM     23  O   UNL     1      10.046  15.914  17.622  0.00  0.00    +0.000 OA
BRANCH  19  24
ATOM     24  C   UNL     1      10.230  11.324  19.004  0.00  0.00    +0.000 C 
ATOM     25  F   UNL     1       9.667  10.683  20.064  0.00  0.00    +0.000 F 
ATOM     26  F   UNL     1       9.798  10.656  17.899  0.00  0.00    +0.000 F 
ATOM     27  F   UNL     1      11.569  11.089  19.097  0.00  0.00    +0.000 F 
ENDBRANCH  19  24
ENDBRANCH   6  17
TORSDOF 3
ENDMDL
MODEL 4
REMARK VINA RESULT:      -6.4      9.364     12.322
REMARK  Name = 
REMARK  5 active torsions:
REMARK  status: ('A' for Active; 'I' for Inactive)
REMARK    1  A    between atoms: C_1  and  N_2
REMARK    2  A    between atoms: C_4  and  C_5
REMARK    3  A    between atoms: C_10  and  N_11
REMARK    4  A    between atoms: C_13  and  C_14
REMARK    5  A    between atoms: N_18  and  C_19
REMARK                            x       y       z     vdW  Elec       q    Type
REMARK                         _______ _______ _______ _____ _____    ______ ____
ROOT
ATOM      1  C   UNL     1      -0.186  10.398  22.263  0.00  0.00    +0.000 C 
ATOM      2  O   UNL     1      -0.089  10.036  23.431  0.00  0.00    +0.000 OA
ATOM      3  N   UNL     1      -0.918  11.535  21.844  0.00  0.00    +0.000 N 
ATOM      4  C   UNL     1      -1.148  11.788  20.423  0.00  0.00    +0.000 C 
ATOM      5  C   UNL     1      -1.729  13.153  20.096  0.00  0.00    +0.000 C 
ATOM      6  C   UNL     1      -2.900  13.534  20.994  0.00  0.00    +0.000 C 
ATOM      7  C   UNL     1      -2.493  13.384  22.459  0.00  0.00    +0.000 C 
ATOM      8  C   UNL     1      -1.942  11.998  22.777  0.00  0.00    +0.000 C 
ENDROOT
BRANCH   1  12
ATOM      9  C   UNL     1       1.894  10.036  17.926  0.00  0.00    +0.000 C 
ATOM     10  N   UNL     1       1.495   9.342  19.135  0.00  0.00    +0.000 N 
ATOM     11  N   UNL     1       0.775  10.073  20.037  0.00  0.00    +0.000 NA
ATOM     12  C   UNL     1       0.539   9.554  21.206  0.00  0.00    +0.000 A 
ATOM     13  C   UNL     1       0.917   8.180  21.591  0.00  0.00    +0.000 A 
ATOM     14  C   UNL     1       1.589   7.470  20.681  0.00  0.00    +0.000 A 
ATOM     15  C   UNL     1       1.963   8.058  19.373  0.00  0.00    +0.000 A 
ATOM     16  O   UNL     1       2.653   7.405  18.595  0.00  0.00    +0.000 OA
ENDBRANCH   1  12
BRANCH   6  17
ATOM     17  N   UNL     1      -4.151  12.859  20.677  0.00  0.00    +0.000 N 
ATOM     18  N   UNL     1      -4.438  12.240  19.486  0.00  0.00    +0.000 NA
ATOM     19  C   UNL     1      -5.669  11.805  19.620  0.00  0.00    +0.000 A 
ATOM     20  N   UNL     1      -6.209  12.077  20.830  0.00  0.00    +0.000 N 
ATOM     21  C   UNL     1      -7.531  11.866  21.376  0.00  0.00    +0.000 C 
ATOM     22  C   UNL     1      -5.245  12.758  21.533  0.00  0.00    +0.000 A 
ATOM     23  O   UNL     1      -5.341  13.202  22.666  0.00  0.00    +0.000 OA
BRANCH  19  24
ATOM     24  C   UNL     1      -6.405  11.072  18.501  0.00  0.00    +0.000 C 
ATOM     25  F   UNL     1      -6.877   9.845  18.851  0.00  0.00    +0.000 F 
ATOM     26  F   UNL     1      -7.488  11.771  18.061  0.00  0.00    +0.000 F 
ATOM     27  F   UNL     1      -5.611  10.867  17.414  0.00  0.00    +0.000 F 
ENDBRANCH  19  24
ENDBRANCH   6  17
TORSDOF 3
ENDMDL
MODEL 5
REMARK VINA RESULT:      -6.3      9.975     11.978
REMARK  Name = 
REMARK  5 active torsions:
REMARK  status: ('A' for Active; 'I' for Inactive)
REMARK    1  A    between atoms: C_1  and  N_2
REMARK    2  A    between atoms: C_4  and  C_5
REMARK    3  A    between atoms: C_10  and  N_11
REMARK    4  A    between atoms: C_13  and  C_14
REMARK    5  A    between atoms: N_18  and  C_19
REMARK                            x       y       z     vdW  Elec       q    Type
REMARK                         _______ _______ _______ _____ _____    ______ ____
ROOT
ATOM      1  C   UNL     1      -5.312  11.572  18.878  0.00  0.00    +0.000 C 
ATOM      2  O   UNL     1      -6.072  10.756  18.366  0.00  0.00    +0.000 OA
ATOM      3  N   UNL     1      -3.939  11.688  18.553  0.00  0.00    +0.000 N 
ATOM      4  C   UNL     1      -3.058  12.546  19.342  0.00  0.00    +0.000 C 
ATOM      5  C   UNL     1      -1.678  12.774  18.750  0.00  0.00    +0.000 C 
ATOM      6  C   UNL     1      -1.020  11.490  18.260  0.00  0.00    +0.000 C 
ATOM      7  C   UNL     1      -1.970  10.755  17.316  0.00  0.00    +0.000 C 
ATOM      8  C   UNL     1      -3.340  10.506  17.937  0.00  0.00    +0.000 C 
ENDROOT
BRANCH   1  12
ATOM      9  C   UNL     1      -6.031  12.725  23.506  0.00  0.00    +0.000 C 
ATOM     10  N   UNL     1      -6.297  13.066  22.121  0.00  0.00    +0.000 N 
ATOM     11  N   UNL     1      -5.843  12.178  21.187  0.00  0.00    +0.000 NA
ATOM     12  C   UNL     1      -5.904  12.516  19.933  0.00  0.00    +0.000 A 
ATOM     13  C   UNL     1      -6.524  13.762  19.442  0.00  0.00    +0.000 A 
ATOM     14  C   UNL     1      -6.995  14.599  20.371  0.00  0.00    +0.000 A 
ATOM     15  C   UNL     1      -6.858  14.297  21.815  0.00  0.00    +0.000 A 
ATOM     16  O   UNL     1      -7.225  15.127  22.642  0.00  0.00    +0.000 OA
ENDBRANCH   1  12
BRANCH   6  17
ATOM     17  N   UNL     1      -0.492  10.638  19.317  0.00  0.00    +0.000 N 
ATOM     18  N   UNL     1      -0.859  10.694  20.638  0.00  0.00    +0.000 NA
ATOM     19  C   UNL     1      -0.119   9.788  21.233  0.00  0.00    +0.000 A 
ATOM     20  N   UNL     1       0.698   9.119  20.388  0.00  0.00    +0.000 N 
ATOM     21  C   UNL     1       1.721   8.120  20.608  0.00  0.00    +0.000 C 
ATOM     22  C   UNL     1       0.475   9.650  19.142  0.00  0.00    +0.000 A 
ATOM     23  O   UNL     1       1.028   9.335  18.100  0.00  0.00    +0.000 OA
BRANCH  19  24
ATOM     24  C   UNL     1      -0.185   9.535  22.737  0.00  0.00    +0.000 C 
ATOM     25  F   UNL     1      -0.885   8.422  23.087  0.00  0.00    +0.000 F 
ATOM     26  F   UNL     1       1.053   9.377  23.282  0.00  0.00    +0.000 F 
ATOM     27  F   UNL     1      -0.771  10.568  23.405  0.00  0.00    +0.000 F 
ENDBRANCH  19  24
ENDBRANCH   6  17
TORSDOF 3
ENDMDL
MODEL 6
REMARK VINA RESULT:      -6.2      0.810      1.395
REMARK  Name = 
REMARK  5 active torsions:
REMARK  status: ('A' for Active; 'I' for Inactive)
REMARK    1  A    between atoms: C_1  and  N_2
REMARK    2  A    between atoms: C_4  and  C_5
REMARK    3  A    between atoms: C_10  and  N_11
REMARK    4  A    between atoms: C_13  and  C_14
REMARK    5  A    between atoms: N_18  and  C_19
REMARK                            x       y       z     vdW  Elec       q    Type
REMARK                         _______ _______ _______ _____ _____    ______ ____
ROOT
ATOM      1  C   UNL     1       3.786   6.458  18.150  0.00  0.00    +0.000 C 
ATOM      2  O   UNL     1       3.370   7.612  18.139  0.00  0.00    +0.000 OA
ATOM      3  N   UNL     1       5.063   6.072  17.674  0.00  0.00    +0.000 N 
ATOM      4  C   UNL     1       5.409   4.659  17.539  0.00  0.00    +0.000 C 
ATOM      5  C   UNL     1       6.875   4.377  17.256  0.00  0.00    +0.000 C 
ATOM      6  C   UNL     1       7.452   5.268  16.161  0.00  0.00    +0.000 C 
ATOM      7  C   UNL     1       7.169   6.732  16.490  0.00  0.00    +0.000 C 
ATOM      8  C   UNL     1       5.690   7.004  16.740  0.00  0.00    +0.000 C 
ENDROOT
BRANCH   1  12
ATOM      9  C   UNL     1       1.981   1.989  17.970  0.00  0.00    +0.000 C 
ATOM     10  N   UNL     1       1.946   3.279  18.632  0.00  0.00    +0.000 N 
ATOM     11  N   UNL     1       2.714   4.262  18.072  0.00  0.00    +0.000 NA
ATOM     12  C   UNL     1       2.852   5.381  18.717  0.00  0.00    +0.000 A 
ATOM     13  C   UNL     1       2.152   5.700  19.977  0.00  0.00    +0.000 A 
ATOM     14  C   UNL     1       1.378   4.739  20.488  0.00  0.00    +0.000 A 
ATOM     15  C   UNL     1       1.269   3.414  19.835  0.00  0.00    +0.000 A 
ATOM     16  O   UNL     1       0.616   2.526  20.377  0.00  0.00    +0.000 OA
ENDBRANCH   1  12
BRANCH   6  17
ATOM     17  N   UNL     1       7.058   4.898  14.809  0.00  0.00    +0.000 N 
ATOM     18  N   UNL     1       5.952   4.154  14.481  0.00  0.00    +0.000 NA
ATOM     19  C   UNL     1       6.003   4.032  13.175  0.00  0.00    +0.000 A 
ATOM     20  N   UNL     1       7.058   4.666  12.615  0.00  0.00    +0.000 N 
ATOM     21  C   UNL     1       7.546   4.728  11.255  0.00  0.00    +0.000 C 
ATOM     22  C   UNL     1       7.755   5.235  13.652  0.00  0.00    +0.000 A 
ATOM     23  O   UNL     1       8.787   5.882  13.573  0.00  0.00    +0.000 OA
BRANCH  19  24
ATOM     24  C   UNL     1       4.964   3.239  12.386  0.00  0.00    +0.000 C 
ATOM     25  F   UNL     1       5.399   2.026  11.949  0.00  0.00    +0.000 F 
ATOM     26  F   UNL     1       3.849   2.985  13.125  0.00  0.00    +0.000 F 
ATOM     27  F   UNL     1       4.546   3.905  11.274  0.00  0.00    +0.000 F 
ENDBRANCH  19  24
ENDBRANCH   6  17
TORSDOF 3
ENDMDL
MODEL 7
REMARK VINA RESULT:      -6.2      5.950      8.504
REMARK  Name = 
REMARK  5 active torsions:
REMARK  status: ('A' for Active; 'I' for Inactive)
REMARK    1  A    between atoms: C_1  and  N_2
REMARK    2  A    between atoms: C_4  and  C_5
REMARK    3  A    between atoms: C_10  and  N_11
REMARK    4  A    between atoms: C_13  and  C_14
REMARK    5  A    between atoms: N_18  and  C_19
REMARK                            x       y       z     vdW  Elec       q    Type
REMARK                         _______ _______ _______ _____ _____    ______ ____
ROOT
ATOM      1  C   UNL     1       1.947   6.567  20.226  0.00  0.00    +0.000 C 
ATOM      2  O   UNL     1       1.838   6.202  21.393  0.00  0.00    +0.000 OA
ATOM      3  N   UNL     1       1.897   7.920  19.813  0.00  0.00    +0.000 N 
ATOM      4  C   UNL     1       1.836   8.260  18.392  0.00  0.00    +0.000 C 
ATOM      5  C   UNL     1       2.033   9.732  18.072  0.00  0.00    +0.000 C 
ATOM      6  C   UNL     1       1.213  10.652  18.969  0.00  0.00    +0.000 C 
ATOM      7  C   UNL     1       1.479  10.310  20.434  0.00  0.00    +0.000 C 
ATOM      8  C   UNL     1       1.246   8.836  20.745  0.00  0.00    +0.000 C 
ENDROOT
BRANCH   1  12
ATOM      9  C   UNL     1       4.581   4.638  16.676  0.00  0.00    +0.000 C 
ATOM     10  N   UNL     1       3.356   4.561  17.450  0.00  0.00    +0.000 N 
ATOM     11  N   UNL     1       3.138   5.581  18.332  0.00  0.00    +0.000 NA
ATOM     12  C   UNL     1       2.147   5.476  19.167  0.00  0.00    +0.000 A 
ATOM     13  C   UNL     1       1.177   4.363  19.160  0.00  0.00    +0.000 A 
ATOM     14  C   UNL     1       1.387   3.395  18.265  0.00  0.00    +0.000 A 
ATOM     15  C   UNL     1       2.560   3.428  17.360  0.00  0.00    +0.000 A 
ATOM     16  O   UNL     1       2.769   2.480  16.608  0.00  0.00    +0.000 OA
ENDBRANCH   1  12
BRANCH   6  17
ATOM     17  N   UNL     1      -0.206  10.709  18.643  0.00  0.00    +0.000 N 
ATOM     18  N   UNL     1      -0.817  10.003  17.637  0.00  0.00    +0.000 NA
ATOM     19  C   UNL     1      -2.074  10.380  17.676  0.00  0.00    +0.000 A 
ATOM     20  N   UNL     1      -2.339  11.273  18.658  0.00  0.00    +0.000 N 
ATOM     21  C   UNL     1      -3.535  12.005  19.011  0.00  0.00    +0.000 C 
ATOM     22  C   UNL     1      -1.146  11.500  19.298  0.00  0.00    +0.000 A 
ATOM     23  O   UNL     1      -0.950  12.260  20.234  0.00  0.00    +0.000 OA
BRANCH  19  24
ATOM     24  C   UNL     1      -3.117   9.855  16.694  0.00  0.00    +0.000 C 
ATOM     25  F   UNL     1      -4.067   9.060  17.258  0.00  0.00    +0.000 F 
ATOM     26  F   UNL     1      -3.798  10.865  16.085  0.00  0.00    +0.000 F 
ATOM     27  F   UNL     1      -2.556   9.113  15.698  0.00  0.00    +0.000 F 
ENDBRANCH  19  24
ENDBRANCH   6  17
TORSDOF 3
ENDMDL
MODEL 8
REMARK VINA RESULT:      -6.2      6.488      9.232
REMARK  Name = 
REMARK  5 active torsions:
REMARK  status: ('A' for Active; 'I' for Inactive)
REMARK    1  A    between atoms: C_1  and  N_2
REMARK    2  A    between atoms: C_4  and  C_5
REMARK    3  A    between atoms: C_10  and  N_11
REMARK    4  A    between atoms: C_13  and  C_14
REMARK    5  A    between atoms: N_18  and  C_19
REMARK                            x       y       z     vdW  Elec       q    Type
REMARK                         _______ _______ _______ _____ _____    ______ ____
ROOT
ATOM      1  C   UNL     1       1.498   7.655  20.390  0.00  0.00    +0.000 C 
ATOM      2  O   UNL     1       1.133   6.872  21.261  0.00  0.00    +0.000 OA
ATOM      3  N   UNL     1       1.061   8.999  20.299  0.00  0.00    +0.000 N 
ATOM      4  C   UNL     1       1.385   9.807  19.126  0.00  0.00    +0.000 C 
ATOM      5  C   UNL     1       1.075  11.289  19.256  0.00  0.00    +0.000 C 
ATOM      6  C   UNL     1      -0.308  11.559  19.837  0.00  0.00    +0.000 C 
ATOM      7  C   UNL     1      -0.475  10.787  21.145  0.00  0.00    +0.000 C 
ATOM      8  C   UNL     1      -0.191   9.297  20.989  0.00  0.00    +0.000 C 
ENDROOT
BRANCH   1  12
ATOM      9  C   UNL     1       4.614   4.274  18.933  0.00  0.00    +0.000 C 
ATOM     10  N   UNL     1       4.003   5.558  18.644  0.00  0.00    +0.000 N 
ATOM     11  N   UNL     1       3.189   6.067  19.617  0.00  0.00    +0.000 NA
ATOM     12  C   UNL     1       2.487   7.126  19.343  0.00  0.00    +0.000 A 
ATOM     13  C   UNL     1       2.583   7.876  18.075  0.00  0.00    +0.000 A 
ATOM     14  C   UNL     1       3.412   7.381  17.152  0.00  0.00    +0.000 A 
ATOM     15  C   UNL     1       4.158   6.123  17.387  0.00  0.00    +0.000 A 
ATOM     16  O   UNL     1       4.846   5.652  16.485  0.00  0.00    +0.000 OA
ENDBRANCH   1  12
BRANCH   6  17
ATOM     17  N   UNL     1      -1.408  11.349  18.905  0.00  0.00    +0.000 N 
ATOM     18  N   UNL     1      -1.322  10.663  17.719  0.00  0.00    +0.000 NA
ATOM     19  C   UNL     1      -2.521  10.751  17.191  0.00  0.00    +0.000 A 
ATOM     20  N   UNL     1      -3.401  11.433  17.961  0.00  0.00    +0.000 N 
ATOM     21  C   UNL     1      -4.772  11.838  17.746  0.00  0.00    +0.000 C 
ATOM     22  C   UNL     1      -2.704  11.829  19.076  0.00  0.00    +0.000 A 
ATOM     23  O   UNL     1      -3.131  12.487  20.011  0.00  0.00    +0.000 OA
BRANCH  19  24
ATOM     24  C   UNL     1      -2.865  10.143  15.834  0.00  0.00    +0.000 C 
ATOM     25  F   UNL     1      -1.959   9.232  15.384  0.00  0.00    +0.000 F 
ATOM     26  F   UNL     1      -4.061   9.492  15.856  0.00  0.00    +0.000 F 
ATOM     27  F   UNL     1      -2.958  11.087  14.857  0.00  0.00    +0.000 F 
ENDBRANCH  19  24
ENDBRANCH   6  17
TORSDOF 3
ENDMDL
MODEL 9
REMARK VINA RESULT:      -6.2      4.502      6.264
REMARK  Name = 
REMARK  5 active torsions:
REMARK  status: ('A' for Active; 'I' for Inactive)
REMARK    1  A    between atoms: C_1  and  N_2
REMARK    2  A    between atoms: C_4  and  C_5
REMARK    3  A    between atoms: C_10  and  N_11
REMARK    4  A    between atoms: C_13  and  C_14
REMARK    5  A    between atoms: N_18  and  C_19
REMARK                            x       y       z     vdW  Elec       q    Type
REMARK                         _______ _______ _______ _____ _____    ______ ____
ROOT
ATOM      1  C   UNL     1       1.574   7.690  20.685  0.00  0.00    +0.000 C 
ATOM      2  O   UNL     1       1.644   7.764  21.908  0.00  0.00    +0.000 OA
ATOM      3  N   UNL     1       1.839   6.511  19.947  0.00  0.00    +0.000 N 
ATOM      4  C   UNL     1       1.925   6.553  18.488  0.00  0.00    +0.000 C 
ATOM      5  C   UNL     1       1.969   5.196  17.806  0.00  0.00    +0.000 C 
ATOM      6  C   UNL     1       2.949   4.230  18.461  0.00  0.00    +0.000 C 
ATOM      7  C   UNL     1       2.661   4.145  19.959  0.00  0.00    +0.000 C 
ATOM      8  C   UNL     1       2.652   5.512  20.634  0.00  0.00    +0.000 C 
ENDROOT
BRANCH   1  12
ATOM      9  C   UNL     1      -1.233  11.592  20.284  0.00  0.00    +0.000 C 
ATOM     10  N   UNL     1      -0.172  10.801  19.689  0.00  0.00    +0.000 N 
ATOM     11  N   UNL     1       0.124   9.625  20.318  0.00  0.00    +0.000 NA
ATOM     12  C   UNL     1       1.173   8.963  19.928  0.00  0.00    +0.000 A 
ATOM     13  C   UNL     1       2.015   9.352  18.780  0.00  0.00    +0.000 A 
ATOM     14  C   UNL     1       1.686  10.486  18.157  0.00  0.00    +0.000 A 
ATOM     15  C   UNL     1       0.556  11.321  18.629  0.00  0.00    +0.000 A 
ATOM     16  O   UNL     1       0.335  12.399  18.085  0.00  0.00    +0.000 OA
ENDBRANCH   1  12
BRANCH   6  17
ATOM     17  N   UNL     1       4.351   4.493  18.162  0.00  0.00    +0.000 N 
ATOM     18  N   UNL     1       5.282   4.944  19.064  0.00  0.00    +0.000 NA
ATOM     19  C   UNL     1       6.388   5.075  18.368  0.00  0.00    +0.000 A 
ATOM     20  N   UNL     1       6.254   4.720  17.070  0.00  0.00    +0.000 N 
ATOM     21  C   UNL     1       7.162   4.779  15.946  0.00  0.00    +0.000 C 
ATOM     22  C   UNL     1       4.944   4.338  16.912  0.00  0.00    +0.000 A 
ATOM     23  O   UNL     1       4.409   3.963  15.881  0.00  0.00    +0.000 OA
BRANCH  19  24
ATOM     24  C   UNL     1       7.686   5.590  18.984  0.00  0.00    +0.000 C 
ATOM     25  F   UNL     1       8.101   6.790  18.494  0.00  0.00    +0.000 F 
ATOM     26  F   UNL     1       7.577   5.761  20.331  0.00  0.00    +0.000 F 
ATOM     27  F   UNL     1       8.724   4.730  18.787  0.00  0.00    +0.000 F 
ENDBRANCH  19  24
ENDBRANCH   6  17
TORSDOF 3
ENDMDL
