MODEL 1
REMARK VINA RESULT:      -9.6      0.000      0.000
REMARK  Name = 
REMARK  6 active torsions:
REMARK  status: ('A' for Active; 'I' for Inactive)
REMARK    1  A    between atoms: C_2  and  C_3
REMARK    2  A    between atoms: C_2  and  C_22
REMARK    3  A    between atoms: C_6  and  O_7
REMARK    4  A    between atoms: O_7  and  C_8
REMARK    5  A    between atoms: C_13  and  C_14
REMARK    6  A    between atoms: C_17  and  O_18
REMARK                            x       y       z     vdW  Elec       q    Type
REMARK                         _______ _______ _______ _____ _____    ______ ____
ROOT
ATOM      1  C   UNL     1       1.136   9.987  18.953  0.00  0.00    +0.000 A 
ATOM      2  C   UNL     1       0.989   9.385  20.208  0.00  0.00    +0.000 A 
ATOM      3  C   UNL     1       1.554   8.124  20.457  0.00  0.00    +0.000 A 
ATOM      4  C   UNL     1       2.280   7.458  19.462  0.00  0.00    +0.000 A 
ATOM      5  C   UNL     1       2.441   8.070  18.216  0.00  0.00    +0.000 A 
ATOM      6  C   UNL     1       1.860   9.316  17.957  0.00  0.00    +0.000 A 
ENDROOT
BRANCH   1   8
ATOM      7  O   UNL     1       1.410  12.303  18.639  0.00  0.00    +0.000 OA
ATOM      8  C   UNL     1       0.613  11.369  18.717  0.00  0.00    +0.000 C 
BRANCH   8   9
ATOM      9  C   UNL     1      -0.811  11.530  18.497  0.00  0.00    +0.000 A 
ATOM     10  N   UNL     1      -1.653  12.016  19.386  0.00  0.00    +0.000 NA
ATOM     11  C   UNL     1      -2.898  11.864  18.841  0.00  0.00    +0.000 A 
ATOM     12  C   UNL     1      -4.147  12.172  19.393  0.00  0.00    +0.000 A 
ATOM     13  C   UNL     1      -5.297  11.840  18.669  0.00  0.00    +0.000 A 
ATOM     14  C   UNL     1      -5.199  11.225  17.418  0.00  0.00    +0.000 A 
ATOM     15  C   UNL     1      -3.955  10.941  16.836  0.00  0.00    +0.000 A 
ATOM     16  C   UNL     1      -2.824  11.282  17.581  0.00  0.00    +0.000 A 
ATOM     17  N   UNL     1      -1.475  11.159  17.351  0.00  0.00    +0.000 N 
ATOM     18  H   UNL     1      -1.036  10.776  16.526  0.00  0.00    +0.000 HD
ENDBRANCH   8   9
ENDBRANCH   1   8
BRANCH   4  19
ATOM     19  O   UNL     1       2.878   6.262  19.822  0.00  0.00    +0.000 OA
BRANCH  19  20
ATOM     20  C   UNL     1       2.730   5.159  18.994  0.00  0.00    +0.000 A 
ATOM     21  N   UNL     1       1.624   4.392  19.171  0.00  0.00    +0.000 NA
ATOM     22  C   UNL     1       1.424   3.362  18.330  0.00  0.00    +0.000 A 
ATOM     23  C   UNL     1       2.276   3.058  17.291  0.00  0.00    +0.000 A 
ATOM     24  C   UNL     1       3.433   3.817  17.154  0.00  0.00    +0.000 A 
ATOM     25  C   UNL     1       3.720   4.867  18.047  0.00  0.00    +0.000 A 
BRANCH  25  26
ATOM     26  C   UNL     1       5.074   5.536  17.902  0.00  0.00    +0.000 C 
ATOM     27  C   UNL     1       6.242   4.730  18.505  0.00  0.00    +0.000 C 
ATOM     28  C   UNL     1       7.392   4.873  17.515  0.00  0.00    +0.000 C 
ATOM     29  C   UNL     1       6.689   5.010  16.173  0.00  0.00    +0.000 C 
ATOM     30  C   UNL     1       5.532   5.946  16.493  0.00  0.00    +0.000 C 
BRANCH  29  31
ATOM     31  O   UNL     1       7.542   5.539  15.177  0.00  0.00    +0.000 OA
ATOM     32  H   UNL     1       7.028   5.665  14.361  0.00  0.00    +0.000 HD
ENDBRANCH  29  31
ENDBRANCH  25  26
ENDBRANCH  19  20
ENDBRANCH   4  19
TORSDOF 6
ENDMDL
MODEL 2
REMARK VINA RESULT:      -9.4      0.285      1.091
REMARK  Name = 
REMARK  6 active torsions:
REMARK  status: ('A' for Active; 'I' for Inactive)
REMARK    1  A    between atoms: C_2  and  C_3
REMARK    2  A    between atoms: C_2  and  C_22
REMARK    3  A    between atoms: C_6  and  O_7
REMARK    4  A    between atoms: O_7  and  C_8
REMARK    5  A    between atoms: C_13  and  C_14
REMARK    6  A    between atoms: C_17  and  O_18
REMARK                            x       y       z     vdW  Elec       q    Type
REMARK                         _______ _______ _______ _____ _____    ______ ____
ROOT
ATOM      1  C   UNL     1       0.956   9.915  18.989  0.00  0.00    +0.000 A 
ATOM      2  C   UNL     1       0.921   9.294  20.243  0.00  0.00    +0.000 A 
ATOM      3  C   UNL     1       1.597   8.081  20.449  0.00  0.00    +0.000 A 
ATOM      4  C   UNL     1       2.322   7.482  19.412  0.00  0.00    +0.000 A 
ATOM      5  C   UNL     1       2.371   8.115  18.166  0.00  0.00    +0.000 A 
ATOM      6  C   UNL     1       1.680   9.312  17.951  0.00  0.00    +0.000 A 
ENDROOT
BRANCH   1   8
ATOM      7  O   UNL     1       1.023  12.257  18.761  0.00  0.00    +0.000 OA
ATOM      8  C   UNL     1       0.313  11.253  18.795  0.00  0.00    +0.000 C 
BRANCH   8   9
ATOM      9  C   UNL     1      -1.117  11.293  18.564  0.00  0.00    +0.000 A 
ATOM     10  N   UNL     1      -1.692  11.060  17.401  0.00  0.00    +0.000 NA
ATOM     11  C   UNL     1      -3.020  11.338  17.580  0.00  0.00    +0.000 A 
ATOM     12  C   UNL     1      -4.063  11.302  16.648  0.00  0.00    +0.000 A 
ATOM     13  C   UNL     1      -5.335  11.717  17.053  0.00  0.00    +0.000 A 
ATOM     14  C   UNL     1      -5.561  12.147  18.364  0.00  0.00    +0.000 A 
ATOM     15  C   UNL     1      -4.535  12.157  19.319  0.00  0.00    +0.000 A 
ATOM     16  C   UNL     1      -3.274  11.738  18.887  0.00  0.00    +0.000 A 
ATOM     17  N   UNL     1      -2.057  11.617  19.514  0.00  0.00    +0.000 N 
ATOM     18  H   UNL     1      -1.855  11.819  20.483  0.00  0.00    +0.000 HD
ENDBRANCH   8   9
ENDBRANCH   1   8
BRANCH   4  19
ATOM     19  O   UNL     1       3.031   6.336  19.728  0.00  0.00    +0.000 OA
BRANCH  19  20
ATOM     20  C   UNL     1       2.857   5.200  18.950  0.00  0.00    +0.000 A 
ATOM     21  N   UNL     1       1.752   4.448  19.187  0.00  0.00    +0.000 NA
ATOM     22  C   UNL     1       1.526   3.385  18.395  0.00  0.00    +0.000 A 
ATOM     23  C   UNL     1       2.349   3.034  17.348  0.00  0.00    +0.000 A 
ATOM     24  C   UNL     1       3.506   3.780  17.150  0.00  0.00    +0.000 A 
ATOM     25  C   UNL     1       3.821   4.864  17.991  0.00  0.00    +0.000 A 
BRANCH  25  26
ATOM     26  C   UNL     1       5.173   5.518  17.784  0.00  0.00    +0.000 C 
ATOM     27  C   UNL     1       6.352   4.734  18.393  0.00  0.00    +0.000 C 
ATOM     28  C   UNL     1       7.479   4.828  17.369  0.00  0.00    +0.000 C 
ATOM     29  C   UNL     1       6.743   4.909  16.040  0.00  0.00    +0.000 C 
ATOM     30  C   UNL     1       5.598   5.865  16.348  0.00  0.00    +0.000 C 
BRANCH  29  31
ATOM     31  O   UNL     1       7.573   5.390  15.001  0.00  0.00    +0.000 OA
ATOM     32  H   UNL     1       7.042   5.954  14.414  0.00  0.00    +0.000 HD
ENDBRANCH  29  31
ENDBRANCH  25  26
ENDBRANCH  19  20
ENDBRANCH   4  19
TORSDOF 6
ENDMDL
MODEL 3
REMARK VINA RESULT:      -9.2      2.487      3.967
REMARK  Name = 
REMARK  6 active torsions:
REMARK  status: ('A' for Active; 'I' for Inactive)
REMARK    1  A    between atoms: C_2  and  C_3
REMARK    2  A    between atoms: C_2  and  C_22
REMARK    3  A    between atoms: C_6  and  O_7
REMARK    4  A    between atoms: O_7  and  C_8
REMARK    5  A    between atoms: C_13  and  C_14
REMARK    6  A    between atoms: C_17  and  O_18
REMARK                            x       y       z     vdW  Elec       q    Type
REMARK                         _______ _______ _______ _____ _____    ______ ____
ROOT
ATOM      1  C   UNL     1       1.193   9.875  18.896  0.00  0.00    +0.000 A 
ATOM      2  C   UNL     1       1.060   9.284  20.158  0.00  0.00    +0.000 A 
ATOM      3  C   UNL     1       1.633   8.028  20.412  0.00  0.00    +0.000 A 
ATOM      4  C   UNL     1       2.353   7.356  19.417  0.00  0.00    +0.000 A 
ATOM      5  C   UNL     1       2.500   7.958  18.164  0.00  0.00    +0.000 A 
ATOM      6  C   UNL     1       1.911   9.199  17.900  0.00  0.00    +0.000 A 
ENDROOT
BRANCH   1   8
ATOM      7  O   UNL     1      -0.541  11.402  18.449  0.00  0.00    +0.000 OA
ATOM      8  C   UNL     1       0.662  11.253  18.653  0.00  0.00    +0.000 C 
BRANCH   8   9
ATOM      9  C   UNL     1       1.585  12.366  18.763  0.00  0.00    +0.000 A 
ATOM     10  N   UNL     1       1.943  12.930  19.898  0.00  0.00    +0.000 NA
ATOM     11  C   UNL     1       2.700  14.016  19.552  0.00  0.00    +0.000 A 
ATOM     12  C   UNL     1       3.285  14.984  20.377  0.00  0.00    +0.000 A 
ATOM     13  C   UNL     1       3.947  16.060  19.778  0.00  0.00    +0.000 A 
ATOM     14  C   UNL     1       4.032  16.159  18.386  0.00  0.00    +0.000 A 
ATOM     15  C   UNL     1       3.481  15.181  17.546  0.00  0.00    +0.000 A 
ATOM     16  C   UNL     1       2.824  14.117  18.172  0.00  0.00    +0.000 A 
ATOM     17  N   UNL     1       2.176  13.003  17.697  0.00  0.00    +0.000 N 
ATOM     18  H   UNL     1       2.064  12.737  16.729  0.00  0.00    +0.000 HD
ENDBRANCH   8   9
ENDBRANCH   1   8
BRANCH   4  19
ATOM     19  O   UNL     1       2.960   6.166  19.783  0.00  0.00    +0.000 OA
BRANCH  19  20
ATOM     20  C   UNL     1       2.804   5.053  18.969  0.00  0.00    +0.000 A 
ATOM     21  N   UNL     1       1.704   4.284  19.171  0.00  0.00    +0.000 NA
ATOM     22  C   UNL     1       1.497   3.243  18.345  0.00  0.00    +0.000 A 
ATOM     23  C   UNL     1       2.333   2.932  17.296  0.00  0.00    +0.000 A 
ATOM     24  C   UNL     1       3.484   3.695  17.132  0.00  0.00    +0.000 A 
ATOM     25  C   UNL     1       3.780   4.756  18.009  0.00  0.00    +0.000 A 
BRANCH  25  26
ATOM     26  C   UNL     1       5.128   5.429  17.835  0.00  0.00    +0.000 C 
ATOM     27  C   UNL     1       6.311   4.629  18.417  0.00  0.00    +0.000 C 
ATOM     28  C   UNL     1       7.441   4.775  17.403  0.00  0.00    +0.000 C 
ATOM     29  C   UNL     1       6.710   4.905  16.075  0.00  0.00    +0.000 C 
ATOM     30  C   UNL     1       5.556   5.838  16.417  0.00  0.00    +0.000 C 
BRANCH  29  31
ATOM     31  O   UNL     1       7.541   5.435  15.061  0.00  0.00    +0.000 OA
ATOM     32  H   UNL     1       7.586   6.401  15.167  0.00  0.00    +0.000 HD
ENDBRANCH  29  31
ENDBRANCH  25  26
ENDBRANCH  19  20
ENDBRANCH   4  19
TORSDOF 6
ENDMDL
MODEL 4
REMARK VINA RESULT:      -9.1      1.695      3.260
REMARK  Name = 
REMARK  6 active torsions:
REMARK  status: ('A' for Active; 'I' for Inactive)
REMARK    1  A    between atoms: C_2  and  C_3
REMARK    2  A    between atoms: C_2  and  C_22
REMARK    3  A    between atoms: C_6  and  O_7
REMARK    4  A    between atoms: O_7  and  C_8
REMARK    5  A    between atoms: C_13  and  C_14
REMARK    6  A    between atoms: C_17  and  O_18
REMARK                            x       y       z     vdW  Elec       q    Type
REMARK                         _______ _______ _______ _____ _____    ______ ____
ROOT
ATOM      1  C   UNL     1       1.237   9.202  19.464  0.00  0.00    +0.000 A 
ATOM      2  C   UNL     1       1.348   8.263  20.496  0.00  0.00    +0.000 A 
ATOM      3  C   UNL     1       2.118   7.103  20.314  0.00  0.00    +0.000 A 
ATOM      4  C   UNL     1       2.792   6.874  19.108  0.00  0.00    +0.000 A 
ATOM      5  C   UNL     1       2.694   7.824  18.087  0.00  0.00    +0.000 A 
ATOM      6  C   UNL     1       1.910   8.969  18.256  0.00  0.00    +0.000 A 
ENDROOT
BRANCH   1   8
ATOM      7  O   UNL     1       0.925  11.285  20.516  0.00  0.00    +0.000 OA
ATOM      8  C   UNL     1       0.494  10.482  19.690  0.00  0.00    +0.000 C 
BRANCH   8   9
ATOM      9  C   UNL     1      -0.657  10.756  18.852  0.00  0.00    +0.000 A 
ATOM     10  N   UNL     1      -1.780  11.296  19.279  0.00  0.00    +0.000 NA
ATOM     11  C   UNL     1      -2.643  11.249  18.219  0.00  0.00    +0.000 A 
ATOM     12  C   UNL     1      -3.983  11.647  18.153  0.00  0.00    +0.000 A 
ATOM     13  C   UNL     1      -4.690  11.417  16.968  0.00  0.00    +0.000 A 
ATOM     14  C   UNL     1      -4.067  10.814  15.871  0.00  0.00    +0.000 A 
ATOM     15  C   UNL     1      -2.716  10.440  15.910  0.00  0.00    +0.000 A 
ATOM     16  C   UNL     1      -2.034  10.680  17.106  0.00  0.00    +0.000 A 
ATOM     17  N   UNL     1      -0.742  10.456  17.512  0.00  0.00    +0.000 N 
ATOM     18  H   UNL     1       0.002  10.051  16.962  0.00  0.00    +0.000 HD
ENDBRANCH   8   9
ENDBRANCH   1   8
BRANCH   4  19
ATOM     19  O   UNL     1       3.599   5.751  19.049  0.00  0.00    +0.000 OA
BRANCH  19  20
ATOM     20  C   UNL     1       4.303   5.489  17.883  0.00  0.00    +0.000 A 
ATOM     21  N   UNL     1       5.270   6.373  17.528  0.00  0.00    +0.000 NA
ATOM     22  C   UNL     1       6.014   6.099  16.442  0.00  0.00    +0.000 A 
ATOM     23  C   UNL     1       5.855   4.959  15.685  0.00  0.00    +0.000 A 
ATOM     24  C   UNL     1       4.827   4.088  16.027  0.00  0.00    +0.000 A 
ATOM     25  C   UNL     1       3.979   4.361  17.117  0.00  0.00    +0.000 A 
BRANCH  25  26
ATOM     26  C   UNL     1       2.801   3.428  17.316  0.00  0.00    +0.000 C 
ATOM     27  C   UNL     1       3.148   2.125  18.063  0.00  0.00    +0.000 C 
ATOM     28  C   UNL     1       1.982   1.875  19.014  0.00  0.00    +0.000 C 
ATOM     29  C   UNL     1       1.495   3.275  19.353  0.00  0.00    +0.000 C 
ATOM     30  C   UNL     1       1.545   3.983  18.006  0.00  0.00    +0.000 C 
BRANCH  29  31
ATOM     31  O   UNL     1       0.192   3.267  19.903  0.00  0.00    +0.000 OA
ATOM     32  H   UNL     1       0.069   2.440  20.399  0.00  0.00    +0.000 HD
ENDBRANCH  29  31
ENDBRANCH  25  26
ENDBRANCH  19  20
ENDBRANCH   4  19
TORSDOF 6
ENDMDL
MODEL 5
REMARK VINA RESULT:      -9.0      2.091      3.288
REMARK  Name = 
REMARK  6 active torsions:
REMARK  status: ('A' for Active; 'I' for Inactive)
REMARK    1  A    between atoms: C_2  and  C_3
REMARK    2  A    between atoms: C_2  and  C_22
REMARK    3  A    between atoms: C_6  and  O_7
REMARK    4  A    between atoms: O_7  and  C_8
REMARK    5  A    between atoms: C_13  and  C_14
REMARK    6  A    between atoms: C_17  and  O_18
REMARK                            x       y       z     vdW  Elec       q    Type
REMARK                         _______ _______ _______ _____ _____    ______ ____
ROOT
ATOM      1  C   UNL     1       0.663   9.708  18.890  0.00  0.00    +0.000 A 
ATOM      2  C   UNL     1       1.425   9.095  17.888  0.00  0.00    +0.000 A 
ATOM      3  C   UNL     1       2.262   8.013  18.202  0.00  0.00    +0.000 A 
ATOM      4  C   UNL     1       2.339   7.525  19.512  0.00  0.00    +0.000 A 
ATOM      5  C   UNL     1       1.562   8.127  20.506  0.00  0.00    +0.000 A 
ATOM      6  C   UNL     1       0.744   9.220  20.202  0.00  0.00    +0.000 A 
ENDROOT
BRANCH   1   8
ATOM      7  O   UNL     1      -1.444  10.503  18.206  0.00  0.00    +0.000 OA
ATOM      8  C   UNL     1      -0.298  10.801  18.539  0.00  0.00    +0.000 C 
BRANCH   8   9
ATOM      9  C   UNL     1       0.143  12.172  18.699  0.00  0.00    +0.000 A 
ATOM     10  N   UNL     1      -0.663  13.206  18.828  0.00  0.00    +0.000 NA
ATOM     11  C   UNL     1       0.143  14.311  18.808  0.00  0.00    +0.000 A 
ATOM     12  C   UNL     1      -0.213  15.664  18.861  0.00  0.00    +0.000 A 
ATOM     13  C   UNL     1       0.796  16.625  18.736  0.00  0.00    +0.000 A 
ATOM     14  C   UNL     1       2.130  16.241  18.574  0.00  0.00    +0.000 A 
ATOM     15  C   UNL     1       2.507  14.890  18.553  0.00  0.00    +0.000 A 
ATOM     16  C   UNL     1       1.479  13.952  18.679  0.00  0.00    +0.000 A 
ATOM     17  N   UNL     1       1.457  12.579  18.699  0.00  0.00    +0.000 N 
ATOM     18  H   UNL     1       2.254  11.961  18.630  0.00  0.00    +0.000 HD
ENDBRANCH   8   9
ENDBRANCH   1   8
BRANCH   4  19
ATOM     19  O   UNL     1       3.119   6.399  19.713  0.00  0.00    +0.000 OA
BRANCH  19  20
ATOM     20  C   UNL     1       2.895   5.276  18.930  0.00  0.00    +0.000 A 
ATOM     21  N   UNL     1       1.763   4.566  19.170  0.00  0.00    +0.000 NA
ATOM     22  C   UNL     1       1.490   3.518  18.374  0.00  0.00    +0.000 A 
ATOM     23  C   UNL     1       2.291   3.140  17.320  0.00  0.00    +0.000 A 
ATOM     24  C   UNL     1       3.475   3.841  17.118  0.00  0.00    +0.000 A 
ATOM     25  C   UNL     1       3.839   4.907  17.963  0.00  0.00    +0.000 A 
BRANCH  25  26
ATOM     26  C   UNL     1       5.214   5.508  17.750  0.00  0.00    +0.000 C 
ATOM     27  C   UNL     1       6.367   4.664  18.328  0.00  0.00    +0.000 C 
ATOM     28  C   UNL     1       7.483   4.731  17.291  0.00  0.00    +0.000 C 
ATOM     29  C   UNL     1       6.735   4.869  15.974  0.00  0.00    +0.000 C 
ATOM     30  C   UNL     1       5.635   5.865  16.315  0.00  0.00    +0.000 C 
BRANCH  29  31
ATOM     31  O   UNL     1       7.571   5.335  14.933  0.00  0.00    +0.000 OA
ATOM     32  H   UNL     1       7.019   5.556  14.164  0.00  0.00    +0.000 HD
ENDBRANCH  29  31
ENDBRANCH  25  26
ENDBRANCH  19  20
ENDBRANCH   4  19
TORSDOF 6
ENDMDL
MODEL 6
REMARK VINA RESULT:      -9.0      1.066      1.437
REMARK  Name = 
REMARK  6 active torsions:
REMARK  status: ('A' for Active; 'I' for Inactive)
REMARK    1  A    between atoms: C_2  and  C_3
REMARK    2  A    between atoms: C_2  and  C_22
REMARK    3  A    between atoms: C_6  and  O_7
REMARK    4  A    between atoms: O_7  and  C_8
REMARK    5  A    between atoms: C_13  and  C_14
REMARK    6  A    between atoms: C_17  and  O_18
REMARK                            x       y       z     vdW  Elec       q    Type
REMARK                         _______ _______ _______ _____ _____    ______ ____
ROOT
ATOM      1  C   UNL     1       1.423   9.475  18.926  0.00  0.00    +0.000 A 
ATOM      2  C   UNL     1       1.300   8.929  20.209  0.00  0.00    +0.000 A 
ATOM      3  C   UNL     1       1.812   7.651  20.483  0.00  0.00    +0.000 A 
ATOM      4  C   UNL     1       2.461   6.912  19.486  0.00  0.00    +0.000 A 
ATOM      5  C   UNL     1       2.598   7.469  18.212  0.00  0.00    +0.000 A 
ATOM      6  C   UNL     1       2.069   8.732  17.928  0.00  0.00    +0.000 A 
ENDROOT
BRANCH   1   8
ATOM      7  O   UNL     1       1.798  11.760  18.504  0.00  0.00    +0.000 OA
ATOM      8  C   UNL     1       0.960  10.873  18.658  0.00  0.00    +0.000 C 
BRANCH   8   9
ATOM      9  C   UNL     1      -0.463  11.100  18.500  0.00  0.00    +0.000 A 
ATOM     10  N   UNL     1      -1.189  11.867  19.288  0.00  0.00    +0.000 NA
ATOM     11  C   UNL     1      -2.485  11.694  18.885  0.00  0.00    +0.000 A 
ATOM     12  C   UNL     1      -3.656  12.241  19.422  0.00  0.00    +0.000 A 
ATOM     13  C   UNL     1      -4.885  11.842  18.885  0.00  0.00    +0.000 A 
ATOM     14  C   UNL     1      -4.940  10.927  17.831  0.00  0.00    +0.000 A 
ATOM     15  C   UNL     1      -3.774  10.396  17.260  0.00  0.00    +0.000 A 
ATOM     16  C   UNL     1      -2.561  10.810  17.815  0.00  0.00    +0.000 A 
ATOM     17  N   UNL     1      -1.249  10.515  17.535  0.00  0.00    +0.000 N 
ATOM     18  H   UNL     1      -0.911   9.899  16.809  0.00  0.00    +0.000 HD
ENDBRANCH   8   9
ENDBRANCH   1   8
BRANCH   4  19
ATOM     19  O   UNL     1       3.013   5.701  19.868  0.00  0.00    +0.000 OA
BRANCH  19  20
ATOM     20  C   UNL     1       2.389   4.524  19.481  0.00  0.00    +0.000 A 
ATOM     21  N   UNL     1       1.223   4.206  20.099  0.00  0.00    +0.000 NA
ATOM     22  C   UNL     1       0.565   3.108  19.686  0.00  0.00    +0.000 A 
ATOM     23  C   UNL     1       1.006   2.304  18.659  0.00  0.00    +0.000 A 
ATOM     24  C   UNL     1       2.228   2.609  18.071  0.00  0.00    +0.000 A 
ATOM     25  C   UNL     1       2.988   3.711  18.510  0.00  0.00    +0.000 A 
BRANCH  25  26
ATOM     26  C   UNL     1       4.370   3.871  17.907  0.00  0.00    +0.000 C 
ATOM     27  C   UNL     1       4.431   4.859  16.725  0.00  0.00    +0.000 C 
ATOM     28  C   UNL     1       5.723   5.646  16.916  0.00  0.00    +0.000 C 
ATOM     29  C   UNL     1       5.896   5.681  18.426  0.00  0.00    +0.000 C 
ATOM     30  C   UNL     1       5.526   4.263  18.840  0.00  0.00    +0.000 C 
BRANCH  29  31
ATOM     31  O   UNL     1       7.217   6.018  18.803  0.00  0.00    +0.000 OA
ATOM     32  H   UNL     1       7.626   5.247  19.229  0.00  0.00    +0.000 HD
ENDBRANCH  29  31
ENDBRANCH  25  26
ENDBRANCH  19  20
ENDBRANCH   4  19
TORSDOF 6
ENDMDL
MODEL 7
REMARK VINA RESULT:      -9.0      2.094      3.295
REMARK  Name = 
REMARK  6 active torsions:
REMARK  status: ('A' for Active; 'I' for Inactive)
REMARK    1  A    between atoms: C_2  and  C_3
REMARK    2  A    between atoms: C_2  and  C_22
REMARK    3  A    between atoms: C_6  and  O_7
REMARK    4  A    between atoms: O_7  and  C_8
REMARK    5  A    between atoms: C_13  and  C_14
REMARK    6  A    between atoms: C_17  and  O_18
REMARK                            x       y       z     vdW  Elec       q    Type
REMARK                         _______ _______ _______ _____ _____    ______ ____
ROOT
ATOM      1  C   UNL     1       0.543   9.769  18.909  0.00  0.00    +0.000 A 
ATOM      2  C   UNL     1       1.312   9.194  17.890  0.00  0.00    +0.000 A 
ATOM      3  C   UNL     1       2.186   8.135  18.179  0.00  0.00    +0.000 A 
ATOM      4  C   UNL     1       2.293   7.631  19.481  0.00  0.00    +0.000 A 
ATOM      5  C   UNL     1       1.509   8.195  20.492  0.00  0.00    +0.000 A 
ATOM      6  C   UNL     1       0.654   9.265  20.212  0.00  0.00    +0.000 A 
ENDROOT
BRANCH   1   8
ATOM      7  O   UNL     1      -1.634  10.520  18.422  0.00  0.00    +0.000 OA
ATOM      8  C   UNL     1      -0.457  10.835  18.584  0.00  0.00    +0.000 C 
BRANCH   8   9
ATOM      9  C   UNL     1      -0.001  12.211  18.568  0.00  0.00    +0.000 A 
ATOM     10  N   UNL     1       1.261  12.581  18.649  0.00  0.00    +0.000 NA
ATOM     11  C   UNL     1       1.244  13.946  18.743  0.00  0.00    +0.000 A 
ATOM     12  C   UNL     1       2.315  14.833  18.900  0.00  0.00    +0.000 A 
ATOM     13  C   UNL     1       2.035  16.194  19.061  0.00  0.00    +0.000 A 
ATOM     14  C   UNL     1       0.717  16.657  19.052  0.00  0.00    +0.000 A 
ATOM     15  C   UNL     1      -0.365  15.786  18.862  0.00  0.00    +0.000 A 
ATOM     16  C   UNL     1      -0.058  14.432  18.705  0.00  0.00    +0.000 A 
ATOM     17  N   UNL     1      -0.825  13.310  18.506  0.00  0.00    +0.000 N 
ATOM     18  H   UNL     1      -1.832  13.275  18.422  0.00  0.00    +0.000 HD
ENDBRANCH   8   9
ENDBRANCH   1   8
BRANCH   4  19
ATOM     19  O   UNL     1       3.111   6.528  19.657  0.00  0.00    +0.000 OA
BRANCH  19  20
ATOM     20  C   UNL     1       2.881   5.391  18.896  0.00  0.00    +0.000 A 
ATOM     21  N   UNL     1       1.742   4.696  19.144  0.00  0.00    +0.000 NA
ATOM     22  C   UNL     1       1.464   3.634  18.367  0.00  0.00    +0.000 A 
ATOM     23  C   UNL     1       2.268   3.228  17.325  0.00  0.00    +0.000 A 
ATOM     24  C   UNL     1       3.458   3.916  17.115  0.00  0.00    +0.000 A 
ATOM     25  C   UNL     1       3.826   4.995  17.940  0.00  0.00    +0.000 A 
BRANCH  25  26
ATOM     26  C   UNL     1       5.208   5.581  17.722  0.00  0.00    +0.000 C 
ATOM     27  C   UNL     1       6.351   4.740  18.325  0.00  0.00    +0.000 C 
ATOM     28  C   UNL     1       7.473   4.776  17.293  0.00  0.00    +0.000 C 
ATOM     29  C   UNL     1       6.734   4.891  15.969  0.00  0.00    +0.000 C 
ATOM     30  C   UNL     1       5.639   5.903  16.283  0.00  0.00    +0.000 C 
BRANCH  29  31
ATOM     31  O   UNL     1       7.579   5.328  14.923  0.00  0.00    +0.000 OA
ATOM     32  H   UNL     1       8.399   4.807  14.948  0.00  0.00    +0.000 HD
ENDBRANCH  29  31
ENDBRANCH  25  26
ENDBRANCH  19  20
ENDBRANCH   4  19
TORSDOF 6
ENDMDL
MODEL 8
REMARK VINA RESULT:      -9.0      1.105      1.473
REMARK  Name = 
REMARK  6 active torsions:
REMARK  status: ('A' for Active; 'I' for Inactive)
REMARK    1  A    between atoms: C_2  and  C_3
REMARK    2  A    between atoms: C_2  and  C_22
REMARK    3  A    between atoms: C_6  and  O_7
REMARK    4  A    between atoms: O_7  and  C_8
REMARK    5  A    between atoms: C_13  and  C_14
REMARK    6  A    between atoms: C_17  and  O_18
REMARK                            x       y       z     vdW  Elec       q    Type
REMARK                         _______ _______ _______ _____ _____    ______ ____
ROOT
ATOM      1  C   UNL     1       1.061   9.373  19.636  0.00  0.00    +0.000 A 
ATOM      2  C   UNL     1       1.115   8.591  20.796  0.00  0.00    +0.000 A 
ATOM      3  C   UNL     1       1.814   7.373  20.792  0.00  0.00    +0.000 A 
ATOM      4  C   UNL     1       2.474   6.931  19.639  0.00  0.00    +0.000 A 
ATOM      5  C   UNL     1       2.433   7.725  18.489  0.00  0.00    +0.000 A 
ATOM      6  C   UNL     1       1.719   8.927  18.481  0.00  0.00    +0.000 A 
ENDROOT
BRANCH   1   8
ATOM      7  O   UNL     1       0.882  11.607  20.357  0.00  0.00    +0.000 OA
ATOM      8  C   UNL     1       0.395  10.714  19.666  0.00  0.00    +0.000 C 
BRANCH   8   9
ATOM      9  C   UNL     1      -0.748  10.924  18.800  0.00  0.00    +0.000 A 
ATOM     10  N   UNL     1      -1.898  11.434  19.193  0.00  0.00    +0.000 NA
ATOM     11  C   UNL     1      -2.738  11.327  18.118  0.00  0.00    +0.000 A 
ATOM     12  C   UNL     1      -4.091  11.674  18.018  0.00  0.00    +0.000 A 
ATOM     13  C   UNL     1      -4.766  11.388  16.827  0.00  0.00    +0.000 A 
ATOM     14  C   UNL     1      -4.101  10.779  15.759  0.00  0.00    +0.000 A 
ATOM     15  C   UNL     1      -2.739  10.456  15.831  0.00  0.00    +0.000 A 
ATOM     16  C   UNL     1      -2.089  10.752  17.032  0.00  0.00    +0.000 A 
ATOM     17  N   UNL     1      -0.797  10.585  17.468  0.00  0.00    +0.000 N 
ATOM     18  H   UNL     1      -0.029  10.194  16.942  0.00  0.00    +0.000 HD
ENDBRANCH   8   9
ENDBRANCH   1   8
BRANCH   4  19
ATOM     19  O   UNL     1       3.212   5.765  19.751  0.00  0.00    +0.000 OA
BRANCH  19  20
ATOM     20  C   UNL     1       2.659   4.572  19.310  0.00  0.00    +0.000 A 
ATOM     21  N   UNL     1       1.519   4.152  19.917  0.00  0.00    +0.000 NA
ATOM     22  C   UNL     1       0.927   3.037  19.454  0.00  0.00    +0.000 A 
ATOM     23  C   UNL     1       1.408   2.313  18.386  0.00  0.00    +0.000 A 
ATOM     24  C   UNL     1       2.604   2.723  17.807  0.00  0.00    +0.000 A 
ATOM     25  C   UNL     1       3.297   3.846  18.296  0.00  0.00    +0.000 A 
BRANCH  25  26
ATOM     26  C   UNL     1       4.662   4.121  17.693  0.00  0.00    +0.000 C 
ATOM     27  C   UNL     1       4.691   4.076  16.153  0.00  0.00    +0.000 C 
ATOM     28  C   UNL     1       5.586   5.235  15.726  0.00  0.00    +0.000 C 
ATOM     29  C   UNL     1       5.373   6.269  16.821  0.00  0.00    +0.000 C 
ATOM     30  C   UNL     1       5.378   5.423  18.088  0.00  0.00    +0.000 C 
BRANCH  29  31
ATOM     31  O   UNL     1       6.391   7.250  16.832  0.00  0.00    +0.000 OA
ATOM     32  H   UNL     1       7.222   6.840  16.538  0.00  0.00    +0.000 HD
ENDBRANCH  29  31
ENDBRANCH  25  26
ENDBRANCH  19  20
ENDBRANCH   4  19
TORSDOF 6
ENDMDL
MODEL 9
REMARK VINA RESULT:      -9.0      1.687      3.428
REMARK  Name = 
REMARK  6 active torsions:
REMARK  status: ('A' for Active; 'I' for Inactive)
REMARK    1  A    between atoms: C_2  and  C_3
REMARK    2  A    between atoms: C_2  and  C_22
REMARK    3  A    between atoms: C_6  and  O_7
REMARK    4  A    between atoms: O_7  and  C_8
REMARK    5  A    between atoms: C_13  and  C_14
REMARK    6  A    between atoms: C_17  and  O_18
REMARK                            x       y       z     vdW  Elec       q    Type
REMARK                         _______ _______ _______ _____ _____    ______ ____
ROOT
ATOM      1  C   UNL     1       1.358   9.048  19.261  0.00  0.00    +0.000 A 
ATOM      2  C   UNL     1       1.461   8.130  20.313  0.00  0.00    +0.000 A 
ATOM      3  C   UNL     1       2.270   6.990  20.177  0.00  0.00    +0.000 A 
ATOM      4  C   UNL     1       2.992   6.762  18.999  0.00  0.00    +0.000 A 
ATOM      5  C   UNL     1       2.902   7.692  17.959  0.00  0.00    +0.000 A 
ATOM      6  C   UNL     1       2.079   8.816  18.081  0.00  0.00    +0.000 A 
ENDROOT
BRANCH   1   8
ATOM      7  O   UNL     1       1.053  11.225  20.102  0.00  0.00    +0.000 OA
ATOM      8  C   UNL     1       0.570  10.308  19.440  0.00  0.00    +0.000 C 
BRANCH   8   9
ATOM      9  C   UNL     1      -0.695  10.423  18.741  0.00  0.00    +0.000 A 
ATOM     10  N   UNL     1      -0.926   9.950  17.533  0.00  0.00    +0.000 NA
ATOM     11  C   UNL     1      -2.176  10.392  17.194  0.00  0.00    +0.000 A 
ATOM     12  C   UNL     1      -2.880  10.213  15.998  0.00  0.00    +0.000 A 
ATOM     13  C   UNL     1      -4.122  10.841  15.855  0.00  0.00    +0.000 A 
ATOM     14  C   UNL     1      -4.651  11.619  16.888  0.00  0.00    +0.000 A 
ATOM     15  C   UNL     1      -3.973  11.780  18.105  0.00  0.00    +0.000 A 
ATOM     16  C   UNL     1      -2.735  11.143  18.220  0.00  0.00    +0.000 A 
ATOM     17  N   UNL     1      -1.804  11.074  19.228  0.00  0.00    +0.000 N 
ATOM     18  H   UNL     1      -1.869  11.503  20.140  0.00  0.00    +0.000 HD
ENDBRANCH   8   9
ENDBRANCH   1   8
BRANCH   4  19
ATOM     19  O   UNL     1       3.833   5.663  18.987  0.00  0.00    +0.000 OA
BRANCH  19  20
ATOM     20  C   UNL     1       4.513   5.348  17.819  0.00  0.00    +0.000 A 
ATOM     21  N   UNL     1       5.519   6.179  17.442  0.00  0.00    +0.000 NA
ATOM     22  C   UNL     1       6.239   5.851  16.354  0.00  0.00    +0.000 A 
ATOM     23  C   UNL     1       6.017   4.709  15.617  0.00  0.00    +0.000 A 
ATOM     24  C   UNL     1       4.951   3.895  15.981  0.00  0.00    +0.000 A 
ATOM     25  C   UNL     1       4.127   4.227  17.074  0.00  0.00    +0.000 A 
BRANCH  25  26
ATOM     26  C   UNL     1       2.906   3.356  17.297  0.00  0.00    +0.000 C 
ATOM     27  C   UNL     1       3.189   2.067  18.094  0.00  0.00    +0.000 C 
ATOM     28  C   UNL     1       2.007   1.905  19.044  0.00  0.00    +0.000 C 
ATOM     29  C   UNL     1       1.582   3.337  19.328  0.00  0.00    +0.000 C 
ATOM     30  C   UNL     1       1.672   3.993  17.956  0.00  0.00    +0.000 C 
BRANCH  29  31
ATOM     31  O   UNL     1       0.277   3.408  19.868  0.00  0.00    +0.000 OA
ATOM     32  H   UNL     1      -0.117   4.262  19.620  0.00  0.00    +0.000 HD
ENDBRANCH  29  31
ENDBRANCH  25  26
ENDBRANCH  19  20
ENDBRANCH   4  19
TORSDOF 6
ENDMDL
