MODEL 1
REMARK VINA RESULT:      -6.4      0.000      0.000
REMARK  Name = 
REMARK  4 active torsions:
REMARK  status: ('A' for Active; 'I' for Inactive)
REMARK    1  A    between atoms: C_1  and  N_2
REMARK    2  A    between atoms: C_7  and  C_8
REMARK    3  A    between atoms: N_10  and  C_11
REMARK    4  A    between atoms: C_15  and  C_16
REMARK                            x       y       z     vdW  Elec       q    Type
REMARK                         _______ _______ _______ _____ _____    ______ ____
ROOT
ATOM      1  C   UNL     1       5.150   4.819  16.319  0.00  0.00    +0.000 A 
ATOM      2  S   UNL     1       4.751   3.615  15.145  0.00  0.00    +0.000 S 
ATOM      3  C   UNL     1       6.008   4.119  14.176  0.00  0.00    +0.000 A 
ATOM      4  C   UNL     1       6.802   5.064  14.759  0.00  0.00    +0.000 A 
ATOM      5  C   UNL     1       6.345   5.489  16.044  0.00  0.00    +0.000 A 
ATOM      6  C   UNL     1       7.954   5.403  13.880  0.00  0.00    +0.000 C 
ATOM      7  C   UNL     1       7.498   4.817  12.508  0.00  0.00    +0.000 C 
ATOM      8  C   UNL     1       6.448   3.708  12.823  0.00  0.00    +0.000 C 
ENDROOT
BRANCH   5   9
ATOM      9  C   UNL     1       7.125   6.392  16.889  0.00  0.00    +0.000 C 
ATOM     10  N   UNL     1       7.838   5.858  17.916  0.00  0.00    +0.000 N 
ATOM     11  O   UNL     1       7.122   7.611  16.735  0.00  0.00    +0.000 OA
ATOM     12  H   UNL     1       7.500   4.983  18.309  0.00  0.00    +0.000 HD
ATOM     13  H   UNL     1       8.201   6.533  18.577  0.00  0.00    +0.000 HD
ENDBRANCH   5   9
BRANCH   1  16
ATOM     14  C   UNL     1       4.531   4.483  18.628  0.00  0.00    +0.000 C 
ATOM     15  O   UNL     1       5.646   4.088  18.966  0.00  0.00    +0.000 OA
ATOM     16  N   UNL     1       4.215   4.840  17.333  0.00  0.00    +0.000 N 
ATOM     17  H   UNL     1       3.477   5.527  17.225  0.00  0.00    +0.000 HD
BRANCH  14  24
ATOM     18  C   UNL     1       3.644   2.265  20.559  0.00  0.00    +0.000 C 
ATOM     19  N   UNL     1       3.069   3.588  20.438  0.00  0.00    +0.000 N 
ATOM     20  N   UNL     1       2.003   3.896  21.207  0.00  0.00    +0.000 NA
ATOM     21  C   UNL     1       1.724   5.154  20.867  0.00  0.00    +0.000 A 
ATOM     22  C   UNL     1       2.595   5.644  19.882  0.00  0.00    +0.000 A 
ATOM     23 CL   UNL     1       2.547   7.219  19.251  0.00  0.00    +0.000 Cl
ATOM     24  C   UNL     1       3.454   4.601  19.583  0.00  0.00    +0.000 A 
ENDBRANCH  14  24
ENDBRANCH   1  16
TORSDOF 3
ENDMDL
MODEL 2
REMARK VINA RESULT:      -6.1      4.143      5.826
REMARK  Name = 
REMARK  4 active torsions:
REMARK  status: ('A' for Active; 'I' for Inactive)
REMARK    1  A    between atoms: C_1  and  N_2
REMARK    2  A    between atoms: C_7  and  C_8
REMARK    3  A    between atoms: N_10  and  C_11
REMARK    4  A    between atoms: C_15  and  C_16
REMARK                            x       y       z     vdW  Elec       q    Type
REMARK                         _______ _______ _______ _____ _____    ______ ____
ROOT
ATOM      1  C   UNL     1       2.591   6.091  19.561  0.00  0.00    +0.000 A 
ATOM      2  S   UNL     1       1.717   4.852  20.389  0.00  0.00    +0.000 S 
ATOM      3  C   UNL     1       2.444   3.687  19.449  0.00  0.00    +0.000 A 
ATOM      4  C   UNL     1       3.421   4.176  18.630  0.00  0.00    +0.000 A 
ATOM      5  C   UNL     1       3.561   5.597  18.685  0.00  0.00    +0.000 A 
ATOM      6  C   UNL     1       4.091   3.075  17.888  0.00  0.00    +0.000 C 
ATOM      7  C   UNL     1       3.086   1.896  18.080  0.00  0.00    +0.000 C 
ATOM      8  C   UNL     1       2.260   2.220  19.363  0.00  0.00    +0.000 C 
ENDROOT
BRANCH   5   9
ATOM      9  C   UNL     1       4.637   6.301  17.989  0.00  0.00    +0.000 C 
ATOM     10  N   UNL     1       4.308   7.109  16.946  0.00  0.00    +0.000 N 
ATOM     11  O   UNL     1       5.822   6.154  18.278  0.00  0.00    +0.000 OA
ATOM     12  H   UNL     1       3.454   6.888  16.440  0.00  0.00    +0.000 HD
ATOM     13  H   UNL     1       5.091   7.418  16.384  0.00  0.00    +0.000 HD
ENDBRANCH   5   9
BRANCH   1  16
ATOM     14  C   UNL     1       1.656   8.269  19.098  0.00  0.00    +0.000 C 
ATOM     15  O   UNL     1       1.554   8.070  17.889  0.00  0.00    +0.000 OA
ATOM     16  N   UNL     1       2.179   7.341  19.977  0.00  0.00    +0.000 N 
ATOM     17  H   UNL     1       1.842   7.389  20.932  0.00  0.00    +0.000 HD
BRANCH  14  24
ATOM     18  C   UNL     1       2.311  11.061  17.998  0.00  0.00    +0.000 C 
ATOM     19  N   UNL     1       1.540  10.757  19.185  0.00  0.00    +0.000 N 
ATOM     20  N   UNL     1       1.085  11.785  19.934  0.00  0.00    +0.000 NA
ATOM     21  C   UNL     1       0.429  11.184  20.925  0.00  0.00    +0.000 A 
ATOM     22  C   UNL     1       0.472   9.785  20.821  0.00  0.00    +0.000 A 
ATOM     23 CL   UNL     1      -0.293   8.715  21.893  0.00  0.00    +0.000 Cl
ATOM     24  C   UNL     1       1.229   9.513  19.695  0.00  0.00    +0.000 A 
ENDBRANCH  14  24
ENDBRANCH   1  16
TORSDOF 3
ENDMDL
MODEL 3
REMARK VINA RESULT:      -6.1      4.081      6.781
REMARK  Name = 
REMARK  4 active torsions:
REMARK  status: ('A' for Active; 'I' for Inactive)
REMARK    1  A    between atoms: C_1  and  N_2
REMARK    2  A    between atoms: C_7  and  C_8
REMARK    3  A    between atoms: N_10  and  C_11
REMARK    4  A    between atoms: C_15  and  C_16
REMARK                            x       y       z     vdW  Elec       q    Type
REMARK                         _______ _______ _______ _____ _____    ______ ____
ROOT
ATOM      1  C   UNL     1       1.884   7.521  20.247  0.00  0.00    +0.000 A 
ATOM      2  S   UNL     1       0.775   7.825  21.536  0.00  0.00    +0.000 S 
ATOM      3  C   UNL     1       0.433   9.329  20.911  0.00  0.00    +0.000 A 
ATOM      4  C   UNL     1       1.014   9.561  19.697  0.00  0.00    +0.000 A 
ATOM      5  C   UNL     1       1.862   8.500  19.252  0.00  0.00    +0.000 A 
ATOM      6  C   UNL     1       0.596  10.881  19.153  0.00  0.00    +0.000 C 
ATOM      7  C   UNL     1       0.005  11.580  20.417  0.00  0.00    +0.000 C 
ATOM      8  C   UNL     1      -0.411  10.442  21.401  0.00  0.00    +0.000 C 
ENDROOT
BRANCH   5   9
ATOM      9  C   UNL     1       2.469   8.495  17.922  0.00  0.00    +0.000 C 
ATOM     10  N   UNL     1       3.482   7.622  17.680  0.00  0.00    +0.000 N 
ATOM     11  O   UNL     1       2.131   9.277  17.036  0.00  0.00    +0.000 OA
ATOM     12  H   UNL     1       4.040   7.327  18.478  0.00  0.00    +0.000 HD
ATOM     13  H   UNL     1       3.989   7.787  16.819  0.00  0.00    +0.000 HD
ENDBRANCH   5   9
BRANCH   1  16
ATOM     14  C   UNL     1       2.374   5.248  19.596  0.00  0.00    +0.000 C 
ATOM     15  O   UNL     1       1.605   5.259  18.637  0.00  0.00    +0.000 OA
ATOM     16  N   UNL     1       2.544   6.324  20.444  0.00  0.00    +0.000 N 
ATOM     17  H   UNL     1       3.447   6.399  20.898  0.00  0.00    +0.000 HD
BRANCH  14  24
ATOM     18  C   UNL     1       5.207   4.714  18.534  0.00  0.00    +0.000 C 
ATOM     19  N   UNL     1       4.438   3.862  19.417  0.00  0.00    +0.000 N 
ATOM     20  N   UNL     1       4.974   2.681  19.795  0.00  0.00    +0.000 NA
ATOM     21  C   UNL     1       4.042   2.152  20.585  0.00  0.00    +0.000 A 
ATOM     22  C   UNL     1       2.914   2.979  20.704  0.00  0.00    +0.000 A 
ATOM     23 CL   UNL     1       1.560   2.627  21.665  0.00  0.00    +0.000 Cl
ATOM     24  C   UNL     1       3.168   4.083  19.910  0.00  0.00    +0.000 A 
ENDBRANCH  14  24
ENDBRANCH   1  16
TORSDOF 3
ENDMDL
MODEL 4
REMARK VINA RESULT:      -6.1      4.026      5.724
REMARK  Name = 
REMARK  4 active torsions:
REMARK  status: ('A' for Active; 'I' for Inactive)
REMARK    1  A    between atoms: C_1  and  N_2
REMARK    2  A    between atoms: C_7  and  C_8
REMARK    3  A    between atoms: N_10  and  C_11
REMARK    4  A    between atoms: C_15  and  C_16
REMARK                            x       y       z     vdW  Elec       q    Type
REMARK                         _______ _______ _______ _____ _____    ______ ____
ROOT
ATOM      1  C   UNL     1       2.579   6.175  19.549  0.00  0.00    +0.000 A 
ATOM      2  S   UNL     1       1.686   4.976  20.416  0.00  0.00    +0.000 S 
ATOM      3  C   UNL     1       2.388   3.771  19.507  0.00  0.00    +0.000 A 
ATOM      4  C   UNL     1       3.369   4.219  18.670  0.00  0.00    +0.000 A 
ATOM      5  C   UNL     1       3.535   5.638  18.683  0.00  0.00    +0.000 A 
ATOM      6  C   UNL     1       4.015   3.085  17.956  0.00  0.00    +0.000 C 
ATOM      7  C   UNL     1       2.991   1.931  18.186  0.00  0.00    +0.000 C 
ATOM      8  C   UNL     1       2.177   2.306  19.464  0.00  0.00    +0.000 C 
ENDROOT
BRANCH   5   9
ATOM      9  C   UNL     1       4.619   6.303  17.961  0.00  0.00    +0.000 C 
ATOM     10  N   UNL     1       4.298   7.095  16.905  0.00  0.00    +0.000 N 
ATOM     11  O   UNL     1       5.803   6.135  18.243  0.00  0.00    +0.000 OA
ATOM     12  H   UNL     1       3.434   6.882  16.411  0.00  0.00    +0.000 HD
ATOM     13  H   UNL     1       5.083   7.374  16.329  0.00  0.00    +0.000 HD
ENDBRANCH   5   9
BRANCH   1  16
ATOM     14  C   UNL     1       1.669   8.350  19.030  0.00  0.00    +0.000 C 
ATOM     15  O   UNL     1       1.546   8.116  17.830  0.00  0.00    +0.000 OA
ATOM     16  N   UNL     1       2.191   7.443  19.931  0.00  0.00    +0.000 N 
ATOM     17  H   UNL     1       1.868   7.526  20.888  0.00  0.00    +0.000 HD
BRANCH  14  24
ATOM     18  C   UNL     1      -0.059   8.690  21.547  0.00  0.00    +0.000 C 
ATOM     19  N   UNL     1       0.487   9.748  20.723  0.00  0.00    +0.000 N 
ATOM     20  N   UNL     1       0.188  11.026  21.040  0.00  0.00    +0.000 NA
ATOM     21  C   UNL     1       0.830  11.737  20.114  0.00  0.00    +0.000 A 
ATOM     22  C   UNL     1       1.525  10.923  19.205  0.00  0.00    +0.000 A 
ATOM     23 CL   UNL     1       2.478  11.503  17.927  0.00  0.00    +0.000 Cl
ATOM     24  C   UNL     1       1.269   9.619  19.593  0.00  0.00    +0.000 A 
ENDBRANCH  14  24
ENDBRANCH   1  16
TORSDOF 3
ENDMDL
MODEL 5
REMARK VINA RESULT:      -6.1      4.290      5.876
REMARK  Name = 
REMARK  4 active torsions:
REMARK  status: ('A' for Active; 'I' for Inactive)
REMARK    1  A    between atoms: C_1  and  N_2
REMARK    2  A    between atoms: C_7  and  C_8
REMARK    3  A    between atoms: N_10  and  C_11
REMARK    4  A    between atoms: C_15  and  C_16
REMARK                            x       y       z     vdW  Elec       q    Type
REMARK                         _______ _______ _______ _____ _____    ______ ____
ROOT
ATOM      1  C   UNL     1       2.815   6.856  18.682  0.00  0.00    +0.000 A 
ATOM      2  S   UNL     1       3.863   7.478  17.456  0.00  0.00    +0.000 S 
ATOM      3  C   UNL     1       4.304   5.932  17.025  0.00  0.00    +0.000 A 
ATOM      4  C   UNL     1       3.594   4.961  17.670  0.00  0.00    +0.000 A 
ATOM      5  C   UNL     1       2.678   5.467  18.644  0.00  0.00    +0.000 A 
ATOM      6  C   UNL     1       3.972   3.610  17.175  0.00  0.00    +0.000 C 
ATOM      7  C   UNL     1       5.311   3.901  16.430  0.00  0.00    +0.000 C 
ATOM      8  C   UNL     1       5.289   5.414  16.049  0.00  0.00    +0.000 C 
ENDROOT
BRANCH   5   9
ATOM      9  C   UNL     1       1.730   4.602  19.345  0.00  0.00    +0.000 C 
ATOM     10  N   UNL     1       1.674   4.675  20.701  0.00  0.00    +0.000 N 
ATOM     11  O   UNL     1       1.022   3.784  18.762  0.00  0.00    +0.000 OA
ATOM     12  H   UNL     1       2.516   4.978  21.184  0.00  0.00    +0.000 HD
ATOM     13  H   UNL     1       1.149   3.931  21.145  0.00  0.00    +0.000 HD
ENDBRANCH   5   9
BRANCH   1  16
ATOM     14  C   UNL     1       1.434   8.826  18.883  0.00  0.00    +0.000 C 
ATOM     15  O   UNL     1       1.128   8.847  17.692  0.00  0.00    +0.000 OA
ATOM     16  N   UNL     1       2.279   7.883  19.432  0.00  0.00    +0.000 N 
ATOM     17  H   UNL     1       2.137   7.672  20.414  0.00  0.00    +0.000 HD
BRANCH  14  24
ATOM     18  C   UNL     1       1.835  11.861  18.622  0.00  0.00    +0.000 C 
ATOM     19  N   UNL     1       1.118  11.169  19.673  0.00  0.00    +0.000 N 
ATOM     20  N   UNL     1       0.599  11.901  20.683  0.00  0.00    +0.000 NA
ATOM     21  C   UNL     1       0.017  10.990  21.462  0.00  0.00    +0.000 A 
ATOM     22  C   UNL     1       0.171   9.687  20.964  0.00  0.00    +0.000 A 
ATOM     23 CL   UNL     1      -0.480   8.297  21.688  0.00  0.00    +0.000 Cl
ATOM     24  C   UNL     1       0.921   9.810  19.808  0.00  0.00    +0.000 A 
ENDBRANCH  14  24
ENDBRANCH   1  16
TORSDOF 3
ENDMDL
MODEL 6
REMARK VINA RESULT:      -6.0      1.433      1.803
REMARK  Name = 
REMARK  4 active torsions:
REMARK  status: ('A' for Active; 'I' for Inactive)
REMARK    1  A    between atoms: C_1  and  N_2
REMARK    2  A    between atoms: C_7  and  C_8
REMARK    3  A    between atoms: N_10  and  C_11
REMARK    4  A    between atoms: C_15  and  C_16
REMARK                            x       y       z     vdW  Elec       q    Type
REMARK                         _______ _______ _______ _____ _____    ______ ____
ROOT
ATOM      1  C   UNL     1       5.126   4.809  16.302  0.00  0.00    +0.000 A 
ATOM      2  S   UNL     1       4.702   3.622  15.121  0.00  0.00    +0.000 S 
ATOM      3  C   UNL     1       5.963   4.111  14.151  0.00  0.00    +0.000 A 
ATOM      4  C   UNL     1       6.776   5.038  14.738  0.00  0.00    +0.000 A 
ATOM      5  C   UNL     1       6.331   5.460  16.028  0.00  0.00    +0.000 A 
ATOM      6  C   UNL     1       7.930   5.363  13.857  0.00  0.00    +0.000 C 
ATOM      7  C   UNL     1       7.459   4.796  12.482  0.00  0.00    +0.000 C 
ATOM      8  C   UNL     1       6.391   3.702  12.794  0.00  0.00    +0.000 C 
ENDROOT
BRANCH   5   9
ATOM      9  C   UNL     1       7.130   6.343  16.876  0.00  0.00    +0.000 C 
ATOM     10  N   UNL     1       7.857   5.786  17.881  0.00  0.00    +0.000 N 
ATOM     11  O   UNL     1       7.132   7.565  16.745  0.00  0.00    +0.000 OA
ATOM     12  H   UNL     1       7.520   4.906  18.264  0.00  0.00    +0.000 HD
ATOM     13  H   UNL     1       8.235   6.447  18.549  0.00  0.00    +0.000 HD
ENDBRANCH   5   9
BRANCH   1  16
ATOM     14  C   UNL     1       4.516   4.486  18.616  0.00  0.00    +0.000 C 
ATOM     15  O   UNL     1       5.630   4.087  18.951  0.00  0.00    +0.000 OA
ATOM     16  N   UNL     1       4.195   4.839  17.321  0.00  0.00    +0.000 N 
ATOM     17  H   UNL     1       3.460   5.530  17.213  0.00  0.00    +0.000 HD
BRANCH  14  24
ATOM     18  C   UNL     1       2.677   6.932  18.881  0.00  0.00    +0.000 C 
ATOM     19  N   UNL     1       2.632   5.725  19.680  0.00  0.00    +0.000 N 
ATOM     20  N   UNL     1       1.731   5.653  20.682  0.00  0.00    +0.000 NA
ATOM     21  C   UNL     1       1.941   4.446  21.206  0.00  0.00    +0.000 A 
ATOM     22  C   UNL     1       2.974   3.755  20.554  0.00  0.00    +0.000 A 
ATOM     23 CL   UNL     1       3.472   2.179  20.941  0.00  0.00    +0.000 Cl
ATOM     24  C   UNL     1       3.443   4.613  19.575  0.00  0.00    +0.000 A 
ENDBRANCH  14  24
ENDBRANCH   1  16
TORSDOF 3
ENDMDL
MODEL 7
REMARK VINA RESULT:      -5.9      2.893      6.891
REMARK  Name = 
REMARK  4 active torsions:
REMARK  status: ('A' for Active; 'I' for Inactive)
REMARK    1  A    between atoms: C_1  and  N_2
REMARK    2  A    between atoms: C_7  and  C_8
REMARK    3  A    between atoms: N_10  and  C_11
REMARK    4  A    between atoms: C_15  and  C_16
REMARK                            x       y       z     vdW  Elec       q    Type
REMARK                         _______ _______ _______ _____ _____    ______ ____
ROOT
ATOM      1  C   UNL     1       4.412   3.983  18.514  0.00  0.00    +0.000 A 
ATOM      2  S   UNL     1       3.625   5.447  18.987  0.00  0.00    +0.000 S 
ATOM      3  C   UNL     1       2.620   4.597  20.005  0.00  0.00    +0.000 A 
ATOM      4  C   UNL     1       2.939   3.274  20.111  0.00  0.00    +0.000 A 
ATOM      5  C   UNL     1       4.017   2.872  19.262  0.00  0.00    +0.000 A 
ATOM      6  C   UNL     1       2.063   2.594  21.102  0.00  0.00    +0.000 C 
ATOM      7  C   UNL     1       0.901   3.623  21.267  0.00  0.00    +0.000 C 
ATOM      8  C   UNL     1       1.473   5.012  20.846  0.00  0.00    +0.000 C 
ENDROOT
BRANCH   5   9
ATOM      9  C   UNL     1       4.598   1.532  19.324  0.00  0.00    +0.000 C 
ATOM     10  N   UNL     1       4.249   0.634  18.366  0.00  0.00    +0.000 N 
ATOM     11  O   UNL     1       5.348   1.176  20.231  0.00  0.00    +0.000 OA
ATOM     12  H   UNL     1       3.343   0.758  17.922  0.00  0.00    +0.000 HD
ATOM     13  H   UNL     1       4.524  -0.322  18.558  0.00  0.00    +0.000 HD
ENDBRANCH   5   9
BRANCH   1  16
ATOM     14  C   UNL     1       4.959   4.224  16.174  0.00  0.00    +0.000 C 
ATOM     15  O   UNL     1       3.818   3.977  15.787  0.00  0.00    +0.000 OA
ATOM     16  N   UNL     1       5.324   4.223  17.506  0.00  0.00    +0.000 N 
ATOM     17  H   UNL     1       6.098   4.827  17.758  0.00  0.00    +0.000 HD
BRANCH  14  24
ATOM     18  C   UNL     1       7.382   6.005  16.802  0.00  0.00    +0.000 C 
ATOM     19  N   UNL     1       7.096   5.343  15.546  0.00  0.00    +0.000 N 
ATOM     20  N   UNL     1       7.936   5.546  14.509  0.00  0.00    +0.000 NA
ATOM     21  C   UNL     1       7.407   4.815  13.529  0.00  0.00    +0.000 A 
ATOM     22  C   UNL     1       6.233   4.159  13.929  0.00  0.00    +0.000 A 
ATOM     23 CL   UNL     1       5.328   3.116  12.942  0.00  0.00    +0.000 Cl
ATOM     24  C   UNL     1       6.018   4.536  15.243  0.00  0.00    +0.000 A 
ENDBRANCH  14  24
ENDBRANCH   1  16
TORSDOF 3
ENDMDL
MODEL 8
REMARK VINA RESULT:      -5.9      1.105      1.114
REMARK  Name = 
REMARK  4 active torsions:
REMARK  status: ('A' for Active; 'I' for Inactive)
REMARK    1  A    between atoms: C_1  and  N_2
REMARK    2  A    between atoms: C_7  and  C_8
REMARK    3  A    between atoms: N_10  and  C_11
REMARK    4  A    between atoms: C_15  and  C_16
REMARK                            x       y       z     vdW  Elec       q    Type
REMARK                         _______ _______ _______ _____ _____    ______ ____
ROOT
ATOM      1  C   UNL     1       5.754   4.320  16.929  0.00  0.00    +0.000 A 
ATOM      2  S   UNL     1       5.352   3.106  15.767  0.00  0.00    +0.000 S 
ATOM      3  C   UNL     1       6.224   3.910  14.600  0.00  0.00    +0.000 A 
ATOM      4  C   UNL     1       6.920   4.982  15.079  0.00  0.00    +0.000 A 
ATOM      5  C   UNL     1       6.692   5.245  16.465  0.00  0.00    +0.000 A 
ATOM      6  C   UNL     1       7.747   5.598  14.006  0.00  0.00    +0.000 C 
ATOM      7  C   UNL     1       7.119   4.983  12.718  0.00  0.00    +0.000 C 
ATOM      8  C   UNL     1       6.417   3.659  13.153  0.00  0.00    +0.000 C 
ENDROOT
BRANCH   5   9
ATOM      9  C   UNL     1       7.444   6.262  17.198  0.00  0.00    +0.000 C 
ATOM     10  N   UNL     1       7.773   6.011  18.492  0.00  0.00    +0.000 N 
ATOM     11  O   UNL     1       7.745   7.347  16.705  0.00  0.00    +0.000 OA
ATOM     12  H   UNL     1       7.171   5.374  19.009  0.00  0.00    +0.000 HD
ATOM     13  H   UNL     1       8.120   6.812  19.006  0.00  0.00    +0.000 HD
ENDBRANCH   5   9
BRANCH   1  16
ATOM     14  C   UNL     1       3.763   4.431  18.290  0.00  0.00    +0.000 C 
ATOM     15  O   UNL     1       3.088   4.981  17.421  0.00  0.00    +0.000 OA
ATOM     16  N   UNL     1       5.091   4.096  18.119  0.00  0.00    +0.000 N 
ATOM     17  H   UNL     1       5.427   3.306  18.658  0.00  0.00    +0.000 HD
BRANCH  14  24
ATOM     18  C   UNL     1       4.082   1.714  19.687  0.00  0.00    +0.000 C 
ATOM     19  N   UNL     1       3.353   2.863  20.183  0.00  0.00    +0.000 N 
ATOM     20  N   UNL     1       2.696   2.746  21.357  0.00  0.00    +0.000 NA
ATOM     21  C   UNL     1       2.145   3.947  21.528  0.00  0.00    +0.000 A 
ATOM     22  C   UNL     1       2.434   4.821  20.470  0.00  0.00    +0.000 A 
ATOM     23 CL   UNL     1       1.923   6.437  20.388  0.00  0.00    +0.000 Cl
ATOM     24  C   UNL     1       3.201   4.093  19.577  0.00  0.00    +0.000 A 
ENDBRANCH  14  24
ENDBRANCH   1  16
TORSDOF 3
ENDMDL
MODEL 9
REMARK VINA RESULT:      -5.8      2.571      3.203
REMARK  Name = 
REMARK  4 active torsions:
REMARK  status: ('A' for Active; 'I' for Inactive)
REMARK    1  A    between atoms: C_1  and  N_2
REMARK    2  A    between atoms: C_7  and  C_8
REMARK    3  A    between atoms: N_10  and  C_11
REMARK    4  A    between atoms: C_15  and  C_16
REMARK                            x       y       z     vdW  Elec       q    Type
REMARK                         _______ _______ _______ _____ _____    ______ ____
ROOT
ATOM      1  C   UNL     1       4.798   5.825  17.385  0.00  0.00    +0.000 A 
ATOM      2  S   UNL     1       4.064   4.490  16.569  0.00  0.00    +0.000 S 
ATOM      3  C   UNL     1       5.333   4.428  15.494  0.00  0.00    +0.000 A 
ATOM      4  C   UNL     1       6.354   5.279  15.803  0.00  0.00    +0.000 A 
ATOM      5  C   UNL     1       6.090   6.109  16.937  0.00  0.00    +0.000 A 
ATOM      6  C   UNL     1       7.491   5.109  14.859  0.00  0.00    +0.000 C 
ATOM      7  C   UNL     1       6.826   4.317  13.690  0.00  0.00    +0.000 C 
ATOM      8  C   UNL     1       5.580   3.598  14.293  0.00  0.00    +0.000 C 
ENDROOT
BRANCH   5   9
ATOM      9  C   UNL     1       7.105   6.990  17.510  0.00  0.00    +0.000 C 
ATOM     10  N   UNL     1       7.807   6.548  18.587  0.00  0.00    +0.000 N 
ATOM     11  O   UNL     1       7.313   8.126  17.088  0.00  0.00    +0.000 OA
ATOM     12  H   UNL     1       7.355   5.862  19.186  0.00  0.00    +0.000 HD
ATOM     13  H   UNL     1       8.355   7.258  19.058  0.00  0.00    +0.000 HD
ENDBRANCH   5   9
BRANCH   1  16
ATOM     14  C   UNL     1       3.049   7.323  18.110  0.00  0.00    +0.000 C 
ATOM     15  O   UNL     1       2.940   7.875  17.017  0.00  0.00    +0.000 OA
ATOM     16  N   UNL     1       3.960   6.318  18.365  0.00  0.00    +0.000 N 
ATOM     17  H   UNL     1       3.706   5.655  19.089  0.00  0.00    +0.000 HD
BRANCH  14  24
ATOM     18  C   UNL     1       1.655  10.042  18.428  0.00  0.00    +0.000 C 
ATOM     19  N   UNL     1       1.601   8.928  19.352  0.00  0.00    +0.000 N 
ATOM     20  N   UNL     1       0.913   9.084  20.503  0.00  0.00    +0.000 NA
ATOM     21  C   UNL     1       1.053   7.908  21.113  0.00  0.00    +0.000 A 
ATOM     22  C   UNL     1       1.832   7.010  20.366  0.00  0.00    +0.000 A 
ATOM     23 CL   UNL     1       2.173   5.414  20.831  0.00  0.00    +0.000 Cl
ATOM     24  C   UNL     1       2.214   7.698  19.228  0.00  0.00    +0.000 A 
ENDBRANCH  14  24
ENDBRANCH   1  16
TORSDOF 3
ENDMDL
