MODEL 1
REMARK VINA RESULT:      -7.1      0.000      0.000
REMARK  Name = 
REMARK  8 active torsions:
REMARK  status: ('A' for Active; 'I' for Inactive)
REMARK    1  A    between atoms: C_1  and  N_2
REMARK    2  A    between atoms: N_2  and  C_3
REMARK    3  A    between atoms: N_2  and  C_4
REMARK    4  A    between atoms: C_7  and  N_8
REMARK    5  A    between atoms: N_11  and  C_12
REMARK    6  A    between atoms: C_12  and  C_13
REMARK    7  A    between atoms: C_13  and  O_14
REMARK    8  A    between atoms: C_13  and  C_15
REMARK                            x       y       z     vdW  Elec       q    Type
REMARK                         _______ _______ _______ _____ _____    ______ ____
ROOT
ATOM      1  N   UNL     1       3.496   6.239  19.103  0.00  0.00    +0.000 N 
ATOM      2  C   UNL     1       3.356   5.132  18.301  0.00  0.00    +0.000 C 
ATOM      3  O   UNL     1       2.552   5.006  17.385  0.00  0.00    +0.000 OA
ATOM      4  N   UNL     1       4.260   4.135  18.595  0.00  0.00    +0.000 N 
ATOM      5  H   UNL     1       4.395   6.347  19.547  0.00  0.00    +0.000 HD
ATOM      6  H   UNL     1       4.484   4.033  19.577  0.00  0.00    +0.000 HD
ENDROOT
BRANCH   1  10
ATOM      7  C   UNL     1       0.872   9.646  19.087  0.00  0.00    +0.000 A 
ATOM      8  C   UNL     1       1.655   9.295  17.971  0.00  0.00    +0.000 A 
ATOM      9  C   UNL     1       2.512   8.187  17.957  0.00  0.00    +0.000 A 
ATOM     10  C   UNL     1       2.636   7.366  19.071  0.00  0.00    +0.000 A 
ATOM     11  C   UNL     1       1.866   7.667  20.191  0.00  0.00    +0.000 A 
ATOM     12  C   UNL     1       1.010   8.792  20.208  0.00  0.00    +0.000 A 
ATOM     13 CL   UNL     1       0.094   8.975  21.671  0.00  0.00    +0.000 Cl
BRANCH   7  15
ATOM     14  C   UNL     1       0.483  12.104  19.333  0.00  0.00    +0.000 C 
ATOM     15  N   UNL     1       0.037  10.759  18.998  0.00  0.00    +0.000 N 
ATOM     16  C   UNL     1      -1.309  10.621  18.449  0.00  0.00    +0.000 C 
ENDBRANCH   7  15
ENDBRANCH   1  10
BRANCH   4  17
ATOM     17  C   UNL     1       4.129   2.900  17.833  0.00  0.00    +0.000 C 
BRANCH  17  18
ATOM     18  C   UNL     1       3.049   1.926  18.325  0.00  0.00    +0.000 C 
BRANCH  18  19
ATOM     19  C   UNL     1       2.438   2.342  19.620  0.00  0.00    +0.000 A 
ATOM     20  C   UNL     1       1.156   2.686  19.994  0.00  0.00    +0.000 A 
ATOM     21  C   UNL     1       1.211   2.984  21.377  0.00  0.00    +0.000 A 
ATOM     22  C   UNL     1       2.520   2.811  21.756  0.00  0.00    +0.000 A 
ATOM     23  O   UNL     1       3.277   2.422  20.698  0.00  0.00    +0.000 OA
ENDBRANCH  18  19
BRANCH  18  24
ATOM     24  O   UNL     1       2.014   1.811  17.341  0.00  0.00    +0.000 OA
ATOM     25  H   UNL     1       1.199   2.134  17.767  0.00  0.00    +0.000 HD
ENDBRANCH  18  24
ENDBRANCH  17  18
ENDBRANCH   4  17
TORSDOF 6
ENDMDL
MODEL 2
REMARK VINA RESULT:      -7.1      0.786      1.080
REMARK  Name = 
REMARK  8 active torsions:
REMARK  status: ('A' for Active; 'I' for Inactive)
REMARK    1  A    between atoms: C_1  and  N_2
REMARK    2  A    between atoms: N_2  and  C_3
REMARK    3  A    between atoms: N_2  and  C_4
REMARK    4  A    between atoms: C_7  and  N_8
REMARK    5  A    between atoms: N_11  and  C_12
REMARK    6  A    between atoms: C_12  and  C_13
REMARK    7  A    between atoms: C_13  and  O_14
REMARK    8  A    between atoms: C_13  and  C_15
REMARK                            x       y       z     vdW  Elec       q    Type
REMARK                         _______ _______ _______ _____ _____    ______ ____
ROOT
ATOM      1  N   UNL     1       3.514   6.675  18.314  0.00  0.00    +0.000 N 
ATOM      2  C   UNL     1       3.154   5.396  17.966  0.00  0.00    +0.000 C 
ATOM      3  O   UNL     1       2.015   5.006  17.744  0.00  0.00    +0.000 OA
ATOM      4  N   UNL     1       4.233   4.548  17.841  0.00  0.00    +0.000 N 
ATOM      5  H   UNL     1       4.469   6.933  18.112  0.00  0.00    +0.000 HD
ATOM      6  H   UNL     1       4.986   4.708  18.498  0.00  0.00    +0.000 HD
ENDROOT
BRANCH   1  10
ATOM      7  C   UNL     1       0.726   9.813  19.248  0.00  0.00    +0.000 A 
ATOM      8  C   UNL     1       1.329   9.695  17.982  0.00  0.00    +0.000 A 
ATOM      9  C   UNL     1       2.236   8.678  17.659  0.00  0.00    +0.000 A 
ATOM     10  C   UNL     1       2.596   7.717  18.596  0.00  0.00    +0.000 A 
ATOM     11  C   UNL     1       2.009   7.786  19.856  0.00  0.00    +0.000 A 
ATOM     12  C   UNL     1       1.102   8.820  20.185  0.00  0.00    +0.000 A 
ATOM     13 CL   UNL     1       0.437   8.711  21.785  0.00  0.00    +0.000 Cl
BRANCH   7  15
ATOM     14  C   UNL     1      -1.542  10.828  18.961  0.00  0.00    +0.000 C 
ATOM     15  N   UNL     1      -0.177  10.852  19.468  0.00  0.00    +0.000 N 
ATOM     16  C   UNL     1       0.195  11.972  20.329  0.00  0.00    +0.000 C 
ENDBRANCH   7  15
ENDBRANCH   1  10
BRANCH   4  17
ATOM     17  C   UNL     1       3.927   3.155  17.541  0.00  0.00    +0.000 C 
BRANCH  17  18
ATOM     18  C   UNL     1       3.954   2.195  18.739  0.00  0.00    +0.000 C 
BRANCH  18  19
ATOM     19  C   UNL     1       2.917   2.511  19.761  0.00  0.00    +0.000 A 
ATOM     20  C   UNL     1       1.580   2.191  19.884  0.00  0.00    +0.000 A 
ATOM     21  C   UNL     1       1.136   2.791  21.086  0.00  0.00    +0.000 A 
ATOM     22  C   UNL     1       2.223   3.443  21.616  0.00  0.00    +0.000 A 
ATOM     23  O   UNL     1       3.311   3.283  20.820  0.00  0.00    +0.000 OA
ENDBRANCH  18  19
BRANCH  18  24
ATOM     24  O   UNL     1       3.762   0.849  18.286  0.00  0.00    +0.000 OA
ATOM     25  H   UNL     1       3.052   0.476  18.840  0.00  0.00    +0.000 HD
ENDBRANCH  18  24
ENDBRANCH  17  18
ENDBRANCH   4  17
TORSDOF 6
ENDMDL
MODEL 3
REMARK VINA RESULT:      -7.0      7.133      8.156
REMARK  Name = 
REMARK  8 active torsions:
REMARK  status: ('A' for Active; 'I' for Inactive)
REMARK    1  A    between atoms: C_1  and  N_2
REMARK    2  A    between atoms: N_2  and  C_3
REMARK    3  A    between atoms: N_2  and  C_4
REMARK    4  A    between atoms: C_7  and  N_8
REMARK    5  A    between atoms: N_11  and  C_12
REMARK    6  A    between atoms: C_12  and  C_13
REMARK    7  A    between atoms: C_13  and  O_14
REMARK    8  A    between atoms: C_13  and  C_15
REMARK                            x       y       z     vdW  Elec       q    Type
REMARK                         _______ _______ _______ _____ _____    ______ ____
ROOT
ATOM      1  N   UNL     1       8.988   8.754  18.974  0.00  0.00    +0.000 N 
ATOM      2  C   UNL     1       8.013   8.252  18.147  0.00  0.00    +0.000 C 
ATOM      3  O   UNL     1       7.373   8.892  17.321  0.00  0.00    +0.000 OA
ATOM      4  N   UNL     1       7.825   6.895  18.297  0.00  0.00    +0.000 N 
ATOM      5  H   UNL     1       9.658   8.083  19.320  0.00  0.00    +0.000 HD
ATOM      6  H   UNL     1       7.924   6.548  19.243  0.00  0.00    +0.000 HD
ENDROOT
BRANCH   1  10
ATOM      7  C   UNL     1       9.977  12.918  19.395  0.00  0.00    +0.000 A 
ATOM      8  C   UNL     1       9.994  12.264  18.149  0.00  0.00    +0.000 A 
ATOM      9  C   UNL     1       9.671  10.909  17.993  0.00  0.00    +0.000 A 
ATOM     10  C   UNL     1       9.316  10.129  19.086  0.00  0.00    +0.000 A 
ATOM     11  C   UNL     1       9.269  10.740  20.335  0.00  0.00    +0.000 A 
ATOM     12  C   UNL     1       9.606  12.105  20.494  0.00  0.00    +0.000 A 
ATOM     13 CL   UNL     1       9.439  12.702  22.115  0.00  0.00    +0.000 Cl
BRANCH   7  15
ATOM     14  C   UNL     1      11.624  14.753  19.812  0.00  0.00    +0.000 C 
ATOM     15  N   UNL     1      10.299  14.273  19.446  0.00  0.00    +0.000 N 
ATOM     16  C   UNL     1       9.324  15.272  19.017  0.00  0.00    +0.000 C 
ENDBRANCH   7  15
ENDBRANCH   1  10
BRANCH   4  17
ATOM     17  C   UNL     1       6.757   6.301  17.502  0.00  0.00    +0.000 C 
BRANCH  17  18
ATOM     18  C   UNL     1       6.942   4.821  17.140  0.00  0.00    +0.000 C 
BRANCH  18  19
ATOM     19  C   UNL     1       6.771   4.553  15.684  0.00  0.00    +0.000 A 
ATOM     20  C   UNL     1       5.940   3.717  14.966  0.00  0.00    +0.000 A 
ATOM     21  C   UNL     1       6.255   3.918  13.601  0.00  0.00    +0.000 A 
ATOM     22  C   UNL     1       7.259   4.855  13.572  0.00  0.00    +0.000 A 
ATOM     23  O   UNL     1       7.583   5.249  14.830  0.00  0.00    +0.000 OA
ENDBRANCH  18  19
BRANCH  18  24
ATOM     24  O   UNL     1       8.247   4.383  17.541  0.00  0.00    +0.000 OA
ATOM     25  H   UNL     1       8.821   4.497  16.762  0.00  0.00    +0.000 HD
ENDBRANCH  18  24
ENDBRANCH  17  18
ENDBRANCH   4  17
TORSDOF 6
ENDMDL
MODEL 4
REMARK VINA RESULT:      -6.9      1.629      2.852
REMARK  Name = 
REMARK  8 active torsions:
REMARK  status: ('A' for Active; 'I' for Inactive)
REMARK    1  A    between atoms: C_1  and  N_2
REMARK    2  A    between atoms: N_2  and  C_3
REMARK    3  A    between atoms: N_2  and  C_4
REMARK    4  A    between atoms: C_7  and  N_8
REMARK    5  A    between atoms: N_11  and  C_12
REMARK    6  A    between atoms: C_12  and  C_13
REMARK    7  A    between atoms: C_13  and  O_14
REMARK    8  A    between atoms: C_13  and  C_15
REMARK                            x       y       z     vdW  Elec       q    Type
REMARK                         _______ _______ _______ _____ _____    ______ ____
ROOT
ATOM      1  N   UNL     1       2.719   6.786  20.245  0.00  0.00    +0.000 N 
ATOM      2  C   UNL     1       2.456   5.483  19.896  0.00  0.00    +0.000 C 
ATOM      3  O   UNL     1       1.612   5.112  19.089  0.00  0.00    +0.000 OA
ATOM      4  N   UNL     1       3.281   4.578  20.528  0.00  0.00    +0.000 N 
ATOM      5  H   UNL     1       3.640   6.962  20.618  0.00  0.00    +0.000 HD
ATOM      6  H   UNL     1       3.530   4.815  21.481  0.00  0.00    +0.000 HD
ENDROOT
BRANCH   1  10
ATOM      7  C   UNL     1       0.393  10.184  19.007  0.00  0.00    +0.000 A 
ATOM      8  C   UNL     1       1.208   9.465  18.113  0.00  0.00    +0.000 A 
ATOM      9  C   UNL     1       1.969   8.353  18.498  0.00  0.00    +0.000 A 
ATOM     10  C   UNL     1       1.960   7.901  19.811  0.00  0.00    +0.000 A 
ATOM     11  C   UNL     1       1.153   8.572  20.725  0.00  0.00    +0.000 A 
ATOM     12  C   UNL     1       0.394   9.701  20.339  0.00  0.00    +0.000 A 
ATOM     13 CL   UNL     1      -0.589  10.373  21.603  0.00  0.00    +0.000 Cl
BRANCH   7  15
ATOM     14  C   UNL     1      -1.672  11.124  17.955  0.00  0.00    +0.000 C 
ATOM     15  N   UNL     1      -0.340  11.268  18.525  0.00  0.00    +0.000 N 
ATOM     16  C   UNL     1       0.174  12.625  18.685  0.00  0.00    +0.000 C 
ENDBRANCH   7  15
ENDBRANCH   1  10
BRANCH   4  17
ATOM     17  C   UNL     1       3.016   3.170  20.263  0.00  0.00    +0.000 C 
BRANCH  17  18
ATOM     18  C   UNL     1       4.012   2.471  19.326  0.00  0.00    +0.000 C 
BRANCH  18  19
ATOM     19  C   UNL     1       4.662   3.408  18.366  0.00  0.00    +0.000 A 
ATOM     20  C   UNL     1       4.390   3.767  17.062  0.00  0.00    +0.000 A 
ATOM     21  C   UNL     1       5.378   4.713  16.695  0.00  0.00    +0.000 A 
ATOM     22  C   UNL     1       6.191   4.865  17.792  0.00  0.00    +0.000 A 
ATOM     23  O   UNL     1       5.769   4.078  18.814  0.00  0.00    +0.000 OA
ENDBRANCH  18  19
BRANCH  18  24
ATOM     24  O   UNL     1       5.028   1.819  20.097  0.00  0.00    +0.000 OA
ATOM     25  H   UNL     1       4.990   2.218  20.986  0.00  0.00    +0.000 HD
ENDBRANCH  18  24
ENDBRANCH  17  18
ENDBRANCH   4  17
TORSDOF 6
ENDMDL
MODEL 5
REMARK VINA RESULT:      -6.7      7.539      8.573
REMARK  Name = 
REMARK  8 active torsions:
REMARK  status: ('A' for Active; 'I' for Inactive)
REMARK    1  A    between atoms: C_1  and  N_2
REMARK    2  A    between atoms: N_2  and  C_3
REMARK    3  A    between atoms: N_2  and  C_4
REMARK    4  A    between atoms: C_7  and  N_8
REMARK    5  A    between atoms: N_11  and  C_12
REMARK    6  A    between atoms: C_12  and  C_13
REMARK    7  A    between atoms: C_13  and  O_14
REMARK    8  A    between atoms: C_13  and  C_15
REMARK                            x       y       z     vdW  Elec       q    Type
REMARK                         _______ _______ _______ _____ _____    ______ ____
ROOT
ATOM      1  N   UNL     1       9.186   9.147  19.064  0.00  0.00    +0.000 N 
ATOM      2  C   UNL     1       8.192   8.720  18.217  0.00  0.00    +0.000 C 
ATOM      3  O   UNL     1       7.564   9.423  17.435  0.00  0.00    +0.000 OA
ATOM      4  N   UNL     1       7.967   7.362  18.290  0.00  0.00    +0.000 N 
ATOM      5  H   UNL     1       9.839   8.439  19.365  0.00  0.00    +0.000 HD
ATOM      6  H   UNL     1       8.064   6.959  19.213  0.00  0.00    +0.000 HD
ENDROOT
BRANCH   1  10
ATOM      7  C   UNL     1      10.301  13.271  19.554  0.00  0.00    +0.000 A 
ATOM      8  C   UNL     1       9.886  12.471  20.635  0.00  0.00    +0.000 A 
ATOM      9  C   UNL     1       9.523  11.125  20.494  0.00  0.00    +0.000 A 
ATOM     10  C   UNL     1       9.551  10.503  19.252  0.00  0.00    +0.000 A 
ATOM     11  C   UNL     1       9.972  11.253  18.158  0.00  0.00    +0.000 A 
ATOM     12  C   UNL     1      10.327  12.615  18.298  0.00  0.00    +0.000 A 
ATOM     13 CL   UNL     1      10.875  13.370  16.834  0.00  0.00    +0.000 Cl
BRANCH   7  15
ATOM     14  C   UNL     1      12.043  15.037  19.871  0.00  0.00    +0.000 C 
ATOM     15  N   UNL     1      10.657  14.597  19.796  0.00  0.00    +0.000 N 
ATOM     16  C   UNL     1       9.626  15.628  19.875  0.00  0.00    +0.000 C 
ENDBRANCH   7  15
ENDBRANCH   1  10
BRANCH   4  17
ATOM     17  C   UNL     1       6.879   6.844  17.471  0.00  0.00    +0.000 C 
BRANCH  17  18
ATOM     18  C   UNL     1       6.763   5.314  17.409  0.00  0.00    +0.000 C 
BRANCH  18  19
ATOM     19  C   UNL     1       6.636   4.797  16.017  0.00  0.00    +0.000 A 
ATOM     20  C   UNL     1       5.894   3.782  15.448  0.00  0.00    +0.000 A 
ATOM     21  C   UNL     1       6.208   3.785  14.068  0.00  0.00    +0.000 A 
ATOM     22  C   UNL     1       7.123   4.793  13.883  0.00  0.00    +0.000 A 
ATOM     23  O   UNL     1       7.393   5.415  15.059  0.00  0.00    +0.000 OA
ENDBRANCH  18  19
BRANCH  18  24
ATOM     24  O   UNL     1       7.912   4.716  18.022  0.00  0.00    +0.000 OA
ATOM     25  H   UNL     1       8.681   5.230  17.714  0.00  0.00    +0.000 HD
ENDBRANCH  18  24
ENDBRANCH  17  18
ENDBRANCH   4  17
TORSDOF 6
ENDMDL
MODEL 6
REMARK VINA RESULT:      -6.6      6.612      7.280
REMARK  Name = 
REMARK  8 active torsions:
REMARK  status: ('A' for Active; 'I' for Inactive)
REMARK    1  A    between atoms: C_1  and  N_2
REMARK    2  A    between atoms: N_2  and  C_3
REMARK    3  A    between atoms: N_2  and  C_4
REMARK    4  A    between atoms: C_7  and  N_8
REMARK    5  A    between atoms: N_11  and  C_12
REMARK    6  A    between atoms: C_12  and  C_13
REMARK    7  A    between atoms: C_13  and  O_14
REMARK    8  A    between atoms: C_13  and  C_15
REMARK                            x       y       z     vdW  Elec       q    Type
REMARK                         _______ _______ _______ _____ _____    ______ ____
ROOT
ATOM      1  N   UNL     1       9.031   8.806  19.207  0.00  0.00    +0.000 N 
ATOM      2  C   UNL     1       8.216   8.051  18.400  0.00  0.00    +0.000 C 
ATOM      3  O   UNL     1       7.599   8.455  17.422  0.00  0.00    +0.000 OA
ATOM      4  N   UNL     1       8.171   6.724  18.769  0.00  0.00    +0.000 N 
ATOM      5  H   UNL     1       9.732   8.296  19.723  0.00  0.00    +0.000 HD
ATOM      6  H   UNL     1       8.207   6.553  19.767  0.00  0.00    +0.000 HD
ENDROOT
BRANCH   1  10
ATOM      7  C   UNL     1       9.506  13.074  18.971  0.00  0.00    +0.000 A 
ATOM      8  C   UNL     1       9.311  12.275  17.829  0.00  0.00    +0.000 A 
ATOM      9  C   UNL     1       9.151  10.884  17.888  0.00  0.00    +0.000 A 
ATOM     10  C   UNL     1       9.182  10.212  19.103  0.00  0.00    +0.000 A 
ATOM     11  C   UNL     1       9.355  10.966  20.260  0.00  0.00    +0.000 A 
ATOM     12  C   UNL     1       9.529  12.368  20.199  0.00  0.00    +0.000 A 
ATOM     13 CL   UNL     1       9.679  13.141  21.747  0.00  0.00    +0.000 Cl
BRANCH   7  15
ATOM     14  C   UNL     1       8.496  15.344  18.690  0.00  0.00    +0.000 C 
ATOM     15  N   UNL     1       9.640  14.452  18.813  0.00  0.00    +0.000 N 
ATOM     16  C   UNL     1      10.962  15.069  18.878  0.00  0.00    +0.000 C 
ENDBRANCH   7  15
ENDBRANCH   1  10
BRANCH   4  17
ATOM     17  C   UNL     1       7.272   5.871  18.002  0.00  0.00    +0.000 C 
BRANCH  17  18
ATOM     18  C   UNL     1       6.176   5.162  18.811  0.00  0.00    +0.000 C 
BRANCH  18  19
ATOM     19  C   UNL     1       4.835   5.789  18.646  0.00  0.00    +0.000 A 
ATOM     20  C   UNL     1       4.269   6.568  17.657  0.00  0.00    +0.000 A 
ATOM     21  C   UNL     1       2.949   6.854  18.081  0.00  0.00    +0.000 A 
ATOM     22  C   UNL     1       2.795   6.239  19.300  0.00  0.00    +0.000 A 
ATOM     23  O   UNL     1       3.933   5.590  19.656  0.00  0.00    +0.000 OA
ENDBRANCH  18  19
BRANCH  18  24
ATOM     24  O   UNL     1       6.096   3.786  18.416  0.00  0.00    +0.000 OA
ATOM     25  H   UNL     1       5.147   3.588  18.319  0.00  0.00    +0.000 HD
ENDBRANCH  18  24
ENDBRANCH  17  18
ENDBRANCH   4  17
TORSDOF 6
ENDMDL
MODEL 7
REMARK VINA RESULT:      -6.6      7.279      7.941
REMARK  Name = 
REMARK  8 active torsions:
REMARK  status: ('A' for Active; 'I' for Inactive)
REMARK    1  A    between atoms: C_1  and  N_2
REMARK    2  A    between atoms: N_2  and  C_3
REMARK    3  A    between atoms: N_2  and  C_4
REMARK    4  A    between atoms: C_7  and  N_8
REMARK    5  A    between atoms: N_11  and  C_12
REMARK    6  A    between atoms: C_12  and  C_13
REMARK    7  A    between atoms: C_13  and  O_14
REMARK    8  A    between atoms: C_13  and  C_15
REMARK                            x       y       z     vdW  Elec       q    Type
REMARK                         _______ _______ _______ _____ _____    ______ ____
ROOT
ATOM      1  N   UNL     1       9.310   9.273  19.277  0.00  0.00    +0.000 N 
ATOM      2  C   UNL     1       8.402   8.656  18.451  0.00  0.00    +0.000 C 
ATOM      3  O   UNL     1       7.743   9.201  17.573  0.00  0.00    +0.000 OA
ATOM      4  N   UNL     1       8.311   7.298  18.668  0.00  0.00    +0.000 N 
ATOM      5  H   UNL     1      10.016   8.673  19.678  0.00  0.00    +0.000 HD
ATOM      6  H   UNL     1       8.405   7.009  19.634  0.00  0.00    +0.000 HD
ENDROOT
BRANCH   1  10
ATOM      7  C   UNL     1      10.000  13.517  19.338  0.00  0.00    +0.000 A 
ATOM      8  C   UNL     1       9.441  12.830  20.432  0.00  0.00    +0.000 A 
ATOM      9  C   UNL     1       9.213  11.447  20.431  0.00  0.00    +0.000 A 
ATOM     10  C   UNL     1       9.530  10.672  19.323  0.00  0.00    +0.000 A 
ATOM     11  C   UNL     1      10.101  11.308  18.225  0.00  0.00    +0.000 A 
ATOM     12  C   UNL     1      10.320  12.706  18.222  0.00  0.00    +0.000 A 
ATOM     13 CL   UNL     1      11.087  13.309  16.787  0.00  0.00    +0.000 Cl
BRANCH   7  15
ATOM     14  C   UNL     1      11.486  15.471  19.813  0.00  0.00    +0.000 C 
ATOM     15  N   UNL     1      10.203  14.892  19.440  0.00  0.00    +0.000 N 
ATOM     16  C   UNL     1       9.139  15.817  19.060  0.00  0.00    +0.000 C 
ENDBRANCH   7  15
ENDBRANCH   1  10
BRANCH   4  17
ATOM     17  C   UNL     1       7.317   6.584  17.877  0.00  0.00    +0.000 C 
BRANCH  17  18
ATOM     18  C   UNL     1       7.265   5.064  18.088  0.00  0.00    +0.000 C 
BRANCH  18  19
ATOM     19  C   UNL     1       5.876   4.525  18.091  0.00  0.00    +0.000 A 
ATOM     20  C   UNL     1       4.958   4.280  19.092  0.00  0.00    +0.000 A 
ATOM     21  C   UNL     1       3.804   3.763  18.456  0.00  0.00    +0.000 A 
ATOM     22  C   UNL     1       4.091   3.719  17.114  0.00  0.00    +0.000 A 
ATOM     23  O   UNL     1       5.347   4.177  16.878  0.00  0.00    +0.000 OA
ENDBRANCH  18  19
BRANCH  18  24
ATOM     24  O   UNL     1       8.015   4.406  17.059  0.00  0.00    +0.000 OA
ATOM     25  H   UNL     1       7.797   3.458  17.131  0.00  0.00    +0.000 HD
ENDBRANCH  18  24
ENDBRANCH  17  18
ENDBRANCH   4  17
TORSDOF 6
ENDMDL
MODEL 8
REMARK VINA RESULT:      -6.6      2.401      3.568
REMARK  Name = 
REMARK  8 active torsions:
REMARK  status: ('A' for Active; 'I' for Inactive)
REMARK    1  A    between atoms: C_1  and  N_2
REMARK    2  A    between atoms: N_2  and  C_3
REMARK    3  A    between atoms: N_2  and  C_4
REMARK    4  A    between atoms: C_7  and  N_8
REMARK    5  A    between atoms: N_11  and  C_12
REMARK    6  A    between atoms: C_12  and  C_13
REMARK    7  A    between atoms: C_13  and  O_14
REMARK    8  A    between atoms: C_13  and  C_15
REMARK                            x       y       z     vdW  Elec       q    Type
REMARK                         _______ _______ _______ _____ _____    ______ ____
ROOT
ATOM      1  N   UNL     1       2.287   7.177  20.451  0.00  0.00    +0.000 N 
ATOM      2  C   UNL     1       2.570   6.445  19.323  0.00  0.00    +0.000 C 
ATOM      3  O   UNL     1       2.282   6.757  18.174  0.00  0.00    +0.000 OA
ATOM      4  N   UNL     1       3.273   5.291  19.592  0.00  0.00    +0.000 N 
ATOM      5  H   UNL     1       2.878   6.998  21.249  0.00  0.00    +0.000 HD
ATOM      6  H   UNL     1       3.025   4.826  20.457  0.00  0.00    +0.000 HD
ENDROOT
BRANCH   1  10
ATOM      7  C   UNL     1      -0.117  10.740  20.576  0.00  0.00    +0.000 A 
ATOM      8  C   UNL     1       0.586  10.348  19.421  0.00  0.00    +0.000 A 
ATOM      9  C   UNL     1       1.371   9.188  19.362  0.00  0.00    +0.000 A 
ATOM     10  C   UNL     1       1.499   8.355  20.466  0.00  0.00    +0.000 A 
ATOM     11  C   UNL     1       0.806   8.696  21.623  0.00  0.00    +0.000 A 
ATOM     12  C   UNL     1       0.023   9.873  21.687  0.00  0.00    +0.000 A 
ATOM     13 CL   UNL     1      -0.806  10.103  23.194  0.00  0.00    +0.000 Cl
BRANCH   7  15
ATOM     14  C   UNL     1      -0.502  13.123  21.230  0.00  0.00    +0.000 C 
ATOM     15  N   UNL     1      -0.885  11.903  20.532  0.00  0.00    +0.000 N 
ATOM     16  C   UNL     1      -2.065  11.967  19.675  0.00  0.00    +0.000 C 
ENDBRANCH   7  15
ENDBRANCH   1  10
BRANCH   4  17
ATOM     17  C   UNL     1       3.550   4.425  18.453  0.00  0.00    +0.000 C 
BRANCH  17  18
ATOM     18  C   UNL     1       4.977   3.861  18.377  0.00  0.00    +0.000 C 
BRANCH  18  19
ATOM     19  C   UNL     1       6.020   4.924  18.333  0.00  0.00    +0.000 A 
ATOM     20  C   UNL     1       6.284   5.956  17.456  0.00  0.00    +0.000 A 
ATOM     21  C   UNL     1       7.421   6.629  17.962  0.00  0.00    +0.000 A 
ATOM     22  C   UNL     1       7.783   5.964  19.109  0.00  0.00    +0.000 A 
ATOM     23  O   UNL     1       6.941   4.925  19.345  0.00  0.00    +0.000 OA
ENDBRANCH  18  19
BRANCH  18  24
ATOM     24  O   UNL     1       5.224   3.016  19.508  0.00  0.00    +0.000 OA
ATOM     25  H   UNL     1       5.035   3.557  20.296  0.00  0.00    +0.000 HD
ENDBRANCH  18  24
ENDBRANCH  17  18
ENDBRANCH   4  17
TORSDOF 6
ENDMDL
MODEL 9
REMARK VINA RESULT:      -6.5      6.882      7.412
REMARK  Name = 
REMARK  8 active torsions:
REMARK  status: ('A' for Active; 'I' for Inactive)
REMARK    1  A    between atoms: C_1  and  N_2
REMARK    2  A    between atoms: N_2  and  C_3
REMARK    3  A    between atoms: N_2  and  C_4
REMARK    4  A    between atoms: C_7  and  N_8
REMARK    5  A    between atoms: N_11  and  C_12
REMARK    6  A    between atoms: C_12  and  C_13
REMARK    7  A    between atoms: C_13  and  O_14
REMARK    8  A    between atoms: C_13  and  C_15
REMARK                            x       y       z     vdW  Elec       q    Type
REMARK                         _______ _______ _______ _____ _____    ______ ____
ROOT
ATOM      1  N   UNL     1       9.040   8.940  19.192  0.00  0.00    +0.000 N 
ATOM      2  C   UNL     1       8.243   8.313  18.265  0.00  0.00    +0.000 C 
ATOM      3  O   UNL     1       7.778   8.825  17.254  0.00  0.00    +0.000 OA
ATOM      4  N   UNL     1       8.026   6.983  18.553  0.00  0.00    +0.000 N 
ATOM      5  H   UNL     1       9.627   8.335  19.746  0.00  0.00    +0.000 HD
ATOM      6  H   UNL     1       7.938   6.764  19.537  0.00  0.00    +0.000 HD
ENDROOT
BRANCH   1  10
ATOM      7  C   UNL     1       9.958  13.141  19.247  0.00  0.00    +0.000 A 
ATOM      8  C   UNL     1       9.934  12.392  18.056  0.00  0.00    +0.000 A 
ATOM      9  C   UNL     1       9.634  11.024  18.018  0.00  0.00    +0.000 A 
ATOM     10  C   UNL     1       9.343  10.325  19.183  0.00  0.00    +0.000 A 
ATOM     11  C   UNL     1       9.337  11.031  20.382  0.00  0.00    +0.000 A 
ATOM     12  C   UNL     1       9.652  12.409  20.421  0.00  0.00    +0.000 A 
ATOM     13 CL   UNL     1       9.543  13.128  21.997  0.00  0.00    +0.000 Cl
BRANCH   7  15
ATOM     14  C   UNL     1       9.263  15.503  18.806  0.00  0.00    +0.000 C 
ATOM     15  N   UNL     1      10.253  14.502  19.180  0.00  0.00    +0.000 N 
ATOM     16  C   UNL     1      11.565  14.986  19.600  0.00  0.00    +0.000 C 
ENDBRANCH   7  15
ENDBRANCH   1  10
BRANCH   4  17
ATOM     17  C   UNL     1       7.132   6.266  17.652  0.00  0.00    +0.000 C 
BRANCH  17  18
ATOM     18  C   UNL     1       6.832   4.809  18.032  0.00  0.00    +0.000 C 
BRANCH  18  19
ATOM     19  C   UNL     1       5.515   4.645  18.708  0.00  0.00    +0.000 A 
ATOM     20  C   UNL     1       4.470   5.508  18.968  0.00  0.00    +0.000 A 
ATOM     21  C   UNL     1       3.486   4.750  19.647  0.00  0.00    +0.000 A 
ATOM     22  C   UNL     1       3.993   3.478  19.764  0.00  0.00    +0.000 A 
ATOM     23  O   UNL     1       5.225   3.401  19.200  0.00  0.00    +0.000 OA
ENDBRANCH  18  19
BRANCH  18  24
ATOM     24  O   UNL     1       6.856   3.987  16.859  0.00  0.00    +0.000 OA
ATOM     25  H   UNL     1       7.773   4.015  16.528  0.00  0.00    +0.000 HD
ENDBRANCH  18  24
ENDBRANCH  17  18
ENDBRANCH   4  17
TORSDOF 6
ENDMDL
