MODEL 1
REMARK VINA RESULT:      -7.6      0.000      0.000
REMARK  Name = 
REMARK  8 active torsions:
REMARK  status: ('A' for Active; 'I' for Inactive)
REMARK    1  A    between atoms: C_1  and  C_2
REMARK    2  A    between atoms: C_2  and  C_3
REMARK    3  A    between atoms: C_2  and  N_11
REMARK    4  A    between atoms: C_3  and  C_4
REMARK    5  A    between atoms: C_7  and  O_8
REMARK    6  A    between atoms: N_11  and  C_12
REMARK    7  A    between atoms: C_17  and  O_18
REMARK    8  A    between atoms: C_19  and  O_20
REMARK                            x       y       z     vdW  Elec       q    Type
REMARK                         _______ _______ _______ _____ _____    ______ ____
ROOT
ATOM      1  C   UNL     1       2.789   6.773  18.196  0.00  0.00    +0.000 C 
ATOM      2  C   UNL     1       3.011   8.235  17.773  0.00  0.00    +0.000 C 
ATOM      3  C   UNL     1       1.663   8.951  17.830  0.00  0.00    +0.000 C 
ATOM      4  C   UNL     1       1.309   9.084  19.284  0.00  0.00    +0.000 A 
ATOM      5  C   UNL     1       0.827  10.306  19.771  0.00  0.00    +0.000 A 
ATOM      6  C   UNL     1       0.747  10.495  21.141  0.00  0.00    +0.000 A 
ATOM      7  C   UNL     1       1.091   9.466  22.013  0.00  0.00    +0.000 A 
ATOM      8  C   UNL     1       1.482   8.217  21.538  0.00  0.00    +0.000 A 
ATOM      9  C   UNL     1       1.607   8.014  20.157  0.00  0.00    +0.000 A 
ATOM     10  C   UNL     1       2.100   6.686  19.595  0.00  0.00    +0.000 C 
ENDROOT
BRANCH   1  11
ATOM     11  N   UNL     1       4.069   6.059  18.072  0.00  0.00    +0.000 NA
ATOM     12  H   UNL     1       4.840   6.728  18.092  0.00  0.00    +0.000 HD
BRANCH  11  14
ATOM     13  C   UNL     1       5.582   5.376  16.196  0.00  0.00    +0.000 C 
ATOM     14  C   UNL     1       4.232   5.178  16.903  0.00  0.00    +0.000 C 
BRANCH  14  15
ATOM     15  C   UNL     1       4.142   3.680  17.330  0.00  0.00    +0.000 C 
BRANCH  15  16
ATOM     16  C   UNL     1       3.290   3.321  18.537  0.00  0.00    +0.000 A 
ATOM     17  C   UNL     1       3.834   3.113  19.807  0.00  0.00    +0.000 A 
ATOM     18  C   UNL     1       3.002   2.829  20.911  0.00  0.00    +0.000 A 
ATOM     19  C   UNL     1       1.628   2.765  20.731  0.00  0.00    +0.000 A 
ATOM     20  C   UNL     1       1.066   2.993  19.482  0.00  0.00    +0.000 A 
ATOM     21  C   UNL     1       1.891   3.271  18.395  0.00  0.00    +0.000 A 
BRANCH  19  22
ATOM     22  O   UNL     1       0.798   2.498  21.772  0.00  0.00    +0.000 OA
ATOM     23  H   UNL     1       0.027   2.009  21.437  0.00  0.00    +0.000 HD
ENDBRANCH  19  22
ENDBRANCH  15  16
ENDBRANCH  14  15
ENDBRANCH  11  14
ENDBRANCH   1  11
BRANCH   6  24
ATOM     24  O   UNL     1       0.387  11.702  21.676  0.00  0.00    +0.000 OA
ATOM     25  H   UNL     1       0.341  11.599  22.642  0.00  0.00    +0.000 HD
ENDBRANCH   6  24
BRANCH   7  26
ATOM     26  O   UNL     1       1.088   9.702  23.359  0.00  0.00    +0.000 OA
ATOM     27  H   UNL     1       0.419  10.406  23.478  0.00  0.00    +0.000 HD
ENDBRANCH   7  26
TORSDOF 7
ENDMDL
MODEL 2
REMARK VINA RESULT:      -7.6      3.386      7.718
REMARK  Name = 
REMARK  8 active torsions:
REMARK  status: ('A' for Active; 'I' for Inactive)
REMARK    1  A    between atoms: C_1  and  C_2
REMARK    2  A    between atoms: C_2  and  C_3
REMARK    3  A    between atoms: C_2  and  N_11
REMARK    4  A    between atoms: C_3  and  C_4
REMARK    5  A    between atoms: C_7  and  O_8
REMARK    6  A    between atoms: N_11  and  C_12
REMARK    7  A    between atoms: C_17  and  O_18
REMARK    8  A    between atoms: C_19  and  O_20
REMARK                            x       y       z     vdW  Elec       q    Type
REMARK                         _______ _______ _______ _____ _____    ______ ____
ROOT
ATOM      1  C   UNL     1       2.119   6.912  19.177  0.00  0.00    +0.000 C 
ATOM      2  C   UNL     1       2.360   5.436  19.536  0.00  0.00    +0.000 C 
ATOM      3  C   UNL     1       2.261   4.618  18.250  0.00  0.00    +0.000 C 
ATOM      4  C   UNL     1       3.476   4.955  17.432  0.00  0.00    +0.000 A 
ATOM      5  C   UNL     1       4.208   3.928  16.822  0.00  0.00    +0.000 A 
ATOM      6  C   UNL     1       5.454   4.220  16.291  0.00  0.00    +0.000 A 
ATOM      7  C   UNL     1       5.942   5.523  16.319  0.00  0.00    +0.000 A 
ATOM      8  C   UNL     1       5.181   6.568  16.839  0.00  0.00    +0.000 A 
ATOM      9  C   UNL     1       3.934   6.291  17.416  0.00  0.00    +0.000 A 
ATOM     10  C   UNL     1       3.101   7.392  18.061  0.00  0.00    +0.000 C 
ENDROOT
BRANCH   1  11
ATOM     11  N   UNL     1       2.140   7.697  20.422  0.00  0.00    +0.000 NA
ATOM     12  H   UNL     1       2.257   7.072  21.221  0.00  0.00    +0.000 HD
BRANCH  11  14
ATOM     13  C   UNL     1       0.914   9.057  22.132  0.00  0.00    +0.000 C 
ATOM     14  C   UNL     1       0.989   8.581  20.672  0.00  0.00    +0.000 C 
BRANCH  14  15
ATOM     15  C   UNL     1       1.070   9.852  19.770  0.00  0.00    +0.000 C 
BRANCH  15  16
ATOM     16  C   UNL     1      -0.220  10.408  19.187  0.00  0.00    +0.000 A 
ATOM     17  C   UNL     1      -0.940  11.436  19.801  0.00  0.00    +0.000 A 
ATOM     18  C   UNL     1      -2.108  11.956  19.201  0.00  0.00    +0.000 A 
ATOM     19  C   UNL     1      -2.536  11.446  17.985  0.00  0.00    +0.000 A 
ATOM     20  C   UNL     1      -1.821  10.441  17.347  0.00  0.00    +0.000 A 
ATOM     21  C   UNL     1      -0.670   9.929  17.943  0.00  0.00    +0.000 A 
BRANCH  19  22
ATOM     22  O   UNL     1      -3.652  11.926  17.380  0.00  0.00    +0.000 OA
ATOM     23  H   UNL     1      -3.515  11.910  16.417  0.00  0.00    +0.000 HD
ENDBRANCH  19  22
ENDBRANCH  15  16
ENDBRANCH  14  15
ENDBRANCH  11  14
ENDBRANCH   1  11
BRANCH   6  24
ATOM     24  O   UNL     1       6.260   3.239  15.780  0.00  0.00    +0.000 OA
ATOM     25  H   UNL     1       5.705   2.644  15.247  0.00  0.00    +0.000 HD
ENDBRANCH   6  24
BRANCH   7  26
ATOM     26  O   UNL     1       7.208   5.772  15.869  0.00  0.00    +0.000 OA
ATOM     27  H   UNL     1       7.072   6.254  15.029  0.00  0.00    +0.000 HD
ENDBRANCH   7  26
TORSDOF 7
ENDMDL
MODEL 3
REMARK VINA RESULT:      -7.6      0.359      1.051
REMARK  Name = 
REMARK  8 active torsions:
REMARK  status: ('A' for Active; 'I' for Inactive)
REMARK    1  A    between atoms: C_1  and  C_2
REMARK    2  A    between atoms: C_2  and  C_3
REMARK    3  A    between atoms: C_2  and  N_11
REMARK    4  A    between atoms: C_3  and  C_4
REMARK    5  A    between atoms: C_7  and  O_8
REMARK    6  A    between atoms: N_11  and  C_12
REMARK    7  A    between atoms: C_17  and  O_18
REMARK    8  A    between atoms: C_19  and  O_20
REMARK                            x       y       z     vdW  Elec       q    Type
REMARK                         _______ _______ _______ _____ _____    ______ ____
ROOT
ATOM      1  C   UNL     1       2.757   6.675  18.276  0.00  0.00    +0.000 C 
ATOM      2  C   UNL     1       3.044   8.118  17.829  0.00  0.00    +0.000 C 
ATOM      3  C   UNL     1       1.724   8.885  17.833  0.00  0.00    +0.000 C 
ATOM      4  C   UNL     1       1.335   9.063  19.273  0.00  0.00    +0.000 A 
ATOM      5  C   UNL     1       0.886  10.312  19.721  0.00  0.00    +0.000 A 
ATOM      6  C   UNL     1       0.776  10.534  21.084  0.00  0.00    +0.000 A 
ATOM      7  C   UNL     1       1.058   9.512  21.986  0.00  0.00    +0.000 A 
ATOM      8  C   UNL     1       1.414   8.239  21.549  0.00  0.00    +0.000 A 
ATOM      9  C   UNL     1       1.569   8.001  20.176  0.00  0.00    +0.000 A 
ATOM     10  C   UNL     1       2.027   6.644  19.657  0.00  0.00    +0.000 C 
ENDROOT
BRANCH   1  11
ATOM     11  N   UNL     1       4.012   5.912  18.203  0.00  0.00    +0.000 NA
ATOM     12  H   UNL     1       4.806   6.547  18.289  0.00  0.00    +0.000 HD
BRANCH  11  14
ATOM     13  C   UNL     1       5.689   4.750  16.749  0.00  0.00    +0.000 C 
ATOM     14  C   UNL     1       4.208   5.060  17.017  0.00  0.00    +0.000 C 
BRANCH  14  15
ATOM     15  C   UNL     1       3.468   3.697  17.194  0.00  0.00    +0.000 C 
BRANCH  15  16
ATOM     16  C   UNL     1       2.855   3.378  18.547  0.00  0.00    +0.000 A 
ATOM     17  C   UNL     1       1.474   3.298  18.747  0.00  0.00    +0.000 A 
ATOM     18  C   UNL     1       0.946   2.951  20.009  0.00  0.00    +0.000 A 
ATOM     19  C   UNL     1       1.811   2.678  21.059  0.00  0.00    +0.000 A 
ATOM     20  C   UNL     1       3.186   2.728  20.875  0.00  0.00    +0.000 A 
ATOM     21  C   UNL     1       3.703   3.073  19.628  0.00  0.00    +0.000 A 
BRANCH  19  22
ATOM     22  O   UNL     1       1.337   2.338  22.285  0.00  0.00    +0.000 OA
ATOM     23  H   UNL     1       2.085   2.065  22.843  0.00  0.00    +0.000 HD
ENDBRANCH  19  22
ENDBRANCH  15  16
ENDBRANCH  14  15
ENDBRANCH  11  14
ENDBRANCH   1  11
BRANCH   6  24
ATOM     24  O   UNL     1       0.446  11.764  21.583  0.00  0.00    +0.000 OA
ATOM     25  H   UNL     1      -0.493  11.744  21.832  0.00  0.00    +0.000 HD
ENDBRANCH   6  24
BRANCH   7  26
ATOM     26  O   UNL     1       1.027   9.778  23.327  0.00  0.00    +0.000 OA
ATOM     27  H   UNL     1       1.669   9.148  23.711  0.00  0.00    +0.000 HD
ENDBRANCH   7  26
TORSDOF 7
ENDMDL
MODEL 4
REMARK VINA RESULT:      -7.6      3.347      7.667
REMARK  Name = 
REMARK  8 active torsions:
REMARK  status: ('A' for Active; 'I' for Inactive)
REMARK    1  A    between atoms: C_1  and  C_2
REMARK    2  A    between atoms: C_2  and  C_3
REMARK    3  A    between atoms: C_2  and  N_11
REMARK    4  A    between atoms: C_3  and  C_4
REMARK    5  A    between atoms: C_7  and  O_8
REMARK    6  A    between atoms: N_11  and  C_12
REMARK    7  A    between atoms: C_17  and  O_18
REMARK    8  A    between atoms: C_19  and  O_20
REMARK                            x       y       z     vdW  Elec       q    Type
REMARK                         _______ _______ _______ _____ _____    ______ ____
ROOT
ATOM      1  C   UNL     1       1.861   6.999  19.577  0.00  0.00    +0.000 C 
ATOM      2  C   UNL     1       2.227   5.558  19.973  0.00  0.00    +0.000 C 
ATOM      3  C   UNL     1       2.084   4.678  18.733  0.00  0.00    +0.000 C 
ATOM      4  C   UNL     1       3.207   5.055  17.809  0.00  0.00    +0.000 A 
ATOM      5  C   UNL     1       3.957   4.050  17.184  0.00  0.00    +0.000 A 
ATOM      6  C   UNL     1       5.137   4.396  16.544  0.00  0.00    +0.000 A 
ATOM      7  C   UNL     1       5.538   5.727  16.482  0.00  0.00    +0.000 A 
ATOM      8  C   UNL     1       4.752   6.744  17.019  0.00  0.00    +0.000 A 
ATOM      9  C   UNL     1       3.573   6.416  17.703  0.00  0.00    +0.000 A 
ATOM     10  C   UNL     1       2.721   7.490  18.368  0.00  0.00    +0.000 C 
ENDROOT
BRANCH   1  11
ATOM     11  N   UNL     1       1.925   7.838  20.784  0.00  0.00    +0.000 NA
ATOM     12  H   UNL     1       2.020   7.247  21.610  0.00  0.00    +0.000 HD
BRANCH  11  14
ATOM     13  C   UNL     1       0.729   9.273  22.452  0.00  0.00    +0.000 C 
ATOM     14  C   UNL     1       0.816   8.783  20.998  0.00  0.00    +0.000 C 
BRANCH  14  15
ATOM     15  C   UNL     1       0.985  10.041  20.090  0.00  0.00    +0.000 C 
BRANCH  15  16
ATOM     16  C   UNL     1      -0.218  10.531  19.301  0.00  0.00    +0.000 A 
ATOM     17  C   UNL     1      -0.595   9.969  18.078  0.00  0.00    +0.000 A 
ATOM     18  C   UNL     1      -1.747  10.422  17.401  0.00  0.00    +0.000 A 
ATOM     19  C   UNL     1      -2.518  11.429  17.963  0.00  0.00    +0.000 A 
ATOM     20  C   UNL     1      -2.175  11.983  19.188  0.00  0.00    +0.000 A 
ATOM     21  C   UNL     1      -1.035  11.535  19.853  0.00  0.00    +0.000 A 
BRANCH  19  22
ATOM     22  O   UNL     1      -3.635  11.885  17.340  0.00  0.00    +0.000 OA
ATOM     23  H   UNL     1      -4.409  11.653  17.881  0.00  0.00    +0.000 HD
ENDBRANCH  19  22
ENDBRANCH  15  16
ENDBRANCH  14  15
ENDBRANCH  11  14
ENDBRANCH   1  11
BRANCH   6  24
ATOM     24  O   UNL     1       5.965   3.447  16.010  0.00  0.00    +0.000 OA
ATOM     25  H   UNL     1       5.987   2.691  16.622  0.00  0.00    +0.000 HD
ENDBRANCH   6  24
BRANCH   7  26
ATOM     26  O   UNL     1       6.746   6.036  15.923  0.00  0.00    +0.000 OA
ATOM     27  H   UNL     1       6.766   7.014  15.921  0.00  0.00    +0.000 HD
ENDBRANCH   7  26
TORSDOF 7
ENDMDL
MODEL 5
REMARK VINA RESULT:      -7.3      2.477      3.905
REMARK  Name = 
REMARK  8 active torsions:
REMARK  status: ('A' for Active; 'I' for Inactive)
REMARK    1  A    between atoms: C_1  and  C_2
REMARK    2  A    between atoms: C_2  and  C_3
REMARK    3  A    between atoms: C_2  and  N_11
REMARK    4  A    between atoms: C_3  and  C_4
REMARK    5  A    between atoms: C_7  and  O_8
REMARK    6  A    between atoms: N_11  and  C_12
REMARK    7  A    between atoms: C_17  and  O_18
REMARK    8  A    between atoms: C_19  and  O_20
REMARK                            x       y       z     vdW  Elec       q    Type
REMARK                         _______ _______ _______ _____ _____    ______ ____
ROOT
ATOM      1  C   UNL     1       2.708   6.341  19.310  0.00  0.00    +0.000 C 
ATOM      2  C   UNL     1       3.240   7.403  18.333  0.00  0.00    +0.000 C 
ATOM      3  C   UNL     1       2.041   8.125  17.723  0.00  0.00    +0.000 C 
ATOM      4  C   UNL     1       1.442   8.962  18.818  0.00  0.00    +0.000 A 
ATOM      5  C   UNL     1       1.080  10.290  18.556  0.00  0.00    +0.000 A 
ATOM      6  C   UNL     1       0.772  11.122  19.620  0.00  0.00    +0.000 A 
ATOM      7  C   UNL     1       0.773  10.626  20.921  0.00  0.00    +0.000 A 
ATOM      8  C   UNL     1       1.039   9.285  21.183  0.00  0.00    +0.000 A 
ATOM      9  C   UNL     1       1.391   8.433  20.127  0.00  0.00    +0.000 A 
ATOM     10  C   UNL     1       1.760   6.976  20.377  0.00  0.00    +0.000 C 
ENDROOT
BRANCH   1  11
ATOM     11  N   UNL     1       3.856   5.592  19.845  0.00  0.00    +0.000 NA
ATOM     12  H   UNL     1       4.719   5.940  19.428  0.00  0.00    +0.000 HD
BRANCH  11  14
ATOM     13  C   UNL     1       2.582   3.501  20.379  0.00  0.00    +0.000 C 
ATOM     14  C   UNL     1       3.817   4.126  19.711  0.00  0.00    +0.000 C 
BRANCH  14  15
ATOM     15  C   UNL     1       3.793   3.715  18.205  0.00  0.00    +0.000 C 
BRANCH  15  16
ATOM     16  C   UNL     1       4.911   4.209  17.302  0.00  0.00    +0.000 A 
ATOM     17  C   UNL     1       6.245   4.256  17.715  0.00  0.00    +0.000 A 
ATOM     18  C   UNL     1       7.260   4.677  16.828  0.00  0.00    +0.000 A 
ATOM     19  C   UNL     1       6.927   5.038  15.531  0.00  0.00    +0.000 A 
ATOM     20  C   UNL     1       5.611   4.975  15.095  0.00  0.00    +0.000 A 
ATOM     21  C   UNL     1       4.612   4.561  15.973  0.00  0.00    +0.000 A 
BRANCH  19  22
ATOM     22  O   UNL     1       7.879   5.443  14.652  0.00  0.00    +0.000 OA
ATOM     23  H   UNL     1       8.113   4.693  14.079  0.00  0.00    +0.000 HD
ENDBRANCH  19  22
ENDBRANCH  15  16
ENDBRANCH  14  15
ENDBRANCH  11  14
ENDBRANCH   1  11
BRANCH   6  24
ATOM     24  O   UNL     1       0.517  12.453  19.436  0.00  0.00    +0.000 OA
ATOM     25  H   UNL     1      -0.383  12.632  19.757  0.00  0.00    +0.000 HD
ENDBRANCH   6  24
BRANCH   7  26
ATOM     26  O   UNL     1       0.551  11.484  21.962  0.00  0.00    +0.000 OA
ATOM     27  H   UNL     1       0.110  10.931  22.638  0.00  0.00    +0.000 HD
ENDBRANCH   7  26
TORSDOF 7
ENDMDL
MODEL 6
REMARK VINA RESULT:      -7.3      2.891      7.815
REMARK  Name = 
REMARK  8 active torsions:
REMARK  status: ('A' for Active; 'I' for Inactive)
REMARK    1  A    between atoms: C_1  and  C_2
REMARK    2  A    between atoms: C_2  and  C_3
REMARK    3  A    between atoms: C_2  and  N_11
REMARK    4  A    between atoms: C_3  and  C_4
REMARK    5  A    between atoms: C_7  and  O_8
REMARK    6  A    between atoms: N_11  and  C_12
REMARK    7  A    between atoms: C_17  and  O_18
REMARK    8  A    between atoms: C_19  and  O_20
REMARK                            x       y       z     vdW  Elec       q    Type
REMARK                         _______ _______ _______ _____ _____    ______ ____
ROOT
ATOM      1  C   UNL     1       1.452   6.517  20.017  0.00  0.00    +0.000 C 
ATOM      2  C   UNL     1       1.580   5.264  20.899  0.00  0.00    +0.000 C 
ATOM      3  C   UNL     1       1.094   4.065  20.088  0.00  0.00    +0.000 C 
ATOM      4  C   UNL     1       2.127   3.819  19.024  0.00  0.00    +0.000 A 
ATOM      5  C   UNL     1       2.569   2.514  18.776  0.00  0.00    +0.000 A 
ATOM      6  C   UNL     1       3.691   2.327  17.984  0.00  0.00    +0.000 A 
ATOM      7  C   UNL     1       4.332   3.418  17.406  0.00  0.00    +0.000 A 
ATOM      8  C   UNL     1       3.845   4.713  17.571  0.00  0.00    +0.000 A 
ATOM      9  C   UNL     1       2.734   4.931  18.397  0.00  0.00    +0.000 A 
ATOM     10  C   UNL     1       2.212   6.337  18.663  0.00  0.00    +0.000 C 
ENDROOT
BRANCH   1  11
ATOM     11  N   UNL     1       1.849   7.686  20.817  0.00  0.00    +0.000 NA
ATOM     12  H   UNL     1       2.204   7.378  21.723  0.00  0.00    +0.000 HD
BRANCH  11  14
ATOM     13  C   UNL     1       0.861   9.303  22.456  0.00  0.00    +0.000 C 
ATOM     14  C   UNL     1       0.829   8.726  21.032  0.00  0.00    +0.000 C 
BRANCH  14  15
ATOM     15  C   UNL     1       1.041   9.913  20.041  0.00  0.00    +0.000 C 
BRANCH  15  16
ATOM     16  C   UNL     1      -0.162  10.443  19.278  0.00  0.00    +0.000 A 
ATOM     17  C   UNL     1      -0.561   9.919  18.046  0.00  0.00    +0.000 A 
ATOM     18  C   UNL     1      -1.713  10.408  17.393  0.00  0.00    +0.000 A 
ATOM     19  C   UNL     1      -2.461  11.413  17.989  0.00  0.00    +0.000 A 
ATOM     20  C   UNL     1      -2.095  11.929  19.224  0.00  0.00    +0.000 A 
ATOM     21  C   UNL     1      -0.956  11.446  19.864  0.00  0.00    +0.000 A 
BRANCH  19  22
ATOM     22  O   UNL     1      -3.576  11.903  17.390  0.00  0.00    +0.000 OA
ATOM     23  H   UNL     1      -4.233  11.188  17.323  0.00  0.00    +0.000 HD
ENDBRANCH  19  22
ENDBRANCH  15  16
ENDBRANCH  14  15
ENDBRANCH  11  14
ENDBRANCH   1  11
BRANCH   6  24
ATOM     24  O   UNL     1       4.232   1.084  17.795  0.00  0.00    +0.000 OA
ATOM     25  H   UNL     1       4.476   1.005  16.857  0.00  0.00    +0.000 HD
ENDBRANCH   6  24
BRANCH   7  26
ATOM     26  O   UNL     1       5.486   3.219  16.702  0.00  0.00    +0.000 OA
ATOM     27  H   UNL     1       5.310   3.631  15.832  0.00  0.00    +0.000 HD
ENDBRANCH   7  26
TORSDOF 7
ENDMDL
MODEL 7
REMARK VINA RESULT:      -7.3      2.474      3.761
REMARK  Name = 
REMARK  8 active torsions:
REMARK  status: ('A' for Active; 'I' for Inactive)
REMARK    1  A    between atoms: C_1  and  C_2
REMARK    2  A    between atoms: C_2  and  C_3
REMARK    3  A    between atoms: C_2  and  N_11
REMARK    4  A    between atoms: C_3  and  C_4
REMARK    5  A    between atoms: C_7  and  O_8
REMARK    6  A    between atoms: N_11  and  C_12
REMARK    7  A    between atoms: C_17  and  O_18
REMARK    8  A    between atoms: C_19  and  O_20
REMARK                            x       y       z     vdW  Elec       q    Type
REMARK                         _______ _______ _______ _____ _____    ______ ____
ROOT
ATOM      1  C   UNL     1       2.226   6.520  19.596  0.00  0.00    +0.000 C 
ATOM      2  C   UNL     1       2.973   7.400  18.579  0.00  0.00    +0.000 C 
ATOM      3  C   UNL     1       1.939   8.242  17.835  0.00  0.00    +0.000 C 
ATOM      4  C   UNL     1       1.420   9.253  18.819  0.00  0.00    +0.000 A 
ATOM      5  C   UNL     1       1.289  10.593  18.432  0.00  0.00    +0.000 A 
ATOM      6  C   UNL     1       1.057  11.550  19.406  0.00  0.00    +0.000 A 
ATOM      7  C   UNL     1       0.907  11.175  20.738  0.00  0.00    +0.000 A 
ATOM      8  C   UNL     1       0.942   9.836  21.120  0.00  0.00    +0.000 A 
ATOM      9  C   UNL     1       1.213   8.852  20.158  0.00  0.00    +0.000 A 
ATOM     10  C   UNL     1       1.332   7.383  20.543  0.00  0.00    +0.000 C 
ENDROOT
BRANCH   1  11
ATOM     11  N   UNL     1       3.208   5.653  20.264  0.00  0.00    +0.000 NA
ATOM     12  H   UNL     1       4.141   5.841  19.894  0.00  0.00    +0.000 HD
BRANCH  11  14
ATOM     13  C   UNL     1       1.673   3.846  19.456  0.00  0.00    +0.000 C 
ATOM     14  C   UNL     1       2.959   4.203  20.218  0.00  0.00    +0.000 C 
BRANCH  14  15
ATOM     15  C   UNL     1       4.140   3.467  19.511  0.00  0.00    +0.000 C 
BRANCH  15  16
ATOM     16  C   UNL     1       5.064   4.275  18.615  0.00  0.00    +0.000 A 
ATOM     17  C   UNL     1       6.214   4.907  19.095  0.00  0.00    +0.000 A 
ATOM     18  C   UNL     1       7.070   5.609  18.219  0.00  0.00    +0.000 A 
ATOM     19  C   UNL     1       6.769   5.661  16.866  0.00  0.00    +0.000 A 
ATOM     20  C   UNL     1       5.645   5.019  16.366  0.00  0.00    +0.000 A 
ATOM     21  C   UNL     1       4.800   4.330  17.233  0.00  0.00    +0.000 A 
BRANCH  19  22
ATOM     22  O   UNL     1       7.573   6.324  15.996  0.00  0.00    +0.000 OA
ATOM     23  H   UNL     1       7.214   6.218  15.098  0.00  0.00    +0.000 HD
ENDBRANCH  19  22
ENDBRANCH  15  16
ENDBRANCH  14  15
ENDBRANCH  11  14
ENDBRANCH   1  11
BRANCH   6  24
ATOM     24  O   UNL     1       1.027  12.884  19.103  0.00  0.00    +0.000 OA
ATOM     25  H   UNL     1       1.531  13.358  19.787  0.00  0.00    +0.000 HD
ENDBRANCH   6  24
BRANCH   7  26
ATOM     26  O   UNL     1       0.766  12.143  21.693  0.00  0.00    +0.000 OA
ATOM     27  H   UNL     1       0.255  11.705  22.403  0.00  0.00    +0.000 HD
ENDBRANCH   7  26
TORSDOF 7
ENDMDL
MODEL 8
REMARK VINA RESULT:      -7.2      2.453      3.993
REMARK  Name = 
REMARK  8 active torsions:
REMARK  status: ('A' for Active; 'I' for Inactive)
REMARK    1  A    between atoms: C_1  and  C_2
REMARK    2  A    between atoms: C_2  and  C_3
REMARK    3  A    between atoms: C_2  and  N_11
REMARK    4  A    between atoms: C_3  and  C_4
REMARK    5  A    between atoms: C_7  and  O_8
REMARK    6  A    between atoms: N_11  and  C_12
REMARK    7  A    between atoms: C_17  and  O_18
REMARK    8  A    between atoms: C_19  and  O_20
REMARK                            x       y       z     vdW  Elec       q    Type
REMARK                         _______ _______ _______ _____ _____    ______ ____
ROOT
ATOM      1  C   UNL     1       2.757   6.342  19.261  0.00  0.00    +0.000 C 
ATOM      2  C   UNL     1       3.273   7.408  18.278  0.00  0.00    +0.000 C 
ATOM      3  C   UNL     1       2.063   8.120  17.678  0.00  0.00    +0.000 C 
ATOM      4  C   UNL     1       1.467   8.954  18.776  0.00  0.00    +0.000 A 
ATOM      5  C   UNL     1       1.093  10.279  18.517  0.00  0.00    +0.000 A 
ATOM      6  C   UNL     1       0.788  11.109  19.583  0.00  0.00    +0.000 A 
ATOM      7  C   UNL     1       0.803  10.615  20.884  0.00  0.00    +0.000 A 
ATOM      8  C   UNL     1       1.082   9.275  21.145  0.00  0.00    +0.000 A 
ATOM      9  C   UNL     1       1.431   8.425  20.087  0.00  0.00    +0.000 A 
ATOM     10  C   UNL     1       1.813   6.972  20.335  0.00  0.00    +0.000 C 
ENDROOT
BRANCH   1  11
ATOM     11  N   UNL     1       3.915   5.603  19.787  0.00  0.00    +0.000 NA
ATOM     12  H   UNL     1       4.763   5.901  19.304  0.00  0.00    +0.000 HD
BRANCH  11  14
ATOM     13  C   UNL     1       2.604   3.586  20.487  0.00  0.00    +0.000 C 
ATOM     14  C   UNL     1       3.839   4.132  19.753  0.00  0.00    +0.000 C 
BRANCH  14  15
ATOM     15  C   UNL     1       3.771   3.621  18.280  0.00  0.00    +0.000 C 
BRANCH  15  16
ATOM     16  C   UNL     1       4.834   4.093  17.301  0.00  0.00    +0.000 A 
ATOM     17  C   UNL     1       4.543   4.420  15.974  0.00  0.00    +0.000 A 
ATOM     18  C   UNL     1       5.551   4.899  15.111  0.00  0.00    +0.000 A 
ATOM     19  C   UNL     1       6.843   5.056  15.591  0.00  0.00    +0.000 A 
ATOM     20  C   UNL     1       7.148   4.760  16.912  0.00  0.00    +0.000 A 
ATOM     21  C   UNL     1       6.150   4.284  17.761  0.00  0.00    +0.000 A 
BRANCH  19  22
ATOM     22  O   UNL     1       7.836   5.518  14.789  0.00  0.00    +0.000 OA
ATOM     23  H   UNL     1       8.351   6.181  15.281  0.00  0.00    +0.000 HD
ENDBRANCH  19  22
ENDBRANCH  15  16
ENDBRANCH  14  15
ENDBRANCH  11  14
ENDBRANCH   1  11
BRANCH   6  24
ATOM     24  O   UNL     1       0.521  12.438  19.399  0.00  0.00    +0.000 OA
ATOM     25  H   UNL     1       1.102  12.944  19.993  0.00  0.00    +0.000 HD
ENDBRANCH   6  24
BRANCH   7  26
ATOM     26  O   UNL     1       0.584  11.471  21.926  0.00  0.00    +0.000 OA
ATOM     27  H   UNL     1       1.017  11.037  22.688  0.00  0.00    +0.000 HD
ENDBRANCH   7  26
TORSDOF 7
ENDMDL
MODEL 9
REMARK VINA RESULT:      -7.2      2.491      3.888
REMARK  Name = 
REMARK  8 active torsions:
REMARK  status: ('A' for Active; 'I' for Inactive)
REMARK    1  A    between atoms: C_1  and  C_2
REMARK    2  A    between atoms: C_2  and  C_3
REMARK    3  A    between atoms: C_2  and  N_11
REMARK    4  A    between atoms: C_3  and  C_4
REMARK    5  A    between atoms: C_7  and  O_8
REMARK    6  A    between atoms: N_11  and  C_12
REMARK    7  A    between atoms: C_17  and  O_18
REMARK    8  A    between atoms: C_19  and  O_20
REMARK                            x       y       z     vdW  Elec       q    Type
REMARK                         _______ _______ _______ _____ _____    ______ ____
ROOT
ATOM      1  C   UNL     1       2.235   6.545  19.551  0.00  0.00    +0.000 C 
ATOM      2  C   UNL     1       2.954   7.467  18.552  0.00  0.00    +0.000 C 
ATOM      3  C   UNL     1       1.896   8.305  17.839  0.00  0.00    +0.000 C 
ATOM      4  C   UNL     1       1.365   9.279  18.853  0.00  0.00    +0.000 A 
ATOM      5  C   UNL     1       1.201  10.625  18.503  0.00  0.00    +0.000 A 
ATOM      6  C   UNL     1       0.959  11.552  19.503  0.00  0.00    +0.000 A 
ATOM      7  C   UNL     1       0.829  11.139  20.826  0.00  0.00    +0.000 A 
ATOM      8  C   UNL     1       0.896   9.791  21.172  0.00  0.00    +0.000 A 
ATOM      9  C   UNL     1       1.178   8.839  20.183  0.00  0.00    +0.000 A 
ATOM     10  C   UNL     1       1.332   7.364  20.529  0.00  0.00    +0.000 C 
ENDROOT
BRANCH   1  11
ATOM     11  N   UNL     1       3.242   5.682  20.188  0.00  0.00    +0.000 NA
ATOM     12  H   UNL     1       4.164   5.885  19.801  0.00  0.00    +0.000 HD
BRANCH  11  14
ATOM     13  C   UNL     1       1.747   3.863  19.332  0.00  0.00    +0.000 C 
ATOM     14  C   UNL     1       3.009   4.229  20.129  0.00  0.00    +0.000 C 
BRANCH  14  15
ATOM     15  C   UNL     1       4.216   3.508  19.451  0.00  0.00    +0.000 C 
BRANCH  15  16
ATOM     16  C   UNL     1       5.146   4.327  18.570  0.00  0.00    +0.000 A 
ATOM     17  C   UNL     1       4.898   4.542  17.212  0.00  0.00    +0.000 A 
ATOM     18  C   UNL     1       5.762   5.348  16.440  0.00  0.00    +0.000 A 
ATOM     19  C   UNL     1       6.863   5.940  17.042  0.00  0.00    +0.000 A 
ATOM     20  C   UNL     1       7.113   5.758  18.395  0.00  0.00    +0.000 A 
ATOM     21  C   UNL     1       6.259   4.960  19.153  0.00  0.00    +0.000 A 
BRANCH  19  22
ATOM     22  O   UNL     1       7.711   6.724  16.329  0.00  0.00    +0.000 OA
ATOM     23  H   UNL     1       7.186   7.317  15.763  0.00  0.00    +0.000 HD
ENDBRANCH  19  22
ENDBRANCH  15  16
ENDBRANCH  14  15
ENDBRANCH  11  14
ENDBRANCH   1  11
BRANCH   6  24
ATOM     24  O   UNL     1       0.897  12.892  19.236  0.00  0.00    +0.000 OA
ATOM     25  H   UNL     1       0.764  13.360  20.078  0.00  0.00    +0.000 HD
ENDBRANCH   6  24
BRANCH   7  26
ATOM     26  O   UNL     1       0.676  12.078  21.807  0.00  0.00    +0.000 OA
ATOM     27  H   UNL     1       1.367  11.853  22.463  0.00  0.00    +0.000 HD
ENDBRANCH   7  26
TORSDOF 7
ENDMDL
