MODEL 1
REMARK VINA RESULT:      -9.4      0.000      0.000
REMARK  Name = 
REMARK  7 active torsions:
REMARK  status: ('A' for Active; 'I' for Inactive)
REMARK    1  A    between atoms: N_1  and  C_2
REMARK    2  A    between atoms: C_2  and  C_3
REMARK    3  A    between atoms: C_3  and  S_4
REMARK    4  A    between atoms: S_4  and  C_5
REMARK    5  A    between atoms: C_5  and  C_6
REMARK    6  A    between atoms: C_5  and  C_12
REMARK    7  A    between atoms: C_5  and  C_18
REMARK                            x       y       z     vdW  Elec       q    Type
REMARK                         _______ _______ _______ _____ _____    ______ ____
ROOT
ATOM      1  C   UNL     1       3.862   5.348  18.126  0.00  0.00    +0.000 C 
ENDROOT
BRANCH   1   2
ATOM      2  C   UNL     1       3.098   6.688  18.328  0.00  0.00    +0.000 A 
ATOM      3  C   UNL     1       2.919   7.734  17.424  0.00  0.00    +0.000 A 
ATOM      4  C   UNL     1       2.253   8.930  17.809  0.00  0.00    +0.000 A 
ATOM      5  C   UNL     1       1.682   9.076  19.085  0.00  0.00    +0.000 A 
ATOM      6  C   UNL     1       1.769   8.000  19.956  0.00  0.00    +0.000 A 
ATOM      7  C   UNL     1       2.462   6.850  19.570  0.00  0.00    +0.000 A 
ATOM      8  C   UNL     1       1.066   7.932  21.267  0.00  0.00    +0.000 C 
ATOM      9  C   UNL     1       0.659   9.253  21.876  0.00  0.00    +0.000 C 
ATOM     10  C   UNL     1       0.437  10.421  20.929  0.00  0.00    +0.000 C 
ATOM     11  C   UNL     1       0.962  10.331  19.487  0.00  0.00    +0.000 C 
ENDBRANCH   1   2
BRANCH   1  12
ATOM     12  C   UNL     1       4.544   5.014  16.765  0.00  0.00    +0.000 A 
ATOM     13  C   UNL     1       4.991   3.698  16.505  0.00  0.00    +0.000 A 
ATOM     14  C   UNL     1       5.759   3.383  15.379  0.00  0.00    +0.000 A 
ATOM     15  C   UNL     1       6.132   4.384  14.496  0.00  0.00    +0.000 A 
ATOM     16  C   UNL     1       5.721   5.691  14.726  0.00  0.00    +0.000 A 
ATOM     17  C   UNL     1       4.931   6.000  15.841  0.00  0.00    +0.000 A 
ENDBRANCH   1  12
BRANCH   1  18
ATOM     18  C   UNL     1       2.930   4.166  18.628  0.00  0.00    +0.000 A 
ATOM     19  C   UNL     1       1.758   3.749  17.958  0.00  0.00    +0.000 A 
ATOM     20  C   UNL     1       0.920   2.761  18.485  0.00  0.00    +0.000 A 
ATOM     21  C   UNL     1       1.242   2.146  19.686  0.00  0.00    +0.000 A 
ATOM     22  C   UNL     1       2.425   2.484  20.336  0.00  0.00    +0.000 A 
ATOM     23  C   UNL     1       3.269   3.471  19.807  0.00  0.00    +0.000 A 
ENDBRANCH   1  18
BRANCH   1  24
ATOM     24  S   UNL     1       5.463   5.429  19.359  0.00  0.00    +0.000 S 
BRANCH  24  25
ATOM     25  C   UNL     1       6.691   6.279  18.323  0.00  0.00    +0.000 C 
BRANCH  25  26
ATOM     26  C   UNL     1       8.043   6.273  19.042  0.00  0.00    +0.000 C 
BRANCH  26  27
ATOM     27  N   UNL     1       7.973   5.474  20.267  0.00  0.00    +0.000 NA
ATOM     28  H   UNL     1       8.300   6.039  21.050  0.00  0.00    +0.000 HD
ATOM     29  H   UNL     1       8.613   4.684  20.196  0.00  0.00    +0.000 HD
ENDBRANCH  26  27
ENDBRANCH  25  26
ENDBRANCH  24  25
ENDBRANCH   1  24
TORSDOF 7
ENDMDL
MODEL 2
REMARK VINA RESULT:      -9.1      0.267      1.322
REMARK  Name = 
REMARK  7 active torsions:
REMARK  status: ('A' for Active; 'I' for Inactive)
REMARK    1  A    between atoms: N_1  and  C_2
REMARK    2  A    between atoms: C_2  and  C_3
REMARK    3  A    between atoms: C_3  and  S_4
REMARK    4  A    between atoms: S_4  and  C_5
REMARK    5  A    between atoms: C_5  and  C_6
REMARK    6  A    between atoms: C_5  and  C_12
REMARK    7  A    between atoms: C_5  and  C_18
REMARK                            x       y       z     vdW  Elec       q    Type
REMARK                         _______ _______ _______ _____ _____    ______ ____
ROOT
ATOM      1  C   UNL     1       4.025   5.328  18.152  0.00  0.00    +0.000 C 
ENDROOT
BRANCH   1   2
ATOM      2  C   UNL     1       3.219   6.649  18.306  0.00  0.00    +0.000 A 
ATOM      3  C   UNL     1       3.028   7.666  17.371  0.00  0.00    +0.000 A 
ATOM      4  C   UNL     1       2.321   8.852  17.712  0.00  0.00    +0.000 A 
ATOM      5  C   UNL     1       1.722   9.014  18.973  0.00  0.00    +0.000 A 
ATOM      6  C   UNL     1       1.823   7.964  19.874  0.00  0.00    +0.000 A 
ATOM      7  C   UNL     1       2.556   6.825  19.531  0.00  0.00    +0.000 A 
ATOM      8  C   UNL     1       1.097   7.910  21.173  0.00  0.00    +0.000 C 
ATOM      9  C   UNL     1       0.641   9.234  21.740  0.00  0.00    +0.000 C 
ATOM     10  C   UNL     1       0.404  10.369  20.758  0.00  0.00    +0.000 C 
ATOM     11  C   UNL     1       0.959  10.257  19.329  0.00  0.00    +0.000 C 
ENDBRANCH   1   2
BRANCH   1  12
ATOM     12  C   UNL     1       4.798   5.010  16.838  0.00  0.00    +0.000 A 
ATOM     13  C   UNL     1       5.008   6.030  15.879  0.00  0.00    +0.000 A 
ATOM     14  C   UNL     1       5.541   5.762  14.615  0.00  0.00    +0.000 A 
ATOM     15  C   UNL     1       5.850   4.459  14.257  0.00  0.00    +0.000 A 
ATOM     16  C   UNL     1       5.646   3.430  15.169  0.00  0.00    +0.000 A 
ATOM     17  C   UNL     1       5.135   3.703  16.444  0.00  0.00    +0.000 A 
ENDBRANCH   1  12
BRANCH   1  18
ATOM     18  C   UNL     1       3.091   4.124  18.596  0.00  0.00    +0.000 A 
ATOM     19  C   UNL     1       3.454   3.161  19.563  0.00  0.00    +0.000 A 
ATOM     20  C   UNL     1       2.635   2.067  19.858  0.00  0.00    +0.000 A 
ATOM     21  C   UNL     1       1.418   1.915  19.209  0.00  0.00    +0.000 A 
ATOM     22  C   UNL     1       0.999   2.883  18.301  0.00  0.00    +0.000 A 
ATOM     23  C   UNL     1       1.817   3.983  18.007  0.00  0.00    +0.000 A 
ENDBRANCH   1  18
BRANCH   1  24
ATOM     24  S   UNL     1       5.543   5.444  19.485  0.00  0.00    +0.000 S 
BRANCH  24  25
ATOM     25  C   UNL     1       6.849   6.232  18.495  0.00  0.00    +0.000 C 
BRANCH  25  26
ATOM     26  C   UNL     1       8.202   5.992  19.170  0.00  0.00    +0.000 C 
BRANCH  26  27
ATOM     27  N   UNL     1       8.020   5.396  20.496  0.00  0.00    +0.000 NA
ATOM     28  H   UNL     1       7.035   5.454  20.752  0.00  0.00    +0.000 HD
ATOM     29  H   UNL     1       8.531   5.942  21.187  0.00  0.00    +0.000 HD
ENDBRANCH  26  27
ENDBRANCH  25  26
ENDBRANCH  24  25
ENDBRANCH   1  24
TORSDOF 7
ENDMDL
MODEL 3
REMARK VINA RESULT:      -8.8      0.792      1.214
REMARK  Name = 
REMARK  7 active torsions:
REMARK  status: ('A' for Active; 'I' for Inactive)
REMARK    1  A    between atoms: N_1  and  C_2
REMARK    2  A    between atoms: C_2  and  C_3
REMARK    3  A    between atoms: C_3  and  S_4
REMARK    4  A    between atoms: S_4  and  C_5
REMARK    5  A    between atoms: C_5  and  C_6
REMARK    6  A    between atoms: C_5  and  C_12
REMARK    7  A    between atoms: C_5  and  C_18
REMARK                            x       y       z     vdW  Elec       q    Type
REMARK                         _______ _______ _______ _____ _____    ______ ____
ROOT
ATOM      1  C   UNL     1       3.973   5.437  18.106  0.00  0.00    +0.000 C 
ENDROOT
BRANCH   1   2
ATOM      2  C   UNL     1       3.163   6.750  18.303  0.00  0.00    +0.000 A 
ATOM      3  C   UNL     1       2.949   7.786  17.396  0.00  0.00    +0.000 A 
ATOM      4  C   UNL     1       2.241   8.960  17.775  0.00  0.00    +0.000 A 
ATOM      5  C   UNL     1       1.664   9.090  19.051  0.00  0.00    +0.000 A 
ATOM      6  C   UNL     1       1.788   8.021  19.925  0.00  0.00    +0.000 A 
ATOM      7  C   UNL     1       2.521   6.895  19.544  0.00  0.00    +0.000 A 
ATOM      8  C   UNL     1       1.086   7.933  21.236  0.00  0.00    +0.000 C 
ATOM      9  C   UNL     1       0.632   9.241  21.840  0.00  0.00    +0.000 C 
ATOM     10  C   UNL     1       0.371  10.397  20.889  0.00  0.00    +0.000 C 
ATOM     11  C   UNL     1       0.900  10.320  19.447  0.00  0.00    +0.000 C 
ENDBRANCH   1   2
BRANCH   1  12
ATOM     12  C   UNL     1       4.630   5.101  16.734  0.00  0.00    +0.000 A 
ATOM     13  C   UNL     1       5.048   3.778  16.457  0.00  0.00    +0.000 A 
ATOM     14  C   UNL     1       5.793   3.457  15.319  0.00  0.00    +0.000 A 
ATOM     15  C   UNL     1       6.174   4.458  14.438  0.00  0.00    +0.000 A 
ATOM     16  C   UNL     1       5.792   5.771  14.684  0.00  0.00    +0.000 A 
ATOM     17  C   UNL     1       5.025   6.087  15.813  0.00  0.00    +0.000 A 
ENDBRANCH   1  12
BRANCH   1  18
ATOM     18  C   UNL     1       3.104   4.230  18.659  0.00  0.00    +0.000 A 
ATOM     19  C   UNL     1       3.493   3.411  19.742  0.00  0.00    +0.000 A 
ATOM     20  C   UNL     1       2.737   2.304  20.138  0.00  0.00    +0.000 A 
ATOM     21  C   UNL     1       1.556   1.997  19.476  0.00  0.00    +0.000 A 
ATOM     22  C   UNL     1       1.109   2.824  18.449  0.00  0.00    +0.000 A 
ATOM     23  C   UNL     1       1.864   3.937  18.054  0.00  0.00    +0.000 A 
ENDBRANCH   1  18
BRANCH   1  24
ATOM     24  S   UNL     1       5.605   5.607  19.292  0.00  0.00    +0.000 S 
BRANCH  24  25
ATOM     25  C   UNL     1       6.948   5.683  18.070  0.00  0.00    +0.000 C 
BRANCH  25  26
ATOM     26  C   UNL     1       7.821   6.907  18.362  0.00  0.00    +0.000 C 
BRANCH  26  27
ATOM     27  N   UNL     1       7.673   7.911  17.306  0.00  0.00    +0.000 NA
ATOM     28  H   UNL     1       8.579   8.343  17.132  0.00  0.00    +0.000 HD
ATOM     29  H   UNL     1       7.056   8.655  17.628  0.00  0.00    +0.000 HD
ENDBRANCH  26  27
ENDBRANCH  25  26
ENDBRANCH  24  25
ENDBRANCH   1  24
TORSDOF 7
ENDMDL
MODEL 4
REMARK VINA RESULT:      -8.7      0.848      1.252
REMARK  Name = 
REMARK  7 active torsions:
REMARK  status: ('A' for Active; 'I' for Inactive)
REMARK    1  A    between atoms: N_1  and  C_2
REMARK    2  A    between atoms: C_2  and  C_3
REMARK    3  A    between atoms: C_3  and  S_4
REMARK    4  A    between atoms: S_4  and  C_5
REMARK    5  A    between atoms: C_5  and  C_6
REMARK    6  A    between atoms: C_5  and  C_12
REMARK    7  A    between atoms: C_5  and  C_18
REMARK                            x       y       z     vdW  Elec       q    Type
REMARK                         _______ _______ _______ _____ _____    ______ ____
ROOT
ATOM      1  C   UNL     1       4.213   5.297  18.060  0.00  0.00    +0.000 C 
ENDROOT
BRANCH   1   2
ATOM      2  C   UNL     1       3.370   6.592  18.236  0.00  0.00    +0.000 A 
ATOM      3  C   UNL     1       3.168   7.630  17.327  0.00  0.00    +0.000 A 
ATOM      4  C   UNL     1       2.423   8.787  17.688  0.00  0.00    +0.000 A 
ATOM      5  C   UNL     1       1.798   8.896  18.943  0.00  0.00    +0.000 A 
ATOM      6  C   UNL     1       1.912   7.824  19.814  0.00  0.00    +0.000 A 
ATOM      7  C   UNL     1       2.681   6.715  19.453  0.00  0.00    +0.000 A 
ATOM      8  C   UNL     1       1.165   7.713  21.098  0.00  0.00    +0.000 C 
ATOM      9  C   UNL     1       0.664   9.008  21.694  0.00  0.00    +0.000 C 
ATOM     10  C   UNL     1       0.414  10.165  20.741  0.00  0.00    +0.000 C 
ATOM     11  C   UNL     1       0.996  10.108  19.319  0.00  0.00    +0.000 C 
ENDBRANCH   1   2
BRANCH   1  12
ATOM     12  C   UNL     1       4.961   5.005  16.725  0.00  0.00    +0.000 A 
ATOM     13  C   UNL     1       5.117   6.032  15.764  0.00  0.00    +0.000 A 
ATOM     14  C   UNL     1       5.625   5.783  14.486  0.00  0.00    +0.000 A 
ATOM     15  C   UNL     1       5.960   4.489  14.116  0.00  0.00    +0.000 A 
ATOM     16  C   UNL     1       5.809   3.453  15.029  0.00  0.00    +0.000 A 
ATOM     17  C   UNL     1       5.323   3.709  16.318  0.00  0.00    +0.000 A 
ENDBRANCH   1  12
BRANCH   1  18
ATOM     18  C   UNL     1       3.331   4.064  18.527  0.00  0.00    +0.000 A 
ATOM     19  C   UNL     1       2.119   3.685  17.909  0.00  0.00    +0.000 A 
ATOM     20  C   UNL     1       1.329   2.646  18.410  0.00  0.00    +0.000 A 
ATOM     21  C   UNL     1       1.741   1.939  19.532  0.00  0.00    +0.000 A 
ATOM     22  C   UNL     1       2.964   2.242  20.123  0.00  0.00    +0.000 A 
ATOM     23  C   UNL     1       3.759   3.281  19.619  0.00  0.00    +0.000 A 
ENDBRANCH   1  18
BRANCH   1  24
ATOM     24  S   UNL     1       5.763   5.463  19.351  0.00  0.00    +0.000 S 
BRANCH  24  25
ATOM     25  C   UNL     1       7.180   5.589  18.219  0.00  0.00    +0.000 C 
BRANCH  25  26
ATOM     26  C   UNL     1       7.872   6.938  18.433  0.00  0.00    +0.000 C 
BRANCH  26  27
ATOM     27  N   UNL     1       7.699   7.799  17.261  0.00  0.00    +0.000 NA
ATOM     28  H   UNL     1       7.958   7.277  16.426  0.00  0.00    +0.000 HD
ATOM     29  H   UNL     1       8.343   8.587  17.320  0.00  0.00    +0.000 HD
ENDBRANCH  26  27
ENDBRANCH  25  26
ENDBRANCH  24  25
ENDBRANCH   1  24
TORSDOF 7
ENDMDL
MODEL 5
REMARK VINA RESULT:      -8.6      2.378      4.820
REMARK  Name = 
REMARK  7 active torsions:
REMARK  status: ('A' for Active; 'I' for Inactive)
REMARK    1  A    between atoms: N_1  and  C_2
REMARK    2  A    between atoms: C_2  and  C_3
REMARK    3  A    between atoms: C_3  and  S_4
REMARK    4  A    between atoms: S_4  and  C_5
REMARK    5  A    between atoms: C_5  and  C_6
REMARK    6  A    between atoms: C_5  and  C_12
REMARK    7  A    between atoms: C_5  and  C_18
REMARK                            x       y       z     vdW  Elec       q    Type
REMARK                         _______ _______ _______ _____ _____    ______ ____
ROOT
ATOM      1  C   UNL     1       3.701   5.518  18.726  0.00  0.00    +0.000 C 
ENDROOT
BRANCH   1   2
ATOM      2  C   UNL     1       2.881   6.839  18.691  0.00  0.00    +0.000 A 
ATOM      3  C   UNL     1       2.652   7.694  17.614  0.00  0.00    +0.000 A 
ATOM      4  C   UNL     1       1.936   8.911  17.783  0.00  0.00    +0.000 A 
ATOM      5  C   UNL     1       1.367   9.264  19.019  0.00  0.00    +0.000 A 
ATOM      6  C   UNL     1       1.507   8.370  20.070  0.00  0.00    +0.000 A 
ATOM      7  C   UNL     1       2.247   7.199  19.891  0.00  0.00    +0.000 A 
ATOM      8  C   UNL     1       0.815   8.514  21.381  0.00  0.00    +0.000 C 
ATOM      9  C   UNL     1       0.354   9.906  21.745  0.00  0.00    +0.000 C 
ATOM     10  C   UNL     1       0.076  10.870  20.603  0.00  0.00    +0.000 C 
ATOM     11  C   UNL     1       0.596  10.540  19.195  0.00  0.00    +0.000 C 
ENDBRANCH   1   2
BRANCH   1  12
ATOM     12  C   UNL     1       3.482   4.470  19.858  0.00  0.00    +0.000 A 
ATOM     13  C   UNL     1       4.189   3.245  19.832  0.00  0.00    +0.000 A 
ATOM     14  C   UNL     1       3.906   2.205  20.722  0.00  0.00    +0.000 A 
ATOM     15  C   UNL     1       2.880   2.345  21.645  0.00  0.00    +0.000 A 
ATOM     16  C   UNL     1       2.156   3.530  21.691  0.00  0.00    +0.000 A 
ATOM     17  C   UNL     1       2.458   4.580  20.815  0.00  0.00    +0.000 A 
ENDBRANCH   1  12
BRANCH   1  18
ATOM     18  C   UNL     1       5.236   5.882  18.544  0.00  0.00    +0.000 A 
ATOM     19  C   UNL     1       6.263   5.397  19.383  0.00  0.00    +0.000 A 
ATOM     20  C   UNL     1       7.590   5.815  19.239  0.00  0.00    +0.000 A 
ATOM     21  C   UNL     1       7.931   6.713  18.238  0.00  0.00    +0.000 A 
ATOM     22  C   UNL     1       6.954   7.156  17.351  0.00  0.00    +0.000 A 
ATOM     23  C   UNL     1       5.624   6.735  17.491  0.00  0.00    +0.000 A 
ENDBRANCH   1  18
BRANCH   1  24
ATOM     24  S   UNL     1       3.127   4.463  17.097  0.00  0.00    +0.000 S 
BRANCH  24  25
ATOM     25  C   UNL     1       1.430   3.986  17.540  0.00  0.00    +0.000 C 
BRANCH  25  26
ATOM     26  C   UNL     1       1.417   2.512  17.953  0.00  0.00    +0.000 C 
BRANCH  26  27
ATOM     27  N   UNL     1       0.330   2.249  18.898  0.00  0.00    +0.000 NA
ATOM     28  H   UNL     1       0.075   1.264  18.844  0.00  0.00    +0.000 HD
ATOM     29  H   UNL     1      -0.497   2.776  18.620  0.00  0.00    +0.000 HD
ENDBRANCH  26  27
ENDBRANCH  25  26
ENDBRANCH  24  25
ENDBRANCH   1  24
TORSDOF 7
ENDMDL
MODEL 6
REMARK VINA RESULT:      -8.5      1.856      4.473
REMARK  Name = 
REMARK  7 active torsions:
REMARK  status: ('A' for Active; 'I' for Inactive)
REMARK    1  A    between atoms: N_1  and  C_2
REMARK    2  A    between atoms: C_2  and  C_3
REMARK    3  A    between atoms: C_3  and  S_4
REMARK    4  A    between atoms: S_4  and  C_5
REMARK    5  A    between atoms: C_5  and  C_6
REMARK    6  A    between atoms: C_5  and  C_12
REMARK    7  A    between atoms: C_5  and  C_18
REMARK                            x       y       z     vdW  Elec       q    Type
REMARK                         _______ _______ _______ _____ _____    ______ ____
ROOT
ATOM      1  C   UNL     1       3.757   5.538  18.665  0.00  0.00    +0.000 C 
ENDROOT
BRANCH   1   2
ATOM      2  C   UNL     1       2.933   6.855  18.613  0.00  0.00    +0.000 A 
ATOM      3  C   UNL     1       2.727   7.712  17.533  0.00  0.00    +0.000 A 
ATOM      4  C   UNL     1       2.002   8.926  17.687  0.00  0.00    +0.000 A 
ATOM      5  C   UNL     1       1.401   9.273  18.910  0.00  0.00    +0.000 A 
ATOM      6  C   UNL     1       1.518   8.377  19.962  0.00  0.00    +0.000 A 
ATOM      7  C   UNL     1       2.267   7.210  19.798  0.00  0.00    +0.000 A 
ATOM      8  C   UNL     1       0.793   8.515  21.256  0.00  0.00    +0.000 C 
ATOM      9  C   UNL     1       0.318   9.905  21.611  0.00  0.00    +0.000 C 
ATOM     10  C   UNL     1       0.065  10.871  20.466  0.00  0.00    +0.000 C 
ATOM     11  C   UNL     1       0.620  10.546  19.070  0.00  0.00    +0.000 C 
ENDBRANCH   1   2
BRANCH   1  12
ATOM     12  C   UNL     1       3.498   4.476  19.776  0.00  0.00    +0.000 A 
ATOM     13  C   UNL     1       4.170   3.231  19.732  0.00  0.00    +0.000 A 
ATOM     14  C   UNL     1       3.849   2.183  20.600  0.00  0.00    +0.000 A 
ATOM     15  C   UNL     1       2.821   2.336  21.517  0.00  0.00    +0.000 A 
ATOM     16  C   UNL     1       2.131   3.540  21.581  0.00  0.00    +0.000 A 
ATOM     17  C   UNL     1       2.470   4.598  20.727  0.00  0.00    +0.000 A 
ENDBRANCH   1  12
BRANCH   1  18
ATOM     18  C   UNL     1       5.295   5.910  18.548  0.00  0.00    +0.000 A 
ATOM     19  C   UNL     1       6.304   5.354  19.366  0.00  0.00    +0.000 A 
ATOM     20  C   UNL     1       7.634   5.777  19.286  0.00  0.00    +0.000 A 
ATOM     21  C   UNL     1       7.998   6.754  18.371  0.00  0.00    +0.000 A 
ATOM     22  C   UNL     1       7.042   7.274  17.503  0.00  0.00    +0.000 A 
ATOM     23  C   UNL     1       5.708   6.847  17.578  0.00  0.00    +0.000 A 
ENDBRANCH   1  18
BRANCH   1  24
ATOM     24  S   UNL     1       3.252   4.500  17.003  0.00  0.00    +0.000 S 
BRANCH  24  25
ATOM     25  C   UNL     1       4.855   3.814  16.490  0.00  0.00    +0.000 C 
BRANCH  25  26
ATOM     26  C   UNL     1       5.202   4.343  15.095  0.00  0.00    +0.000 C 
BRANCH  26  27
ATOM     27  N   UNL     1       6.354   3.627  14.543  0.00  0.00    +0.000 NA
ATOM     28  H   UNL     1       6.026   2.787  14.070  0.00  0.00    +0.000 HD
ATOM     29  H   UNL     1       6.956   3.314  15.303  0.00  0.00    +0.000 HD
ENDBRANCH  26  27
ENDBRANCH  25  26
ENDBRANCH  24  25
ENDBRANCH   1  24
TORSDOF 7
ENDMDL
MODEL 7
REMARK VINA RESULT:      -8.5      1.735      4.199
REMARK  Name = 
REMARK  7 active torsions:
REMARK  status: ('A' for Active; 'I' for Inactive)
REMARK    1  A    between atoms: N_1  and  C_2
REMARK    2  A    between atoms: C_2  and  C_3
REMARK    3  A    between atoms: C_3  and  S_4
REMARK    4  A    between atoms: S_4  and  C_5
REMARK    5  A    between atoms: C_5  and  C_6
REMARK    6  A    between atoms: C_5  and  C_12
REMARK    7  A    between atoms: C_5  and  C_18
REMARK                            x       y       z     vdW  Elec       q    Type
REMARK                         _______ _______ _______ _____ _____    ______ ____
ROOT
ATOM      1  C   UNL     1       4.467   5.543  17.620  0.00  0.00    +0.000 C 
ENDROOT
BRANCH   1   2
ATOM      2  C   UNL     1       3.491   6.716  17.921  0.00  0.00    +0.000 A 
ATOM      3  C   UNL     1       3.100   7.761  17.085  0.00  0.00    +0.000 A 
ATOM      4  C   UNL     1       2.251   8.800  17.556  0.00  0.00    +0.000 A 
ATOM      5  C   UNL     1       1.710   8.775  18.854  0.00  0.00    +0.000 A 
ATOM      6  C   UNL     1       2.015   7.687  19.657  0.00  0.00    +0.000 A 
ATOM      7  C   UNL     1       2.882   6.698  19.187  0.00  0.00    +0.000 A 
ATOM      8  C   UNL     1       1.382   7.428  20.981  0.00  0.00    +0.000 C 
ATOM      9  C   UNL     1       0.774   8.623  21.677  0.00  0.00    +0.000 C 
ATOM     10  C   UNL     1       0.319   9.782  20.806  0.00  0.00    +0.000 C 
ATOM     11  C   UNL     1       0.799   9.862  19.347  0.00  0.00    +0.000 C 
ENDBRANCH   1   2
BRANCH   1  12
ATOM     12  C   UNL     1       4.116   4.083  18.037  0.00  0.00    +0.000 A 
ATOM     13  C   UNL     1       3.025   3.419  17.429  0.00  0.00    +0.000 A 
ATOM     14  C   UNL     1       2.562   2.181  17.884  0.00  0.00    +0.000 A 
ATOM     15  C   UNL     1       3.157   1.583  18.984  0.00  0.00    +0.000 A 
ATOM     16  C   UNL     1       4.223   2.212  19.615  0.00  0.00    +0.000 A 
ATOM     17  C   UNL     1       4.701   3.442  19.143  0.00  0.00    +0.000 A 
ENDBRANCH   1  12
BRANCH   1  18
ATOM     18  C   UNL     1       5.916   5.967  18.109  0.00  0.00    +0.000 A 
ATOM     19  C   UNL     1       6.610   5.328  19.160  0.00  0.00    +0.000 A 
ATOM     20  C   UNL     1       7.848   5.792  19.615  0.00  0.00    +0.000 A 
ATOM     21  C   UNL     1       8.439   6.896  19.018  0.00  0.00    +0.000 A 
ATOM     22  C   UNL     1       7.813   7.507  17.934  0.00  0.00    +0.000 A 
ATOM     23  C   UNL     1       6.574   7.040  17.474  0.00  0.00    +0.000 A 
ENDBRANCH   1  18
BRANCH   1  24
ATOM     24  S   UNL     1       4.528   5.373  15.605  0.00  0.00    +0.000 S 
BRANCH  24  25
ATOM     25  C   UNL     1       5.831   4.127  15.375  0.00  0.00    +0.000 C 
BRANCH  25  26
ATOM     26  C   UNL     1       6.648   4.482  14.130  0.00  0.00    +0.000 C 
BRANCH  26  27
ATOM     27  N   UNL     1       7.708   5.437  14.461  0.00  0.00    +0.000 NA
ATOM     28  H   UNL     1       8.513   5.260  13.863  0.00  0.00    +0.000 HD
ATOM     29  H   UNL     1       8.020   5.280  15.418  0.00  0.00    +0.000 HD
ENDBRANCH  26  27
ENDBRANCH  25  26
ENDBRANCH  24  25
ENDBRANCH   1  24
TORSDOF 7
ENDMDL
MODEL 8
REMARK VINA RESULT:      -8.4      1.663      4.397
REMARK  Name = 
REMARK  7 active torsions:
REMARK  status: ('A' for Active; 'I' for Inactive)
REMARK    1  A    between atoms: N_1  and  C_2
REMARK    2  A    between atoms: C_2  and  C_3
REMARK    3  A    between atoms: C_3  and  S_4
REMARK    4  A    between atoms: S_4  and  C_5
REMARK    5  A    between atoms: C_5  and  C_6
REMARK    6  A    between atoms: C_5  and  C_12
REMARK    7  A    between atoms: C_5  and  C_18
REMARK                            x       y       z     vdW  Elec       q    Type
REMARK                         _______ _______ _______ _____ _____    ______ ____
ROOT
ATOM      1  C   UNL     1       4.023   5.446  18.352  0.00  0.00    +0.000 C 
ENDROOT
BRANCH   1   2
ATOM      2  C   UNL     1       3.146   6.729  18.407  0.00  0.00    +0.000 A 
ATOM      3  C   UNL     1       2.861   7.634  17.386  0.00  0.00    +0.000 A 
ATOM      4  C   UNL     1       2.096   8.806  17.637  0.00  0.00    +0.000 A 
ATOM      5  C   UNL     1       1.533   9.060  18.899  0.00  0.00    +0.000 A 
ATOM      6  C   UNL     1       1.729   8.114  19.894  0.00  0.00    +0.000 A 
ATOM      7  C   UNL     1       2.516   6.989  19.635  0.00  0.00    +0.000 A 
ATOM      8  C   UNL     1       1.053   8.150  21.221  0.00  0.00    +0.000 C 
ATOM      9  C   UNL     1       0.538   9.496  21.672  0.00  0.00    +0.000 C 
ATOM     10  C   UNL     1       0.200  10.512  20.594  0.00  0.00    +0.000 C 
ATOM     11  C   UNL     1       0.710  10.288  19.161  0.00  0.00    +0.000 C 
ENDBRANCH   1   2
BRANCH   1  12
ATOM     12  C   UNL     1       3.717   4.227  19.273  0.00  0.00    +0.000 A 
ATOM     13  C   UNL     1       2.606   4.267  20.149  0.00  0.00    +0.000 A 
ATOM     14  C   UNL     1       2.386   3.279  21.114  0.00  0.00    +0.000 A 
ATOM     15  C   UNL     1       3.289   2.238  21.255  0.00  0.00    +0.000 A 
ATOM     16  C   UNL     1       4.398   2.173  20.421  0.00  0.00    +0.000 A 
ATOM     17  C   UNL     1       4.605   3.150  19.438  0.00  0.00    +0.000 A 
ENDBRANCH   1  12
BRANCH   1  18
ATOM     18  C   UNL     1       5.547   5.883  18.435  0.00  0.00    +0.000 A 
ATOM     19  C   UNL     1       6.479   5.317  19.332  0.00  0.00    +0.000 A 
ATOM     20  C   UNL     1       7.790   5.795  19.431  0.00  0.00    +0.000 A 
ATOM     21  C   UNL     1       8.212   6.839  18.621  0.00  0.00    +0.000 A 
ATOM     22  C   UNL     1       7.338   7.373  17.678  0.00  0.00    +0.000 A 
ATOM     23  C   UNL     1       6.025   6.892  17.574  0.00  0.00    +0.000 A 
ENDBRANCH   1  18
BRANCH   1  24
ATOM     24  S   UNL     1       3.719   4.642  16.520  0.00  0.00    +0.000 S 
BRANCH  24  25
ATOM     25  C   UNL     1       5.361   3.966  16.131  0.00  0.00    +0.000 C 
BRANCH  25  26
ATOM     26  C   UNL     1       5.837   4.548  14.797  0.00  0.00    +0.000 C 
BRANCH  26  27
ATOM     27  N   UNL     1       7.224   5.007  14.899  0.00  0.00    +0.000 NA
ATOM     28  H   UNL     1       7.845   4.247  14.626  0.00  0.00    +0.000 HD
ATOM     29  H   UNL     1       7.441   5.222  15.871  0.00  0.00    +0.000 HD
ENDBRANCH  26  27
ENDBRANCH  25  26
ENDBRANCH  24  25
ENDBRANCH   1  24
TORSDOF 7
ENDMDL
MODEL 9
REMARK VINA RESULT:      -8.1      3.729      8.230
REMARK  Name = 
REMARK  7 active torsions:
REMARK  status: ('A' for Active; 'I' for Inactive)
REMARK    1  A    between atoms: N_1  and  C_2
REMARK    2  A    between atoms: C_2  and  C_3
REMARK    3  A    between atoms: C_3  and  S_4
REMARK    4  A    between atoms: S_4  and  C_5
REMARK    5  A    between atoms: C_5  and  C_6
REMARK    6  A    between atoms: C_5  and  C_12
REMARK    7  A    between atoms: C_5  and  C_18
REMARK                            x       y       z     vdW  Elec       q    Type
REMARK                         _______ _______ _______ _____ _____    ______ ____
ROOT
ATOM      1  C   UNL     1      -0.385  11.067  19.242  0.00  0.00    +0.000 C 
ENDROOT
BRANCH   1   2
ATOM      2  C   UNL     1       0.671   9.968  18.933  0.00  0.00    +0.000 A 
ATOM      3  C   UNL     1       1.591   9.913  17.887  0.00  0.00    +0.000 A 
ATOM      4  C   UNL     1       2.436   8.783  17.711  0.00  0.00    +0.000 A 
ATOM      5  C   UNL     1       2.433   7.714  18.624  0.00  0.00    +0.000 A 
ATOM      6  C   UNL     1       1.591   7.807  19.722  0.00  0.00    +0.000 A 
ATOM      7  C   UNL     1       0.742   8.908  19.853  0.00  0.00    +0.000 A 
ATOM      8  C   UNL     1       1.602   6.849  20.862  0.00  0.00    +0.000 C 
ATOM      9  C   UNL     1       2.187   5.484  20.583  0.00  0.00    +0.000 C 
ATOM     10  C   UNL     1       3.207   5.378  19.462  0.00  0.00    +0.000 C 
ATOM     11  C   UNL     1       3.338   6.528  18.451  0.00  0.00    +0.000 C 
ENDBRANCH   1   2
BRANCH   1  12
ATOM     12  C   UNL     1      -0.830  11.358  20.707  0.00  0.00    +0.000 A 
ATOM     13  C   UNL     1      -0.433  10.490  21.751  0.00  0.00    +0.000 A 
ATOM     14  C   UNL     1      -0.941  10.606  23.048  0.00  0.00    +0.000 A 
ATOM     15  C   UNL     1      -1.892  11.575  23.333  0.00  0.00    +0.000 A 
ATOM     16  C   UNL     1      -2.315  12.437  22.329  0.00  0.00    +0.000 A 
ATOM     17  C   UNL     1      -1.786  12.335  21.036  0.00  0.00    +0.000 A 
ENDBRANCH   1  12
BRANCH   1  18
ATOM     18  C   UNL     1      -1.626  10.848  18.278  0.00  0.00    +0.000 A 
ATOM     19  C   UNL     1      -1.633   9.936  17.199  0.00  0.00    +0.000 A 
ATOM     20  C   UNL     1      -2.717   9.840  16.322  0.00  0.00    +0.000 A 
ATOM     21  C   UNL     1      -3.836  10.639  16.511  0.00  0.00    +0.000 A 
ATOM     22  C   UNL     1      -3.890  11.498  17.604  0.00  0.00    +0.000 A 
ATOM     23  C   UNL     1      -2.805  11.592  18.488  0.00  0.00    +0.000 A 
ENDBRANCH   1  18
BRANCH   1  24
ATOM     24  S   UNL     1       0.478  12.825  18.736  0.00  0.00    +0.000 S 
BRANCH  24  25
ATOM     25  C   UNL     1       1.858  12.917  19.916  0.00  0.00    +0.000 C 
BRANCH  25  26
ATOM     26  C   UNL     1       2.965  13.793  19.323  0.00  0.00    +0.000 C 
BRANCH  26  27
ATOM     27  N   UNL     1       3.227  13.423  17.930  0.00  0.00    +0.000 NA
ATOM     28  H   UNL     1       3.199  12.409  17.846  0.00  0.00    +0.000 HD
ATOM     29  H   UNL     1       4.171  13.708  17.674  0.00  0.00    +0.000 HD
ENDBRANCH  26  27
ENDBRANCH  25  26
ENDBRANCH  24  25
ENDBRANCH   1  24
TORSDOF 7
ENDMDL
