MODEL 1
REMARK VINA RESULT:      -8.2      0.000      0.000
REMARK  Name = 
REMARK  6 active torsions:
REMARK  status: ('A' for Active; 'I' for Inactive)
REMARK    1  A    between atoms: C_1  and  C_2
REMARK    2  A    between atoms: C_4  and  C_5
REMARK    3  A    between atoms: N_7  and  N_8
REMARK    4  A    between atoms: C_9  and  C_10
REMARK    5  A    between atoms: C_13  and  C_14
REMARK    6  A    between atoms: C_18  and  N_19
REMARK                            x       y       z     vdW  Elec       q    Type
REMARK                         _______ _______ _______ _____ _____    ______ ____
ROOT
ATOM      1  C   UNL     1       3.274   5.232  19.490  0.00  0.00    +0.000 A 
ATOM      2  C   UNL     1       2.433   4.905  20.538  0.00  0.00    +0.000 A 
ATOM      3  C   UNL     1       1.657   6.051  20.807  0.00  0.00    +0.000 A 
ATOM      4  C   UNL     1       2.066   7.027  19.920  0.00  0.00    +0.000 A 
ATOM      5  O   UNL     1       3.059   6.528  19.115  0.00  0.00    +0.000 OA
ENDROOT
BRANCH   4   6
ATOM      6  C   UNL     1       1.668   8.415  19.703  0.00  0.00    +0.000 A 
ATOM      7  C   UNL     1       1.795   8.993  18.426  0.00  0.00    +0.000 A 
ATOM      8  C   UNL     1       1.396  10.310  18.179  0.00  0.00    +0.000 A 
ATOM      9  C   UNL     1       0.862  11.079  19.209  0.00  0.00    +0.000 A 
ATOM     10  C   UNL     1       0.737  10.519  20.487  0.00  0.00    +0.000 A 
ATOM     11  C   UNL     1       1.139   9.198  20.739  0.00  0.00    +0.000 A 
BRANCH  10  12
ATOM     12  N   UNL     1       0.170  11.324  21.576  0.00  0.00    +0.000 N 
ATOM     13  O   UNL     1       0.084  10.800  22.696  0.00  0.00    +0.000 OA
ATOM     14  O   UNL     1      -0.189  12.481  21.313  0.00  0.00    +0.000 OA
ENDBRANCH  10  12
ENDBRANCH   4   6
BRANCH   1  16
ATOM     15  N   UNL     1       5.498   4.721  19.038  0.00  0.00    +0.000 NA
ATOM     16  C   UNL     1       4.259   4.441  18.801  0.00  0.00    +0.000 C 
BRANCH  15  19
ATOM     17  C   UNL     1       7.431   4.696  17.611  0.00  0.00    +0.000 C 
ATOM     18  O   UNL     1       8.214   4.045  16.924  0.00  0.00    +0.000 OA
ATOM     19  N   UNL     1       6.487   4.033  18.405  0.00  0.00    +0.000 N 
ATOM     20  H   UNL     1       6.473   3.019  18.344  0.00  0.00    +0.000 HD
BRANCH  17  24
ATOM     21  C   UNL     1       8.230   9.683  18.218  0.00  0.00    +0.000 C 
ATOM     22  C   UNL     1       7.719   8.337  17.872  0.00  0.00    +0.000 A 
ATOM     23  C   UNL     1       8.155   7.069  18.337  0.00  0.00    +0.000 A 
ATOM     24  C   UNL     1       7.401   6.145  17.639  0.00  0.00    +0.000 A 
ATOM     25  N   UNL     1       6.545   6.902  16.888  0.00  0.00    +0.000 N 
ATOM     26  N   UNL     1       6.723   8.223  16.987  0.00  0.00    +0.000 NA
ATOM     27  H   UNL     1       5.868   6.537  16.227  0.00  0.00    +0.000 HD
ENDBRANCH  17  24
ENDBRANCH  15  19
ENDBRANCH   1  16
TORSDOF 5
ENDMDL
MODEL 2
REMARK VINA RESULT:      -8.1      1.507      1.836
REMARK  Name = 
REMARK  6 active torsions:
REMARK  status: ('A' for Active; 'I' for Inactive)
REMARK    1  A    between atoms: C_1  and  C_2
REMARK    2  A    between atoms: C_4  and  C_5
REMARK    3  A    between atoms: N_7  and  N_8
REMARK    4  A    between atoms: C_9  and  C_10
REMARK    5  A    between atoms: C_13  and  C_14
REMARK    6  A    between atoms: C_18  and  N_19
REMARK                            x       y       z     vdW  Elec       q    Type
REMARK                         _______ _______ _______ _____ _____    ______ ____
ROOT
ATOM      1  C   UNL     1       2.826   4.558  19.176  0.00  0.00    +0.000 A 
ATOM      2  C   UNL     1       2.392   4.138  20.420  0.00  0.00    +0.000 A 
ATOM      3  C   UNL     1       1.824   5.264  21.051  0.00  0.00    +0.000 A 
ATOM      4  C   UNL     1       1.946   6.320  20.170  0.00  0.00    +0.000 A 
ATOM      5  O   UNL     1       2.562   5.889  19.022  0.00  0.00    +0.000 OA
ENDROOT
BRANCH   4   6
ATOM      6  C   UNL     1       1.572   7.730  20.236  0.00  0.00    +0.000 A 
ATOM      7  C   UNL     1       1.643   8.532  19.082  0.00  0.00    +0.000 A 
ATOM      8  C   UNL     1       1.265   9.878  19.106  0.00  0.00    +0.000 A 
ATOM      9  C   UNL     1       0.808  10.450  20.290  0.00  0.00    +0.000 A 
ATOM     10  C   UNL     1       0.740   9.666  21.448  0.00  0.00    +0.000 A 
ATOM     11  C   UNL     1       1.122   8.315  21.428  0.00  0.00    +0.000 A 
BRANCH  10  12
ATOM     12  N   UNL     1       0.255  10.263  22.698  0.00  0.00    +0.000 N 
ATOM     13  O   UNL     1       0.378   9.601  23.739  0.00  0.00    +0.000 OA
ATOM     14  O   UNL     1      -0.247  11.395  22.641  0.00  0.00    +0.000 OA
ENDBRANCH  10  12
ENDBRANCH   4   6
BRANCH   1  16
ATOM     15  N   UNL     1       4.005   4.523  17.171  0.00  0.00    +0.000 NA
ATOM     16  C   UNL     1       3.461   3.826  18.112  0.00  0.00    +0.000 C 
BRANCH  15  19
ATOM     17  C   UNL     1       5.958   4.112  15.834  0.00  0.00    +0.000 C 
ATOM     18  O   UNL     1       6.437   3.669  14.792  0.00  0.00    +0.000 OA
ATOM     19  N   UNL     1       4.603   3.901  16.118  0.00  0.00    +0.000 N 
ATOM     20  H   UNL     1       4.061   3.412  15.413  0.00  0.00    +0.000 HD
BRANCH  17  24
ATOM     21  C   UNL     1       8.318   7.616  18.668  0.00  0.00    +0.000 C 
ATOM     22  C   UNL     1       7.753   6.380  18.079  0.00  0.00    +0.000 A 
ATOM     23  C   UNL     1       7.133   6.194  16.816  0.00  0.00    +0.000 A 
ATOM     24  C   UNL     1       6.715   4.877  16.804  0.00  0.00    +0.000 A 
ATOM     25  N   UNL     1       7.167   4.366  17.988  0.00  0.00    +0.000 N 
ATOM     26  N   UNL     1       7.776   5.247  18.789  0.00  0.00    +0.000 NA
ATOM     27  H   UNL     1       7.003   3.421  18.319  0.00  0.00    +0.000 HD
ENDBRANCH  17  24
ENDBRANCH  15  19
ENDBRANCH   1  16
TORSDOF 5
ENDMDL
MODEL 3
REMARK VINA RESULT:      -7.9      1.301      1.482
REMARK  Name = 
REMARK  6 active torsions:
REMARK  status: ('A' for Active; 'I' for Inactive)
REMARK    1  A    between atoms: C_1  and  C_2
REMARK    2  A    between atoms: C_4  and  C_5
REMARK    3  A    between atoms: N_7  and  N_8
REMARK    4  A    between atoms: C_9  and  C_10
REMARK    5  A    between atoms: C_13  and  C_14
REMARK    6  A    between atoms: C_18  and  N_19
REMARK                            x       y       z     vdW  Elec       q    Type
REMARK                         _______ _______ _______ _____ _____    ______ ____
ROOT
ATOM      1  C   UNL     1       3.316   4.426  19.409  0.00  0.00    +0.000 A 
ATOM      2  C   UNL     1       2.630   3.966  20.517  0.00  0.00    +0.000 A 
ATOM      3  C   UNL     1       1.878   5.053  21.008  0.00  0.00    +0.000 A 
ATOM      4  C   UNL     1       2.147   6.128  20.185  0.00  0.00    +0.000 A 
ATOM      5  O   UNL     1       3.030   5.746  19.206  0.00  0.00    +0.000 OA
ENDROOT
BRANCH   4   6
ATOM      6  C   UNL     1       1.700   7.518  20.172  0.00  0.00    +0.000 A 
ATOM      7  C   UNL     1       1.835   8.291  19.004  0.00  0.00    +0.000 A 
ATOM      8  C   UNL     1       1.390   9.616  18.951  0.00  0.00    +0.000 A 
ATOM      9  C   UNL     1       0.801  10.196  20.071  0.00  0.00    +0.000 A 
ATOM     10  C   UNL     1       0.668   9.442  21.243  0.00  0.00    +0.000 A 
ATOM     11  C   UNL     1       1.116   8.112  21.300  0.00  0.00    +0.000 A 
BRANCH  10  12
ATOM     12  N   UNL     1       0.044  10.047  22.425  0.00  0.00    +0.000 N 
ATOM     13  O   UNL     1       0.503   9.747  23.537  0.00  0.00    +0.000 OA
ATOM     14  O   UNL     1      -0.904  10.826  22.244  0.00  0.00    +0.000 OA
ENDBRANCH  10  12
ENDBRANCH   4   6
BRANCH   1  16
ATOM     15  N   UNL     1       4.220   4.137  17.284  0.00  0.00    +0.000 NA
ATOM     16  C   UNL     1       4.213   3.742  18.515  0.00  0.00    +0.000 C 
BRANCH  15  19
ATOM     17  C   UNL     1       6.153   4.170  15.859  0.00  0.00    +0.000 C 
ATOM     18  O   UNL     1       6.772   3.663  14.926  0.00  0.00    +0.000 OA
ATOM     19  N   UNL     1       5.024   3.522  16.375  0.00  0.00    +0.000 N 
ATOM     20  H   UNL     1       4.744   2.661  15.915  0.00  0.00    +0.000 HD
BRANCH  17  24
ATOM     21  C   UNL     1       8.241   8.104  18.316  0.00  0.00    +0.000 C 
ATOM     22  C   UNL     1       7.395   7.190  17.516  0.00  0.00    +0.000 A 
ATOM     23  C   UNL     1       7.473   5.778  17.392  0.00  0.00    +0.000 A 
ATOM     24  C   UNL     1       6.509   5.438  16.463  0.00  0.00    +0.000 A 
ATOM     25  N   UNL     1       5.892   6.621  16.165  0.00  0.00    +0.000 N 
ATOM     26  N   UNL     1       6.413   7.697  16.763  0.00  0.00    +0.000 NA
ATOM     27  H   UNL     1       5.149   6.738  15.485  0.00  0.00    +0.000 HD
ENDBRANCH  17  24
ENDBRANCH  15  19
ENDBRANCH   1  16
TORSDOF 5
ENDMDL
MODEL 4
REMARK VINA RESULT:      -7.8      4.308      6.095
REMARK  Name = 
REMARK  6 active torsions:
REMARK  status: ('A' for Active; 'I' for Inactive)
REMARK    1  A    between atoms: C_1  and  C_2
REMARK    2  A    between atoms: C_4  and  C_5
REMARK    3  A    between atoms: N_7  and  N_8
REMARK    4  A    between atoms: C_9  and  C_10
REMARK    5  A    between atoms: C_13  and  C_14
REMARK    6  A    between atoms: C_18  and  N_19
REMARK                            x       y       z     vdW  Elec       q    Type
REMARK                         _______ _______ _______ _____ _____    ______ ____
ROOT
ATOM      1  C   UNL     1       1.258   9.401  18.573  0.00  0.00    +0.000 A 
ATOM      2  C   UNL     1       0.845   9.759  19.843  0.00  0.00    +0.000 A 
ATOM      3  C   UNL     1      -0.484  10.214  19.723  0.00  0.00    +0.000 A 
ATOM      4  C   UNL     1      -0.818  10.125  18.387  0.00  0.00    +0.000 A 
ATOM      5  O   UNL     1       0.249   9.630  17.680  0.00  0.00    +0.000 OA
ENDROOT
BRANCH   4   6
ATOM      6  C   UNL     1      -2.024  10.452  17.630  0.00  0.00    +0.000 A 
ATOM      7  C   UNL     1      -3.051  11.202  18.232  0.00  0.00    +0.000 A 
ATOM      8  C   UNL     1      -4.205  11.556  17.526  0.00  0.00    +0.000 A 
ATOM      9  C   UNL     1      -4.354  11.163  16.199  0.00  0.00    +0.000 A 
ATOM     10  C   UNL     1      -3.344  10.409  15.589  0.00  0.00    +0.000 A 
ATOM     11  C   UNL     1      -2.185  10.050  16.297  0.00  0.00    +0.000 A 
BRANCH  10  12
ATOM     12  N   UNL     1      -3.495   9.996  14.190  0.00  0.00    +0.000 N 
ATOM     13  O   UNL     1      -4.644   9.823  13.760  0.00  0.00    +0.000 OA
ATOM     14  O   UNL     1      -2.464   9.847  13.517  0.00  0.00    +0.000 OA
ENDBRANCH  10  12
ENDBRANCH   4   6
BRANCH   1  16
ATOM     15  N   UNL     1       2.598   7.572  18.055  0.00  0.00    +0.000 NA
ATOM     16  C   UNL     1       2.510   8.860  18.115  0.00  0.00    +0.000 C 
BRANCH  15  19
ATOM     17  C   UNL     1       4.225   5.817  18.270  0.00  0.00    +0.000 C 
ATOM     18  O   UNL     1       5.347   5.394  18.005  0.00  0.00    +0.000 OA
ATOM     19  N   UNL     1       3.760   6.985  17.655  0.00  0.00    +0.000 N 
ATOM     20  H   UNL     1       4.406   7.459  17.030  0.00  0.00    +0.000 HD
BRANCH  17  24
ATOM     21  C   UNL     1       1.330   2.720  21.083  0.00  0.00    +0.000 C 
ATOM     22  C   UNL     1       2.062   3.860  20.485  0.00  0.00    +0.000 A 
ATOM     23  C   UNL     1       2.769   3.921  19.255  0.00  0.00    +0.000 A 
ATOM     24  C   UNL     1       3.332   5.182  19.220  0.00  0.00    +0.000 A 
ATOM     25  N   UNL     1       2.875   5.791  20.355  0.00  0.00    +0.000 N 
ATOM     26  N   UNL     1       2.126   5.018  21.149  0.00  0.00    +0.000 NA
ATOM     27  H   UNL     1       3.125   6.726  20.659  0.00  0.00    +0.000 HD
ENDBRANCH  17  24
ENDBRANCH  15  19
ENDBRANCH   1  16
TORSDOF 5
ENDMDL
MODEL 5
REMARK VINA RESULT:      -7.7      1.506      2.343
REMARK  Name = 
REMARK  6 active torsions:
REMARK  status: ('A' for Active; 'I' for Inactive)
REMARK    1  A    between atoms: C_1  and  C_2
REMARK    2  A    between atoms: C_4  and  C_5
REMARK    3  A    between atoms: N_7  and  N_8
REMARK    4  A    between atoms: C_9  and  C_10
REMARK    5  A    between atoms: C_13  and  C_14
REMARK    6  A    between atoms: C_18  and  N_19
REMARK                            x       y       z     vdW  Elec       q    Type
REMARK                         _______ _______ _______ _____ _____    ______ ____
ROOT
ATOM      1  C   UNL     1       2.949   7.212  18.583  0.00  0.00    +0.000 A 
ATOM      2  C   UNL     1       2.517   8.007  17.538  0.00  0.00    +0.000 A 
ATOM      3  C   UNL     1       1.622   8.948  18.089  0.00  0.00    +0.000 A 
ATOM      4  C   UNL     1       1.541   8.678  19.440  0.00  0.00    +0.000 A 
ATOM      5  O   UNL     1       2.351   7.613  19.744  0.00  0.00    +0.000 OA
ENDROOT
BRANCH   4   6
ATOM      6  C   UNL     1       0.787   9.276  20.539  0.00  0.00    +0.000 A 
ATOM      7  C   UNL     1       0.939   8.782  21.848  0.00  0.00    +0.000 A 
ATOM      8  C   UNL     1       0.253   9.351  22.925  0.00  0.00    +0.000 A 
ATOM      9  C   UNL     1      -0.603  10.427  22.713  0.00  0.00    +0.000 A 
ATOM     10  C   UNL     1      -0.771  10.924  21.414  0.00  0.00    +0.000 A 
ATOM     11  C   UNL     1      -0.086  10.353  20.330  0.00  0.00    +0.000 A 
BRANCH  10  12
ATOM     12  N   UNL     1      -1.669  12.061  21.186  0.00  0.00    +0.000 N 
ATOM     13  O   UNL     1      -2.547  12.282  22.033  0.00  0.00    +0.000 OA
ATOM     14  O   UNL     1      -1.498  12.736  20.160  0.00  0.00    +0.000 OA
ENDBRANCH  10  12
ENDBRANCH   4   6
BRANCH   1  16
ATOM     15  N   UNL     1       4.720   6.049  17.621  0.00  0.00    +0.000 NA
ATOM     16  C   UNL     1       3.877   6.112  18.598  0.00  0.00    +0.000 C 
BRANCH  15  19
ATOM     17  C   UNL     1       6.990   5.270  17.524  0.00  0.00    +0.000 C 
ATOM     18  O   UNL     1       7.769   4.345  17.304  0.00  0.00    +0.000 OA
ATOM     19  N   UNL     1       5.612   5.024  17.554  0.00  0.00    +0.000 N 
ATOM     20  H   UNL     1       5.315   4.074  17.349  0.00  0.00    +0.000 HD
BRANCH  17  24
ATOM     21  C   UNL     1       9.147   9.652  18.947  0.00  0.00    +0.000 C 
ATOM     22  C   UNL     1       8.337   8.579  18.325  0.00  0.00    +0.000 A 
ATOM     23  C   UNL     1       8.228   7.213  18.695  0.00  0.00    +0.000 A 
ATOM     24  C   UNL     1       7.411   6.639  17.740  0.00  0.00    +0.000 A 
ATOM     25  N   UNL     1       7.040   7.683  16.938  0.00  0.00    +0.000 N 
ATOM     26  N   UNL     1       7.595   8.859  17.248  0.00  0.00    +0.000 NA
ATOM     27  H   UNL     1       6.461   7.607  16.109  0.00  0.00    +0.000 HD
ENDBRANCH  17  24
ENDBRANCH  15  19
ENDBRANCH   1  16
TORSDOF 5
ENDMDL
MODEL 6
REMARK VINA RESULT:      -7.6      1.952      2.576
REMARK  Name = 
REMARK  6 active torsions:
REMARK  status: ('A' for Active; 'I' for Inactive)
REMARK    1  A    between atoms: C_1  and  C_2
REMARK    2  A    between atoms: C_4  and  C_5
REMARK    3  A    between atoms: N_7  and  N_8
REMARK    4  A    between atoms: C_9  and  C_10
REMARK    5  A    between atoms: C_13  and  C_14
REMARK    6  A    between atoms: C_18  and  N_19
REMARK                            x       y       z     vdW  Elec       q    Type
REMARK                         _______ _______ _______ _____ _____    ______ ____
ROOT
ATOM      1  C   UNL     1       2.854   4.272  19.197  0.00  0.00    +0.000 A 
ATOM      2  C   UNL     1       2.467   3.782  20.430  0.00  0.00    +0.000 A 
ATOM      3  C   UNL     1       1.883   4.859  21.128  0.00  0.00    +0.000 A 
ATOM      4  C   UNL     1       1.949   5.957  20.295  0.00  0.00    +0.000 A 
ATOM      5  O   UNL     1       2.546   5.600  19.112  0.00  0.00    +0.000 OA
ENDROOT
BRANCH   4   6
ATOM      6  C   UNL     1       1.535   7.351  20.438  0.00  0.00    +0.000 A 
ATOM      7  C   UNL     1       0.976   7.799  21.649  0.00  0.00    +0.000 A 
ATOM      8  C   UNL     1       0.596   9.132  21.827  0.00  0.00    +0.000 A 
ATOM      9  C   UNL     1       0.767  10.047  20.792  0.00  0.00    +0.000 A 
ATOM     10  C   UNL     1       1.314   9.613  19.578  0.00  0.00    +0.000 A 
ATOM     11  C   UNL     1       1.694   8.274  19.395  0.00  0.00    +0.000 A 
BRANCH  10  12
ATOM     12  N   UNL     1       1.501  10.575  18.485  0.00  0.00    +0.000 N 
ATOM     13  O   UNL     1       0.975  11.691  18.603  0.00  0.00    +0.000 OA
ATOM     14  O   UNL     1       2.175  10.216  17.508  0.00  0.00    +0.000 OA
ENDBRANCH  10  12
ENDBRANCH   4   6
BRANCH   1  16
ATOM     15  N   UNL     1       4.076   4.364  17.219  0.00  0.00    +0.000 NA
ATOM     16  C   UNL     1       3.481   3.610  18.083  0.00  0.00    +0.000 C 
BRANCH  15  19
ATOM     17  C   UNL     1       6.004   4.105  15.809  0.00  0.00    +0.000 C 
ATOM     18  O   UNL     1       6.471   3.726  14.738  0.00  0.00    +0.000 OA
ATOM     19  N   UNL     1       4.672   3.813  16.127  0.00  0.00    +0.000 N 
ATOM     20  H   UNL     1       4.133   3.321  15.421  0.00  0.00    +0.000 HD
BRANCH  17  24
ATOM     21  C   UNL     1       8.302   7.623  18.675  0.00  0.00    +0.000 C 
ATOM     22  C   UNL     1       7.763   6.383  18.072  0.00  0.00    +0.000 A 
ATOM     23  C   UNL     1       7.134   6.201  16.813  0.00  0.00    +0.000 A 
ATOM     24  C   UNL     1       6.752   4.874  16.783  0.00  0.00    +0.000 A 
ATOM     25  N   UNL     1       7.231   4.355  17.953  0.00  0.00    +0.000 N 
ATOM     26  N   UNL     1       7.826   5.239  18.762  0.00  0.00    +0.000 NA
ATOM     27  H   UNL     1       7.097   3.401  18.269  0.00  0.00    +0.000 HD
ENDBRANCH  17  24
ENDBRANCH  15  19
ENDBRANCH   1  16
TORSDOF 5
ENDMDL
MODEL 7
REMARK VINA RESULT:      -7.6      3.788      8.364
REMARK  Name = 
REMARK  6 active torsions:
REMARK  status: ('A' for Active; 'I' for Inactive)
REMARK    1  A    between atoms: C_1  and  C_2
REMARK    2  A    between atoms: C_4  and  C_5
REMARK    3  A    between atoms: N_7  and  N_8
REMARK    4  A    between atoms: C_9  and  C_10
REMARK    5  A    between atoms: C_13  and  C_14
REMARK    6  A    between atoms: C_18  and  N_19
REMARK                            x       y       z     vdW  Elec       q    Type
REMARK                         _______ _______ _______ _____ _____    ______ ____
ROOT
ATOM      1  C   UNL     1       5.783   4.293  17.998  0.00  0.00    +0.000 A 
ATOM      2  C   UNL     1       6.945   4.997  18.251  0.00  0.00    +0.000 A 
ATOM      3  C   UNL     1       7.550   5.241  17.001  0.00  0.00    +0.000 A 
ATOM      4  C   UNL     1       6.737   4.667  16.045  0.00  0.00    +0.000 A 
ATOM      5  O   UNL     1       5.655   4.083  16.655  0.00  0.00    +0.000 OA
ENDROOT
BRANCH   4   6
ATOM      6  C   UNL     1       6.817   4.563  14.590  0.00  0.00    +0.000 A 
ATOM      7  C   UNL     1       7.756   5.335  13.881  0.00  0.00    +0.000 A 
ATOM      8  C   UNL     1       7.878   5.237  12.491  0.00  0.00    +0.000 A 
ATOM      9  C   UNL     1       7.058   4.364  11.782  0.00  0.00    +0.000 A 
ATOM     10  C   UNL     1       6.113   3.596  12.474  0.00  0.00    +0.000 A 
ATOM     11  C   UNL     1       5.987   3.694  13.869  0.00  0.00    +0.000 A 
BRANCH  10  12
ATOM     12  N   UNL     1       5.250   2.672  11.732  0.00  0.00    +0.000 N 
ATOM     13  O   UNL     1       4.103   3.051  11.452  0.00  0.00    +0.000 OA
ATOM     14  O   UNL     1       5.717   1.565  11.425  0.00  0.00    +0.000 OA
ENDBRANCH  10  12
ENDBRANCH   4   6
BRANCH   1  16
ATOM     15  N   UNL     1       3.594   3.615  18.406  0.00  0.00    +0.000 NA
ATOM     16  C   UNL     1       4.774   3.800  18.899  0.00  0.00    +0.000 C 
BRANCH  15  19
ATOM     17  C   UNL     1       1.777   4.077  19.907  0.00  0.00    +0.000 C 
ATOM     18  O   UNL     1       0.976   3.658  20.739  0.00  0.00    +0.000 OA
ATOM     19  N   UNL     1       2.582   3.175  19.202  0.00  0.00    +0.000 N 
ATOM     20  H   UNL     1       2.488   2.194  19.446  0.00  0.00    +0.000 HD
BRANCH  17  24
ATOM     21  C   UNL     1       2.272   8.723  17.893  0.00  0.00    +0.000 C 
ATOM     22  C   UNL     1       2.177   7.537  18.775  0.00  0.00    +0.000 A 
ATOM     23  C   UNL     1       2.144   6.162  18.423  0.00  0.00    +0.000 A 
ATOM     24  C   UNL     1       1.965   5.484  19.614  0.00  0.00    +0.000 A 
ATOM     25  N   UNL     1       1.981   6.463  20.568  0.00  0.00    +0.000 N 
ATOM     26  N   UNL     1       2.084   7.710  20.098  0.00  0.00    +0.000 NA
ATOM     27  H   UNL     1       1.841   6.314  21.562  0.00  0.00    +0.000 HD
ENDBRANCH  17  24
ENDBRANCH  15  19
ENDBRANCH   1  16
TORSDOF 5
ENDMDL
MODEL 8
REMARK VINA RESULT:      -7.6      2.546      3.418
REMARK  Name = 
REMARK  6 active torsions:
REMARK  status: ('A' for Active; 'I' for Inactive)
REMARK    1  A    between atoms: C_1  and  C_2
REMARK    2  A    between atoms: C_4  and  C_5
REMARK    3  A    between atoms: N_7  and  N_8
REMARK    4  A    between atoms: C_9  and  C_10
REMARK    5  A    between atoms: C_13  and  C_14
REMARK    6  A    between atoms: C_18  and  N_19
REMARK                            x       y       z     vdW  Elec       q    Type
REMARK                         _______ _______ _______ _____ _____    ______ ____
ROOT
ATOM      1  C   UNL     1       2.575   7.125  19.186  0.00  0.00    +0.000 A 
ATOM      2  C   UNL     1       2.805   7.632  17.921  0.00  0.00    +0.000 A 
ATOM      3  C   UNL     1       2.072   8.833  17.827  0.00  0.00    +0.000 A 
ATOM      4  C   UNL     1       1.420   8.998  19.032  0.00  0.00    +0.000 A 
ATOM      5  O   UNL     1       1.725   7.951  19.865  0.00  0.00    +0.000 OA
ENDROOT
BRANCH   4   6
ATOM      6  C   UNL     1       0.510  10.017  19.549  0.00  0.00    +0.000 A 
ATOM      7  C   UNL     1      -0.217  10.829  18.658  0.00  0.00    +0.000 A 
ATOM      8  C   UNL     1      -1.117  11.793  19.121  0.00  0.00    +0.000 A 
ATOM      9  C   UNL     1      -1.307  11.967  20.489  0.00  0.00    +0.000 A 
ATOM     10  C   UNL     1      -0.583  11.172  21.387  0.00  0.00    +0.000 A 
ATOM     11  C   UNL     1       0.323  10.204  20.926  0.00  0.00    +0.000 A 
BRANCH  10  12
ATOM     12  N   UNL     1      -0.782  11.348  22.830  0.00  0.00    +0.000 N 
ATOM     13  O   UNL     1      -1.094  12.477  23.236  0.00  0.00    +0.000 OA
ATOM     14  O   UNL     1      -0.630  10.357  23.560  0.00  0.00    +0.000 OA
ENDBRANCH  10  12
ENDBRANCH   4   6
BRANCH   1  16
ATOM     15  N   UNL     1       2.672   4.806  19.355  0.00  0.00    +0.000 NA
ATOM     16  C   UNL     1       3.082   5.938  19.824  0.00  0.00    +0.000 C 
BRANCH  15  19
ATOM     17  C   UNL     1       4.125   2.894  19.351  0.00  0.00    +0.000 C 
ATOM     18  O   UNL     1       4.378   1.772  19.785  0.00  0.00    +0.000 OA
ATOM     19  N   UNL     1       3.088   3.641  19.922  0.00  0.00    +0.000 N 
ATOM     20  H   UNL     1       2.557   3.192  20.662  0.00  0.00    +0.000 HD
BRANCH  17  24
ATOM     21  C   UNL     1       5.713   4.904  14.956  0.00  0.00    +0.000 C 
ATOM     22  C   UNL     1       5.565   4.403  16.341  0.00  0.00    +0.000 A 
ATOM     23  C   UNL     1       4.524   3.618  16.902  0.00  0.00    +0.000 A 
ATOM     24  C   UNL     1       4.833   3.504  18.243  0.00  0.00    +0.000 A 
ATOM     25  N   UNL     1       6.036   4.141  18.370  0.00  0.00    +0.000 N 
ATOM     26  N   UNL     1       6.495   4.712  17.252  0.00  0.00    +0.000 NA
ATOM     27  H   UNL     1       6.540   4.273  19.241  0.00  0.00    +0.000 HD
ENDBRANCH  17  24
ENDBRANCH  15  19
ENDBRANCH   1  16
TORSDOF 5
ENDMDL
MODEL 9
REMARK VINA RESULT:      -7.6      1.835      2.444
REMARK  Name = 
REMARK  6 active torsions:
REMARK  status: ('A' for Active; 'I' for Inactive)
REMARK    1  A    between atoms: C_1  and  C_2
REMARK    2  A    between atoms: C_4  and  C_5
REMARK    3  A    between atoms: N_7  and  N_8
REMARK    4  A    between atoms: C_9  and  C_10
REMARK    5  A    between atoms: C_13  and  C_14
REMARK    6  A    between atoms: C_18  and  N_19
REMARK                            x       y       z     vdW  Elec       q    Type
REMARK                         _______ _______ _______ _____ _____    ______ ____
ROOT
ATOM      1  C   UNL     1       3.351   4.066  19.408  0.00  0.00    +0.000 A 
ATOM      2  C   UNL     1       2.777   3.552  20.555  0.00  0.00    +0.000 A 
ATOM      3  C   UNL     1       2.019   4.593  21.130  0.00  0.00    +0.000 A 
ATOM      4  C   UNL     1       2.174   5.696  20.315  0.00  0.00    +0.000 A 
ATOM      5  O   UNL     1       2.992   5.375  19.261  0.00  0.00    +0.000 OA
ENDROOT
BRANCH   4   6
ATOM      6  C   UNL     1       1.665   7.064  20.371  0.00  0.00    +0.000 A 
ATOM      7  C   UNL     1       0.947   7.502  21.499  0.00  0.00    +0.000 A 
ATOM      8  C   UNL     1       0.472   8.814  21.596  0.00  0.00    +0.000 A 
ATOM      9  C   UNL     1       0.705   9.715  20.562  0.00  0.00    +0.000 A 
ATOM     10  C   UNL     1       1.411   9.290  19.429  0.00  0.00    +0.000 A 
ATOM     11  C   UNL     1       1.887   7.973  19.327  0.00  0.00    +0.000 A 
BRANCH  10  12
ATOM     12  N   UNL     1       1.663  10.237  18.337  0.00  0.00    +0.000 N 
ATOM     13  O   UNL     1       1.337  11.420  18.513  0.00  0.00    +0.000 OA
ATOM     14  O   UNL     1       2.189   9.801  17.303  0.00  0.00    +0.000 OA
ENDBRANCH  10  12
ENDBRANCH   4   6
BRANCH   1  16
ATOM     15  N   UNL     1       4.277   4.016  17.274  0.00  0.00    +0.000 NA
ATOM     16  C   UNL     1       4.203   3.443  18.429  0.00  0.00    +0.000 C 
BRANCH  15  19
ATOM     17  C   UNL     1       6.143   4.164  15.769  0.00  0.00    +0.000 C 
ATOM     18  O   UNL     1       6.723   3.728  14.777  0.00  0.00    +0.000 OA
ATOM     19  N   UNL     1       5.043   3.472  16.289  0.00  0.00    +0.000 N 
ATOM     20  H   UNL     1       4.749   2.641  15.785  0.00  0.00    +0.000 HD
BRANCH  17  24
ATOM     21  C   UNL     1       8.273   7.919  18.460  0.00  0.00    +0.000 C 
ATOM     22  C   UNL     1       7.424   7.067  17.598  0.00  0.00    +0.000 A 
ATOM     23  C   UNL     1       7.468   5.661  17.408  0.00  0.00    +0.000 A 
ATOM     24  C   UNL     1       6.518   5.392  16.442  0.00  0.00    +0.000 A 
ATOM     25  N   UNL     1       5.940   6.604  16.186  0.00  0.00    +0.000 N 
ATOM     26  N   UNL     1       6.474   7.636  16.847  0.00  0.00    +0.000 NA
ATOM     27  H   UNL     1       5.217   6.774  15.495  0.00  0.00    +0.000 HD
ENDBRANCH  17  24
ENDBRANCH  15  19
ENDBRANCH   1  16
TORSDOF 5
ENDMDL
