MODEL 1
REMARK VINA RESULT:      -7.4      0.000      0.000
REMARK  Name = 
REMARK  6 active torsions:
REMARK  status: ('A' for Active; 'I' for Inactive)
REMARK    1  A    between atoms: C_1  and  C_2
REMARK    2  A    between atoms: C_5  and  C_6
REMARK    3  A    between atoms: C_8  and  N_9
REMARK    4  A    between atoms: CA_14  and  C_15
REMARK    5  A    between atoms: C_15  and  OXT_17
REMARK    6  A    between atoms: C_25  and  C_26
REMARK                            x       y       z     vdW  Elec       q    Type
REMARK                         _______ _______ _______ _____ _____    ______ ____
ROOT
ATOM      1  C   UNL     1      -0.246  12.259  19.839  0.00  0.00    +0.000 A 
ATOM      2  C   UNL     1      -0.849  12.348  21.110  0.00  0.00    +0.000 A 
ATOM      3  C   UNL     1      -0.351  13.167  22.128  0.00  0.00    +0.000 A 
ATOM      4  N   UNL     1       0.831  13.787  21.992  0.00  0.00    +0.000 NA
ATOM      5  C   UNL     1       1.476  13.626  20.810  0.00  0.00    +0.000 A 
ATOM      6  C   UNL     1       0.988  12.913  19.712  0.00  0.00    +0.000 A 
ATOM      7 CL   UNL     1       1.946  12.943  18.275  0.00  0.00    +0.000 Cl
ENDROOT
BRANCH   3   8
ATOM      8  N   UNL     1      -1.115  13.331  23.281  0.00  0.00    +0.000 N 
ATOM      9  C   UNL     1      -1.432  14.702  23.697  0.00  0.00    +0.000 C 
ATOM     10  C   UNL     1      -2.813  15.174  23.247  0.00  0.00    +0.000 C 
ATOM     11  N   UNL     1      -3.832  14.174  23.493  0.00  0.00    +0.000 N 
ATOM     12  C   UNL     1      -5.171  14.376  23.636  0.00  0.00    +0.000 A 
ATOM     13  CA  UNL     1      -5.709  13.120  23.802  0.00  0.00    +0.000 A 
ATOM     14  N   UNL     1      -4.699  12.156  23.778  0.00  0.00    +0.000 NA
ATOM     15  C   UNL     1      -3.577  12.831  23.594  0.00  0.00    +0.000 A 
ATOM     16  C   UNL     1      -2.167  12.312  23.501  0.00  0.00    +0.000 C 
BRANCH  13  17
ATOM     17  C   UNL     1      -7.116  12.765  23.979  0.00  0.00    +0.000 C 
ATOM     18  O   UNL     1      -7.916  13.396  24.655  0.00  0.00    +0.000 OA
BRANCH  17  19
ATOM     19  OXT UNL     1      -7.447  11.639  23.298  0.00  0.00    +0.000 OA
ATOM     20  HXT UNL     1      -7.527  11.894  22.348  0.00  0.00    +0.000 HD
ENDBRANCH  17  19
ENDBRANCH  13  17
ENDBRANCH   3   8
BRANCH   1  25
ATOM     21  C   UNL     1      -3.285   9.695  15.658  0.00  0.00    +0.000 C 
ATOM     22  C   UNL     1      -2.456  10.335  16.722  0.00  0.00    +0.000 A 
ATOM     23  C   UNL     1      -2.795  11.536  17.314  0.00  0.00    +0.000 A 
ATOM     24  N   UNL     1      -2.060  12.144  18.275  0.00  0.00    +0.000 NA
ATOM     25  C   UNL     1      -0.943  11.529  18.743  0.00  0.00    +0.000 A 
ATOM     26  C   UNL     1      -0.526  10.296  18.202  0.00  0.00    +0.000 A 
ATOM     27  C   UNL     1       0.697   9.522  18.610  0.00  0.00    +0.000 C 
ATOM     28  C   UNL     1      -1.287   9.728  17.165  0.00  0.00    +0.000 A 
ENDBRANCH   1  25
TORSDOF 4
ENDMDL
MODEL 2
REMARK VINA RESULT:      -7.3      4.891      6.969
REMARK  Name = 
REMARK  6 active torsions:
REMARK  status: ('A' for Active; 'I' for Inactive)
REMARK    1  A    between atoms: C_1  and  C_2
REMARK    2  A    between atoms: C_5  and  C_6
REMARK    3  A    between atoms: C_8  and  N_9
REMARK    4  A    between atoms: CA_14  and  C_15
REMARK    5  A    between atoms: C_15  and  OXT_17
REMARK    6  A    between atoms: C_25  and  C_26
REMARK                            x       y       z     vdW  Elec       q    Type
REMARK                         _______ _______ _______ _____ _____    ______ ____
ROOT
ATOM      1  C   UNL     1       2.614   6.418  19.125  0.00  0.00    +0.000 A 
ATOM      2  C   UNL     1       2.144   7.704  18.793  0.00  0.00    +0.000 A 
ATOM      3  C   UNL     1       1.462   8.519  19.702  0.00  0.00    +0.000 A 
ATOM      4  N   UNL     1       1.076   8.041  20.894  0.00  0.00    +0.000 NA
ATOM      5  C   UNL     1       1.430   6.766  21.188  0.00  0.00    +0.000 A 
ATOM      6  C   UNL     1       2.203   5.932  20.375  0.00  0.00    +0.000 A 
ATOM      7 CL   UNL     1       2.615   4.382  21.017  0.00  0.00    +0.000 Cl
ENDROOT
BRANCH   3   8
ATOM      8  N   UNL     1       1.202   9.840  19.344  0.00  0.00    +0.000 N 
ATOM      9  C   UNL     1       0.693  10.089  17.991  0.00  0.00    +0.000 C 
ATOM     10  C   UNL     1      -0.826  10.239  17.927  0.00  0.00    +0.000 C 
ATOM     11  N   UNL     1      -1.327  11.105  18.975  0.00  0.00    +0.000 N 
ATOM     12  C   UNL     1      -2.497  11.802  18.983  0.00  0.00    +0.000 A 
ATOM     13  CA  UNL     1      -2.536  12.428  20.208  0.00  0.00    +0.000 A 
ATOM     14  N   UNL     1      -1.386  12.127  20.939  0.00  0.00    +0.000 NA
ATOM     15  C   UNL     1      -0.675  11.328  20.160  0.00  0.00    +0.000 A 
ATOM     16  C   UNL     1       0.668  10.702  20.423  0.00  0.00    +0.000 C 
BRANCH  13  17
ATOM     17  C   UNL     1      -3.590  13.290  20.740  0.00  0.00    +0.000 C 
ATOM     18  O   UNL     1      -4.541  12.903  21.404  0.00  0.00    +0.000 OA
BRANCH  17  19
ATOM     19  OXT UNL     1      -3.396  14.593  20.412  0.00  0.00    +0.000 OA
ATOM     20  HXT UNL     1      -4.212  15.079  20.679  0.00  0.00    +0.000 HD
ENDBRANCH  17  19
ENDBRANCH  13  17
ENDBRANCH   3   8
BRANCH   1  25
ATOM     21  C   UNL     1       6.322   3.961  15.450  0.00  0.00    +0.000 C 
ATOM     22  C   UNL     1       5.342   4.550  16.410  0.00  0.00    +0.000 A 
ATOM     23  C   UNL     1       5.588   5.715  17.111  0.00  0.00    +0.000 A 
ATOM     24  N   UNL     1       4.722   6.268  17.993  0.00  0.00    +0.000 NA
ATOM     25  C   UNL     1       3.506   5.692  18.178  0.00  0.00    +0.000 A 
ATOM     26  C   UNL     1       3.166   4.505  17.497  0.00  0.00    +0.000 A 
ATOM     27  C   UNL     1       1.870   3.755  17.627  0.00  0.00    +0.000 C 
ATOM     28  C   UNL     1       4.118   3.933  16.635  0.00  0.00    +0.000 A 
ENDBRANCH   1  25
TORSDOF 4
ENDMDL
MODEL 3
REMARK VINA RESULT:      -7.2      5.711      8.245
REMARK  Name = 
REMARK  6 active torsions:
REMARK  status: ('A' for Active; 'I' for Inactive)
REMARK    1  A    between atoms: C_1  and  C_2
REMARK    2  A    between atoms: C_5  and  C_6
REMARK    3  A    between atoms: C_8  and  N_9
REMARK    4  A    between atoms: CA_14  and  C_15
REMARK    5  A    between atoms: C_15  and  OXT_17
REMARK    6  A    between atoms: C_25  and  C_26
REMARK                            x       y       z     vdW  Elec       q    Type
REMARK                         _______ _______ _______ _____ _____    ______ ____
ROOT
ATOM      1  C   UNL     1       2.452   7.141  18.757  0.00  0.00    +0.000 A 
ATOM      2  C   UNL     1       1.988   8.336  18.172  0.00  0.00    +0.000 A 
ATOM      3  C   UNL     1       1.358   9.344  18.908  0.00  0.00    +0.000 A 
ATOM      4  N   UNL     1       1.017   9.145  20.189  0.00  0.00    +0.000 NA
ATOM      5  C   UNL     1       1.364   7.955  20.739  0.00  0.00    +0.000 A 
ATOM      6  C   UNL     1       2.088   6.947  20.097  0.00  0.00    +0.000 A 
ATOM      7 CL   UNL     1       2.504   5.563  21.043  0.00  0.00    +0.000 Cl
ENDROOT
BRANCH   3   8
ATOM      8  N   UNL     1       1.104  10.562  18.282  0.00  0.00    +0.000 N 
ATOM      9  C   UNL     1      -0.070  11.322  18.725  0.00  0.00    +0.000 C 
ATOM     10  C   UNL     1       0.256  12.417  19.739  0.00  0.00    +0.000 C 
ATOM     11  N   UNL     1       1.414  13.192  19.341  0.00  0.00    +0.000 N 
ATOM     12  C   UNL     1       1.732  14.459  19.726  0.00  0.00    +0.000 A 
ATOM     13  CA  UNL     1       2.939  14.727  19.122  0.00  0.00    +0.000 A 
ATOM     14  N   UNL     1       3.349  13.633  18.358  0.00  0.00    +0.000 NA
ATOM     15  C   UNL     1       2.399  12.725  18.511  0.00  0.00    +0.000 A 
ATOM     16  C   UNL     1       2.300  11.351  17.905  0.00  0.00    +0.000 C 
BRANCH  13  17
ATOM     17  C   UNL     1       3.738  15.947  19.220  0.00  0.00    +0.000 C 
ATOM     18  O   UNL     1       3.313  17.078  19.032  0.00  0.00    +0.000 OA
BRANCH  17  19
ATOM     19  OXT UNL     1       5.029  15.686  19.550  0.00  0.00    +0.000 OA
ATOM     20  HXT UNL     1       5.299  16.372  20.206  0.00  0.00    +0.000 HD
ENDBRANCH  17  19
ENDBRANCH  13  17
ENDBRANCH   3   8
BRANCH   1  25
ATOM     21  C   UNL     1       5.957   3.860  15.556  0.00  0.00    +0.000 C 
ATOM     22  C   UNL     1       5.030   4.665  16.405  0.00  0.00    +0.000 A 
ATOM     23  C   UNL     1       5.317   5.953  16.813  0.00  0.00    +0.000 A 
ATOM     24  N   UNL     1       4.500   6.706  17.588  0.00  0.00    +0.000 NA
ATOM     25  C   UNL     1       3.292   6.206  17.956  0.00  0.00    +0.000 A 
ATOM     26  C   UNL     1       2.911   4.902  17.577  0.00  0.00    +0.000 A 
ATOM     27  C   UNL     1       1.619   4.222  17.934  0.00  0.00    +0.000 C 
ATOM     28  C   UNL     1       3.815   4.135  16.821  0.00  0.00    +0.000 A 
ENDBRANCH   1  25
TORSDOF 4
ENDMDL
MODEL 4
REMARK VINA RESULT:      -7.0      6.061      8.619
REMARK  Name = 
REMARK  6 active torsions:
REMARK  status: ('A' for Active; 'I' for Inactive)
REMARK    1  A    between atoms: C_1  and  C_2
REMARK    2  A    between atoms: C_5  and  C_6
REMARK    3  A    between atoms: C_8  and  N_9
REMARK    4  A    between atoms: CA_14  and  C_15
REMARK    5  A    between atoms: C_15  and  OXT_17
REMARK    6  A    between atoms: C_25  and  C_26
REMARK                            x       y       z     vdW  Elec       q    Type
REMARK                         _______ _______ _______ _____ _____    ______ ____
ROOT
ATOM      1  C   UNL     1       2.932   6.558  18.607  0.00  0.00    +0.000 A 
ATOM      2  C   UNL     1       2.230   7.728  18.253  0.00  0.00    +0.000 A 
ATOM      3  C   UNL     1       1.450   8.448  19.163  0.00  0.00    +0.000 A 
ATOM      4  N   UNL     1       1.201   7.960  20.388  0.00  0.00    +0.000 NA
ATOM      5  C   UNL     1       1.785   6.779  20.709  0.00  0.00    +0.000 A 
ATOM      6  C   UNL     1       2.661   6.061  19.890  0.00  0.00    +0.000 A 
ATOM      7 CL   UNL     1       3.365   4.635  20.565  0.00  0.00    +0.000 Cl
ENDROOT
BRANCH   3   8
ATOM      8  N   UNL     1       0.948   9.687  18.772  0.00  0.00    +0.000 N 
ATOM      9  C   UNL     1       0.140  10.430  19.745  0.00  0.00    +0.000 C 
ATOM     10  C   UNL     1       0.929  11.489  20.513  0.00  0.00    +0.000 C 
ATOM     11  N   UNL     1       1.770  12.278  19.636  0.00  0.00    +0.000 N 
ATOM     12  C   UNL     1       2.253  13.531  19.861  0.00  0.00    +0.000 A 
ATOM     13  CA  UNL     1       3.031  13.820  18.762  0.00  0.00    +0.000 A 
ATOM     14  N   UNL     1       3.009  12.753  17.862  0.00  0.00    +0.000 NA
ATOM     15  C   UNL     1       2.232  11.840  18.422  0.00  0.00    +0.000 A 
ATOM     16  C   UNL     1       1.833  10.488  17.895  0.00  0.00    +0.000 C 
BRANCH  13  17
ATOM     17  C   UNL     1       3.800  15.036  18.505  0.00  0.00    +0.000 C 
ATOM     18  O   UNL     1       3.719  16.066  19.159  0.00  0.00    +0.000 OA
BRANCH  17  19
ATOM     19  OXT UNL     1       4.632  14.897  17.441  0.00  0.00    +0.000 OA
ATOM     20  HXT UNL     1       4.083  15.023  16.631  0.00  0.00    +0.000 HD
ENDBRANCH  17  19
ENDBRANCH  13  17
ENDBRANCH   3   8
BRANCH   1  25
ATOM     21  C   UNL     1       6.860   4.641  14.841  0.00  0.00    +0.000 C 
ATOM     22  C   UNL     1       5.833   5.087  15.829  0.00  0.00    +0.000 A 
ATOM     23  C   UNL     1       5.876   6.323  16.446  0.00  0.00    +0.000 A 
ATOM     24  N   UNL     1       4.964   6.753  17.350  0.00  0.00    +0.000 NA
ATOM     25  C   UNL     1       3.901   5.961  17.646  0.00  0.00    +0.000 A 
ATOM     26  C   UNL     1       3.772   4.686  17.057  0.00  0.00    +0.000 A 
ATOM     27  C   UNL     1       2.662   3.705  17.313  0.00  0.00    +0.000 C 
ATOM     28  C   UNL     1       4.772   4.257  16.167  0.00  0.00    +0.000 A 
ENDBRANCH   1  25
TORSDOF 4
ENDMDL
MODEL 5
REMARK VINA RESULT:      -6.9      4.991      7.073
REMARK  Name = 
REMARK  6 active torsions:
REMARK  status: ('A' for Active; 'I' for Inactive)
REMARK    1  A    between atoms: C_1  and  C_2
REMARK    2  A    between atoms: C_5  and  C_6
REMARK    3  A    between atoms: C_8  and  N_9
REMARK    4  A    between atoms: CA_14  and  C_15
REMARK    5  A    between atoms: C_15  and  OXT_17
REMARK    6  A    between atoms: C_25  and  C_26
REMARK                            x       y       z     vdW  Elec       q    Type
REMARK                         _______ _______ _______ _____ _____    ______ ____
ROOT
ATOM      1  C   UNL     1       2.871   6.631  18.729  0.00  0.00    +0.000 A 
ATOM      2  C   UNL     1       2.314   7.892  18.436  0.00  0.00    +0.000 A 
ATOM      3  C   UNL     1       1.574   8.627  19.367  0.00  0.00    +0.000 A 
ATOM      4  N   UNL     1       1.218   8.085  20.541  0.00  0.00    +0.000 NA
ATOM      5  C   UNL     1       1.660   6.829  20.795  0.00  0.00    +0.000 A 
ATOM      6  C   UNL     1       2.491   6.078  19.960  0.00  0.00    +0.000 A 
ATOM      7 CL   UNL     1       3.009   4.540  20.554  0.00  0.00    +0.000 Cl
ENDROOT
BRANCH   3   8
ATOM      8  N   UNL     1       1.224   9.938  19.050  0.00  0.00    +0.000 N 
ATOM      9  C   UNL     1      -0.037  10.149  18.331  0.00  0.00    +0.000 C 
ATOM     10  C   UNL     1      -1.204  10.528  19.242  0.00  0.00    +0.000 C 
ATOM     11  N   UNL     1      -0.830  11.546  20.203  0.00  0.00    +0.000 N 
ATOM     12  C   UNL     1      -1.655  12.414  20.850  0.00  0.00    +0.000 A 
ATOM     13  CA  UNL     1      -0.834  13.139  21.684  0.00  0.00    +0.000 A 
ATOM     14  N   UNL     1       0.491  12.724  21.534  0.00  0.00    +0.000 NA
ATOM     15  C   UNL     1       0.455  11.763  20.626  0.00  0.00    +0.000 A 
ATOM     16  C   UNL     1       1.593  10.960  20.056  0.00  0.00    +0.000 C 
BRANCH  13  17
ATOM     17  C   UNL     1      -1.215  14.195  22.619  0.00  0.00    +0.000 C 
ATOM     18  O   UNL     1      -0.555  14.543  23.588  0.00  0.00    +0.000 OA
BRANCH  17  19
ATOM     19  OXT UNL     1      -2.404  14.763  22.289  0.00  0.00    +0.000 OA
ATOM     20  HXT UNL     1      -2.444  15.631  22.756  0.00  0.00    +0.000 HD
ENDBRANCH  17  19
ENDBRANCH  13  17
ENDBRANCH   3   8
BRANCH   1  25
ATOM     21  C   UNL     1       6.721   4.576  14.954  0.00  0.00    +0.000 C 
ATOM     22  C   UNL     1       5.712   5.058  15.943  0.00  0.00    +0.000 A 
ATOM     23  C   UNL     1       5.813   6.281  16.579  0.00  0.00    +0.000 A 
ATOM     24  N   UNL     1       4.918   6.743  17.485  0.00  0.00    +0.000 NA
ATOM     25  C   UNL     1       3.815   6.001  17.764  0.00  0.00    +0.000 A 
ATOM     26  C   UNL     1       3.627   4.743  17.154  0.00  0.00    +0.000 A 
ATOM     27  C   UNL     1       2.468   3.814  17.390  0.00  0.00    +0.000 C 
ATOM     28  C   UNL     1       4.609   4.277  16.264  0.00  0.00    +0.000 A 
ENDBRANCH   1  25
TORSDOF 4
ENDMDL
MODEL 6
REMARK VINA RESULT:      -6.8      5.224      7.181
REMARK  Name = 
REMARK  6 active torsions:
REMARK  status: ('A' for Active; 'I' for Inactive)
REMARK    1  A    between atoms: C_1  and  C_2
REMARK    2  A    between atoms: C_5  and  C_6
REMARK    3  A    between atoms: C_8  and  N_9
REMARK    4  A    between atoms: CA_14  and  C_15
REMARK    5  A    between atoms: C_15  and  OXT_17
REMARK    6  A    between atoms: C_25  and  C_26
REMARK                            x       y       z     vdW  Elec       q    Type
REMARK                         _______ _______ _______ _____ _____    ______ ____
ROOT
ATOM      1  C   UNL     1       2.998   6.030  19.004  0.00  0.00    +0.000 A 
ATOM      2  C   UNL     1       2.584   7.377  19.020  0.00  0.00    +0.000 A 
ATOM      3  C   UNL     1       1.820   7.922  20.056  0.00  0.00    +0.000 A 
ATOM      4  N   UNL     1       1.302   7.136  21.012  0.00  0.00    +0.000 NA
ATOM      5  C   UNL     1       1.605   5.815  20.951  0.00  0.00    +0.000 A 
ATOM      6  C   UNL     1       2.449   5.221  20.009  0.00  0.00    +0.000 A 
ATOM      7 CL   UNL     1       2.769   3.534  20.205  0.00  0.00    +0.000 Cl
ENDROOT
BRANCH   3   8
ATOM      8  N   UNL     1       1.618   9.300  20.078  0.00  0.00    +0.000 N 
ATOM      9  C   UNL     1       0.871   9.895  18.965  0.00  0.00    +0.000 C 
ATOM     10  C   UNL     1      -0.609  10.120  19.272  0.00  0.00    +0.000 C 
ATOM     11  N   UNL     1      -0.803  10.723  20.575  0.00  0.00    +0.000 N 
ATOM     12  C   UNL     1      -1.877  11.446  21.000  0.00  0.00    +0.000 A 
ATOM     13  CA  UNL     1      -1.607  11.753  22.314  0.00  0.00    +0.000 A 
ATOM     14  N   UNL     1      -0.366  11.233  22.686  0.00  0.00    +0.000 NA
ATOM     15  C   UNL     1       0.093  10.621  21.607  0.00  0.00    +0.000 A 
ATOM     16  C   UNL     1       1.397   9.893  21.417  0.00  0.00    +0.000 C 
BRANCH  13  17
ATOM     17  C   UNL     1      -2.446  12.502  23.248  0.00  0.00    +0.000 C 
ATOM     18  O   UNL     1      -3.564  12.164  23.609  0.00  0.00    +0.000 OA
BRANCH  17  19
ATOM     19  OXT UNL     1      -1.837  13.636  23.682  0.00  0.00    +0.000 OA
ATOM     20  HXT UNL     1      -2.047  13.721  24.642  0.00  0.00    +0.000 HD
ENDBRANCH  17  19
ENDBRANCH  13  17
ENDBRANCH   3   8
BRANCH   1  25
ATOM     21  C   UNL     1       7.005   4.626  15.097  0.00  0.00    +0.000 C 
ATOM     22  C   UNL     1       5.952   4.940  16.107  0.00  0.00    +0.000 A 
ATOM     23  C   UNL     1       6.071   5.973  17.017  0.00  0.00    +0.000 A 
ATOM     24  N   UNL     1       5.137   6.277  17.949  0.00  0.00    +0.000 NA
ATOM     25  C   UNL     1       3.976   5.572  17.978  0.00  0.00    +0.000 A 
ATOM     26  C   UNL     1       3.765   4.504  17.081  0.00  0.00    +0.000 A 
ATOM     27  C   UNL     1       2.542   3.632  17.021  0.00  0.00    +0.000 C 
ATOM     28  C   UNL     1       4.786   4.186  16.168  0.00  0.00    +0.000 A 
ENDBRANCH   1  25
TORSDOF 4
ENDMDL
MODEL 7
REMARK VINA RESULT:      -6.8      5.038      7.213
REMARK  Name = 
REMARK  6 active torsions:
REMARK  status: ('A' for Active; 'I' for Inactive)
REMARK    1  A    between atoms: C_1  and  C_2
REMARK    2  A    between atoms: C_5  and  C_6
REMARK    3  A    between atoms: C_8  and  N_9
REMARK    4  A    between atoms: CA_14  and  C_15
REMARK    5  A    between atoms: C_15  and  OXT_17
REMARK    6  A    between atoms: C_25  and  C_26
REMARK                            x       y       z     vdW  Elec       q    Type
REMARK                         _______ _______ _______ _____ _____    ______ ____
ROOT
ATOM      1  C   UNL     1       2.571   6.844  18.778  0.00  0.00    +0.000 A 
ATOM      2  C   UNL     1       2.048   8.069  18.318  0.00  0.00    +0.000 A 
ATOM      3  C   UNL     1       1.369   8.963  19.152  0.00  0.00    +0.000 A 
ATOM      4  N   UNL     1       1.038   8.615  20.404  0.00  0.00    +0.000 NA
ATOM      5  C   UNL     1       1.443   7.393  20.829  0.00  0.00    +0.000 A 
ATOM      6  C   UNL     1       2.217   6.494  20.089  0.00  0.00    +0.000 A 
ATOM      7 CL   UNL     1       2.701   5.041  20.888  0.00  0.00    +0.000 Cl
ENDROOT
BRANCH   3   8
ATOM      8  N   UNL     1       1.054  10.226  18.654  0.00  0.00    +0.000 N 
ATOM      9  C   UNL     1      -0.328  10.462  18.226  0.00  0.00    +0.000 C 
ATOM     10  C   UNL     1      -1.188  11.152  19.284  0.00  0.00    +0.000 C 
ATOM     11  N   UNL     1      -0.500  12.274  19.889  0.00  0.00    +0.000 N 
ATOM     12  C   UNL     1      -1.059  13.347  20.513  0.00  0.00    +0.000 A 
ATOM     13  CA  UNL     1       0.004  14.102  20.955  0.00  0.00    +0.000 A 
ATOM     14  N   UNL     1       1.208  13.498  20.589  0.00  0.00    +0.000 NA
ATOM     15  C   UNL     1       0.864  12.397  19.941  0.00  0.00    +0.000 A 
ATOM     16  C   UNL     1       1.750  11.361  19.303  0.00  0.00    +0.000 C 
BRANCH  13  17
ATOM     17  C   UNL     1      -0.039  15.354  21.706  0.00  0.00    +0.000 C 
ATOM     18  O   UNL     1      -0.752  16.309  21.434  0.00  0.00    +0.000 OA
BRANCH  17  19
ATOM     19  OXT UNL     1       0.814  15.344  22.763  0.00  0.00    +0.000 OA
ATOM     20  HXT UNL     1       1.585  14.786  22.502  0.00  0.00    +0.000 HD
ENDBRANCH  17  19
ENDBRANCH  13  17
ENDBRANCH   3   8
BRANCH   1  25
ATOM     21  C   UNL     1       6.229   4.093  15.264  0.00  0.00    +0.000 C 
ATOM     22  C   UNL     1       5.264   4.759  16.190  0.00  0.00    +0.000 A 
ATOM     23  C   UNL     1       5.477   6.020  16.712  0.00  0.00    +0.000 A 
ATOM     24  N   UNL     1       4.626   6.646  17.558  0.00  0.00    +0.000 NA
ATOM     25  C   UNL     1       3.456   6.040  17.889  0.00  0.00    +0.000 A 
ATOM     26  C   UNL     1       3.152   4.755  17.395  0.00  0.00    +0.000 A 
ATOM     27  C   UNL     1       1.909   3.965  17.698  0.00  0.00    +0.000 C 
ATOM     28  C   UNL     1       4.091   4.118  16.565  0.00  0.00    +0.000 A 
ENDBRANCH   1  25
TORSDOF 4
ENDMDL
MODEL 8
REMARK VINA RESULT:      -6.7      6.740      9.925
REMARK  Name = 
REMARK  6 active torsions:
REMARK  status: ('A' for Active; 'I' for Inactive)
REMARK    1  A    between atoms: C_1  and  C_2
REMARK    2  A    between atoms: C_5  and  C_6
REMARK    3  A    between atoms: C_8  and  N_9
REMARK    4  A    between atoms: CA_14  and  C_15
REMARK    5  A    between atoms: C_15  and  OXT_17
REMARK    6  A    between atoms: C_25  and  C_26
REMARK                            x       y       z     vdW  Elec       q    Type
REMARK                         _______ _______ _______ _____ _____    ______ ____
ROOT
ATOM      1  C   UNL     1       0.760  10.074  20.345  0.00  0.00    +0.000 A 
ATOM      2  C   UNL     1       1.431   9.117  19.558  0.00  0.00    +0.000 A 
ATOM      3  C   UNL     1       1.572   7.781  19.948  0.00  0.00    +0.000 A 
ATOM      4  N   UNL     1       1.214   7.386  21.178  0.00  0.00    +0.000 NA
ATOM      5  C   UNL     1       0.662   8.323  21.988  0.00  0.00    +0.000 A 
ATOM      6  C   UNL     1       0.391   9.646  21.628  0.00  0.00    +0.000 A 
ATOM      7 CL   UNL     1      -0.419  10.622  22.801  0.00  0.00    +0.000 Cl
ENDROOT
BRANCH   3   8
ATOM      8  N   UNL     1       2.084   6.872  19.025  0.00  0.00    +0.000 N 
ATOM      9  C   UNL     1       2.346   7.357  17.666  0.00  0.00    +0.000 C 
ATOM     10  C   UNL     1       3.804   7.745  17.426  0.00  0.00    +0.000 C 
ATOM     11  N   UNL     1       4.719   6.747  17.942  0.00  0.00    +0.000 N 
ATOM     12  C   UNL     1       6.005   6.523  17.552  0.00  0.00    +0.000 A 
ATOM     13  CA  UNL     1       6.459   5.513  18.369  0.00  0.00    +0.000 A 
ATOM     14  N   UNL     1       5.449   5.111  19.245  0.00  0.00    +0.000 NA
ATOM     15  C   UNL     1       4.410   5.876  18.955  0.00  0.00    +0.000 A 
ATOM     16  C   UNL     1       3.036   5.876  19.569  0.00  0.00    +0.000 C 
BRANCH  13  17
ATOM     17  C   UNL     1       7.787   4.903  18.383  0.00  0.00    +0.000 C 
ATOM     18  O   UNL     1       8.243   4.200  17.493  0.00  0.00    +0.000 OA
BRANCH  17  19
ATOM     19  OXT UNL     1       8.476   5.208  19.513  0.00  0.00    +0.000 OA
ATOM     20  HXT UNL     1       8.136   4.613  20.223  0.00  0.00    +0.000 HD
ENDBRANCH  17  19
ENDBRANCH  13  17
ENDBRANCH   3   8
BRANCH   1  25
ATOM     21  C   UNL     1      -0.094  15.457  18.449  0.00  0.00    +0.000 C 
ATOM     22  C   UNL     1       0.105  14.046  18.896  0.00  0.00    +0.000 A 
ATOM     23  C   UNL     1       1.106  13.673  19.772  0.00  0.00    +0.000 A 
ATOM     24  N   UNL     1       1.316  12.402  20.189  0.00  0.00    +0.000 NA
ATOM     25  C   UNL     1       0.470  11.421  19.778  0.00  0.00    +0.000 A 
ATOM     26  C   UNL     1      -0.586  11.714  18.890  0.00  0.00    +0.000 A 
ATOM     27  C   UNL     1      -1.576  10.724  18.341  0.00  0.00    +0.000 C 
ATOM     28  C   UNL     1      -0.732  13.037  18.437  0.00  0.00    +0.000 A 
ENDBRANCH   1  25
TORSDOF 4
ENDMDL
MODEL 9
REMARK VINA RESULT:      -6.7      6.253      8.392
REMARK  Name = 
REMARK  6 active torsions:
REMARK  status: ('A' for Active; 'I' for Inactive)
REMARK    1  A    between atoms: C_1  and  C_2
REMARK    2  A    between atoms: C_5  and  C_6
REMARK    3  A    between atoms: C_8  and  N_9
REMARK    4  A    between atoms: CA_14  and  C_15
REMARK    5  A    between atoms: C_15  and  OXT_17
REMARK    6  A    between atoms: C_25  and  C_26
REMARK                            x       y       z     vdW  Elec       q    Type
REMARK                         _______ _______ _______ _____ _____    ______ ____
ROOT
ATOM      1  C   UNL     1       0.626  11.144  18.648  0.00  0.00    +0.000 A 
ATOM      2  C   UNL     1       1.388  12.327  18.724  0.00  0.00    +0.000 A 
ATOM      3  C   UNL     1       0.809  13.598  18.787  0.00  0.00    +0.000 A 
ATOM      4  N   UNL     1      -0.510  13.759  18.608  0.00  0.00    +0.000 NA
ATOM      5  C   UNL     1      -1.247  12.635  18.427  0.00  0.00    +0.000 A 
ATOM      6  C   UNL     1      -0.752  11.328  18.462  0.00  0.00    +0.000 A 
ATOM      7 CL   UNL     1      -1.907  10.053  18.312  0.00  0.00    +0.000 Cl
ENDROOT
BRANCH   3   8
ATOM      8  N   UNL     1       1.633  14.691  19.048  0.00  0.00    +0.000 N 
ATOM      9  C   UNL     1       1.953  14.980  20.450  0.00  0.00    +0.000 C 
ATOM     10  C   UNL     1       3.302  14.418  20.897  0.00  0.00    +0.000 C 
ATOM     11  N   UNL     1       4.346  14.686  19.929  0.00  0.00    +0.000 N 
ATOM     12  C   UNL     1       5.688  14.738  20.153  0.00  0.00    +0.000 A 
ATOM     13  CA  UNL     1       6.251  14.973  18.919  0.00  0.00    +0.000 A 
ATOM     14  N   UNL     1       5.254  15.080  17.948  0.00  0.00    +0.000 NA
ATOM     15  C   UNL     1       4.114  14.905  18.596  0.00  0.00    +0.000 A 
ATOM     16  C   UNL     1       2.708  14.932  18.059  0.00  0.00    +0.000 C 
BRANCH  13  17
ATOM     17  C   UNL     1       7.669  15.099  18.592  0.00  0.00    +0.000 C 
ATOM     18  O   UNL     1       8.574  15.155  19.413  0.00  0.00    +0.000 OA
BRANCH  17  19
ATOM     19  OXT UNL     1       7.881  15.146  17.251  0.00  0.00    +0.000 OA
ATOM     20  HXT UNL     1       7.501  15.999  16.933  0.00  0.00    +0.000 HD
ENDBRANCH  17  19
ENDBRANCH  13  17
ENDBRANCH   3   8
BRANCH   1  25
ATOM     21  C   UNL     1       3.291   6.027  18.771  0.00  0.00    +0.000 C 
ATOM     22  C   UNL     1       2.607   7.355  18.791  0.00  0.00    +0.000 A 
ATOM     23  C   UNL     1       2.591   8.205  17.702  0.00  0.00    +0.000 A 
ATOM     24  N   UNL     1       1.987   9.416  17.692  0.00  0.00    +0.000 NA
ATOM     25  C   UNL     1       1.300   9.823  18.791  0.00  0.00    +0.000 A 
ATOM     26  C   UNL     1       1.256   9.015  19.946  0.00  0.00    +0.000 A 
ATOM     27  C   UNL     1       0.554   9.353  21.232  0.00  0.00    +0.000 C 
ATOM     28  C   UNL     1       1.946   7.790  19.932  0.00  0.00    +0.000 A 
ENDBRANCH   1  25
TORSDOF 4
ENDMDL
