MODEL 1
REMARK VINA RESULT:      -8.2      0.000      0.000
REMARK  Name = 
REMARK  11 active torsions:
REMARK  status: ('A' for Active; 'I' for Inactive)
REMARK    1  A    between atoms: C_1  and  O_2
REMARK    2  A    between atoms: O_2  and  C_3
REMARK    3  A    between atoms: C_6  and  S_7
REMARK    4  A    between atoms: S_7  and  N_10
REMARK    5  A    between atoms: C_14  and  C_15
REMARK    6  A    between atoms: C_15  and  N_16
REMARK    7  A    between atoms: C_17  and  C_19
REMARK    8  A    between atoms: N_21  and  C_22
REMARK    9  A    between atoms: C_22  and  C_23
REMARK   10  A    between atoms: C_29  and  O_30
REMARK   11  A    between atoms: O_30  and  C_31
REMARK                            x       y       z     vdW  Elec       q    Type
REMARK                         _______ _______ _______ _____ _____    ______ ____
ROOT
ATOM      1  N   UNL     1       2.764   3.770  19.382  0.00  0.00    +0.000 NA
ATOM      2  C   UNL     1       1.624   2.911  19.697  0.00  0.00    +0.000 C 
ATOM      3  C   UNL     1       1.455   3.075  21.190  0.00  0.00    +0.000 C 
ATOM      4  O   UNL     1       2.182   4.245  21.578  0.00  0.00    +0.000 OA
ATOM      5  C   UNL     1       2.798   4.820  20.412  0.00  0.00    +0.000 C 
ENDROOT
BRANCH   1   6
ATOM      6  S   UNL     1       4.217   3.051  18.934  0.00  0.00    +0.000 S 
ATOM      7  O   UNL     1       3.948   2.183  17.808  0.00  0.00    +0.000 OA
ATOM      8  O   UNL     1       4.837   2.532  20.136  0.00  0.00    +0.000 OA
BRANCH   6  12
ATOM      9  C   UNL     1       6.988   6.340  17.339  0.00  0.00    +0.000 A 
ATOM     10  C   UNL     1       6.915   6.083  18.719  0.00  0.00    +0.000 A 
ATOM     11  C   UNL     1       6.057   5.098  19.227  0.00  0.00    +0.000 A 
ATOM     12  C   UNL     1       5.238   4.388  18.351  0.00  0.00    +0.000 A 
ATOM     13  C   UNL     1       5.292   4.651  16.982  0.00  0.00    +0.000 A 
ATOM     14  C   UNL     1       6.131   5.648  16.467  0.00  0.00    +0.000 A 
BRANCH   9  16
ATOM     15  C   UNL     1       8.080   8.419  17.621  0.00  0.00    +0.000 C 
ATOM     16  O   UNL     1       7.870   7.254  16.826  0.00  0.00    +0.000 OA
ENDBRANCH   9  16
BRANCH  14  17
ATOM     17  O   UNL     1       6.002   5.764  15.110  0.00  0.00    +0.000 OA
ATOM     18  C   UNL     1       5.579   4.644  14.351  0.00  0.00    +0.000 C 
ENDBRANCH  14  17
ENDBRANCH   6  12
ENDBRANCH   1   6
BRANCH   5  19
ATOM     19  C   UNL     1       1.953   6.041  19.964  0.00  0.00    +0.000 C 
BRANCH  19  20
ATOM     20  N   UNL     1       1.675   7.003  21.023  0.00  0.00    +0.000 N 
ATOM     21  C   UNL     1       1.323   8.311  20.773  0.00  0.00    +0.000 C 
ATOM     22  O   UNL     1       1.240   8.824  19.667  0.00  0.00    +0.000 OA
ATOM     23  H   UNL     1       1.801   6.740  21.997  0.00  0.00    +0.000 HD
BRANCH  21  24
ATOM     24  C   UNL     1       0.985   9.134  22.038  0.00  0.00    +0.000 C 
ATOM     25  O   UNL     1       1.813   9.254  22.929  0.00  0.00    +0.000 OA
ATOM     26  N   UNL     1      -0.286   9.662  22.034  0.00  0.00    +0.000 N 
ATOM     27  H   UNL     1      -0.816   9.586  21.168  0.00  0.00    +0.000 HD
BRANCH  26  28
ATOM     28  C   UNL     1      -0.738  10.555  23.071  0.00  0.00    +0.000 C 
BRANCH  28  29
ATOM     29  C   UNL     1      -1.220  11.817  22.457  0.00  0.00    +0.000 A 
ATOM     30  C   UNL     1      -1.594  12.162  21.174  0.00  0.00    +0.000 A 
ATOM     31  C   UNL     1      -2.009  13.516  21.226  0.00  0.00    +0.000 A 
ATOM     32  C   UNL     1      -1.853  13.912  22.533  0.00  0.00    +0.000 A 
ATOM     33  O   UNL     1      -1.370  12.891  23.287  0.00  0.00    +0.000 OA
ENDBRANCH  28  29
ENDBRANCH  26  28
ENDBRANCH  21  24
ENDBRANCH  19  20
ENDBRANCH   5  19
TORSDOF 9
ENDMDL
MODEL 2
REMARK VINA RESULT:      -8.2      2.627      3.484
REMARK  Name = 
REMARK  11 active torsions:
REMARK  status: ('A' for Active; 'I' for Inactive)
REMARK    1  A    between atoms: C_1  and  O_2
REMARK    2  A    between atoms: O_2  and  C_3
REMARK    3  A    between atoms: C_6  and  S_7
REMARK    4  A    between atoms: S_7  and  N_10
REMARK    5  A    between atoms: C_14  and  C_15
REMARK    6  A    between atoms: C_15  and  N_16
REMARK    7  A    between atoms: C_17  and  C_19
REMARK    8  A    between atoms: N_21  and  C_22
REMARK    9  A    between atoms: C_22  and  C_23
REMARK   10  A    between atoms: C_29  and  O_30
REMARK   11  A    between atoms: O_30  and  C_31
REMARK                            x       y       z     vdW  Elec       q    Type
REMARK                         _______ _______ _______ _____ _____    ______ ____
ROOT
ATOM      1  N   UNL     1       3.159   4.691  18.238  0.00  0.00    +0.000 NA
ATOM      2  C   UNL     1       1.783   4.291  18.525  0.00  0.00    +0.000 C 
ATOM      3  C   UNL     1       1.531   4.847  19.909  0.00  0.00    +0.000 C 
ATOM      4  O   UNL     1       2.547   5.821  20.172  0.00  0.00    +0.000 OA
ATOM      5  C   UNL     1       3.421   5.903  19.031  0.00  0.00    +0.000 C 
ENDROOT
BRANCH   1   6
ATOM      6  S   UNL     1       4.351   3.506  18.185  0.00  0.00    +0.000 S 
ATOM      7  O   UNL     1       3.726   2.274  17.754  0.00  0.00    +0.000 OA
ATOM      8  O   UNL     1       5.083   3.565  19.434  0.00  0.00    +0.000 OA
BRANCH   6  12
ATOM      9  C   UNL     1       7.091   5.023  14.834  0.00  0.00    +0.000 A 
ATOM     10  C   UNL     1       6.287   3.887  14.631  0.00  0.00    +0.000 A 
ATOM     11  C   UNL     1       5.461   3.395  15.652  0.00  0.00    +0.000 A 
ATOM     12  C   UNL     1       5.466   4.023  16.897  0.00  0.00    +0.000 A 
ATOM     13  C   UNL     1       6.274   5.139  17.109  0.00  0.00    +0.000 A 
ATOM     14  C   UNL     1       7.119   5.626  16.102  0.00  0.00    +0.000 A 
BRANCH   9  16
ATOM     15  C   UNL     1       7.633   4.991  12.531  0.00  0.00    +0.000 C 
ATOM     16  O   UNL     1       7.852   5.551  13.825  0.00  0.00    +0.000 OA
ENDBRANCH   9  16
BRANCH  14  17
ATOM     17  O   UNL     1       7.848   6.700  16.533  0.00  0.00    +0.000 OA
ATOM     18  C   UNL     1       7.258   7.634  17.421  0.00  0.00    +0.000 C 
ENDBRANCH  14  17
ENDBRANCH   6  12
ENDBRANCH   1   6
BRANCH   5  19
ATOM     19  C   UNL     1       3.047   7.169  18.218  0.00  0.00    +0.000 C 
BRANCH  19  20
ATOM     20  N   UNL     1       1.982   7.972  18.809  0.00  0.00    +0.000 N 
ATOM     21  C   UNL     1       1.621   9.209  18.324  0.00  0.00    +0.000 C 
ATOM     22  O   UNL     1       2.157   9.790  17.392  0.00  0.00    +0.000 OA
ATOM     23  H   UNL     1       1.514   7.655  19.653  0.00  0.00    +0.000 HD
BRANCH  21  24
ATOM     24  C   UNL     1       0.409   9.847  19.043  0.00  0.00    +0.000 C 
ATOM     25  O   UNL     1       0.113   9.493  20.174  0.00  0.00    +0.000 OA
ATOM     26  N   UNL     1      -0.254  10.787  18.287  0.00  0.00    +0.000 N 
ATOM     27  H   UNL     1       0.185  11.070  17.412  0.00  0.00    +0.000 HD
BRANCH  26  28
ATOM     28  C   UNL     1      -1.333  11.573  18.831  0.00  0.00    +0.000 C 
BRANCH  28  29
ATOM     29  C   UNL     1      -2.513  11.472  17.938  0.00  0.00    +0.000 A 
ATOM     30  C   UNL     1      -2.679  11.053  16.633  0.00  0.00    +0.000 A 
ATOM     31  C   UNL     1      -4.065  11.148  16.354  0.00  0.00    +0.000 A 
ATOM     32  C   UNL     1      -4.653  11.626  17.500  0.00  0.00    +0.000 A 
ATOM     33  O   UNL     1      -3.720  11.832  18.465  0.00  0.00    +0.000 OA
ENDBRANCH  28  29
ENDBRANCH  26  28
ENDBRANCH  21  24
ENDBRANCH  19  20
ENDBRANCH   5  19
TORSDOF 9
ENDMDL
MODEL 3
REMARK VINA RESULT:      -7.7      1.288      2.211
REMARK  Name = 
REMARK  11 active torsions:
REMARK  status: ('A' for Active; 'I' for Inactive)
REMARK    1  A    between atoms: C_1  and  O_2
REMARK    2  A    between atoms: O_2  and  C_3
REMARK    3  A    between atoms: C_6  and  S_7
REMARK    4  A    between atoms: S_7  and  N_10
REMARK    5  A    between atoms: C_14  and  C_15
REMARK    6  A    between atoms: C_15  and  N_16
REMARK    7  A    between atoms: C_17  and  C_19
REMARK    8  A    between atoms: N_21  and  C_22
REMARK    9  A    between atoms: C_22  and  C_23
REMARK   10  A    between atoms: C_29  and  O_30
REMARK   11  A    between atoms: O_30  and  C_31
REMARK                            x       y       z     vdW  Elec       q    Type
REMARK                         _______ _______ _______ _____ _____    ______ ____
ROOT
ATOM      1  N   UNL     1       2.750   4.158  18.978  0.00  0.00    +0.000 NA
ATOM      2  C   UNL     1       1.338   3.809  18.840  0.00  0.00    +0.000 C 
ATOM      3  C   UNL     1       0.818   3.851  20.259  0.00  0.00    +0.000 C 
ATOM      4  O   UNL     1       1.776   4.569  21.045  0.00  0.00    +0.000 OA
ATOM      5  C   UNL     1       2.865   4.976  20.197  0.00  0.00    +0.000 C 
ENDROOT
BRANCH   1   6
ATOM      6  S   UNL     1       3.907   2.968  18.710  0.00  0.00    +0.000 S 
ATOM      7  O   UNL     1       3.246   1.848  18.075  0.00  0.00    +0.000 OA
ATOM      8  O   UNL     1       4.644   2.788  19.945  0.00  0.00    +0.000 OA
BRANCH   6  12
ATOM      9  C   UNL     1       6.715   4.986  15.696  0.00  0.00    +0.000 A 
ATOM     10  C   UNL     1       5.683   4.142  15.248  0.00  0.00    +0.000 A 
ATOM     11  C   UNL     1       4.830   3.499  16.155  0.00  0.00    +0.000 A 
ATOM     12  C   UNL     1       5.033   3.671  17.523  0.00  0.00    +0.000 A 
ATOM     13  C   UNL     1       6.066   4.492  17.974  0.00  0.00    +0.000 A 
ATOM     14  C   UNL     1       6.937   5.124  17.076  0.00  0.00    +0.000 A 
BRANCH   9  16
ATOM     15  C   UNL     1       7.563   5.144  13.493  0.00  0.00    +0.000 C 
ATOM     16  O   UNL     1       7.512   5.670  14.818  0.00  0.00    +0.000 OA
ENDBRANCH   9  16
BRANCH  14  17
ATOM     17  O   UNL     1       7.896   5.849  17.729  0.00  0.00    +0.000 OA
ATOM     18  C   UNL     1       7.856   5.945  19.143  0.00  0.00    +0.000 C 
ENDBRANCH  14  17
ENDBRANCH   6  12
ENDBRANCH   1   6
BRANCH   5  19
ATOM     19  C   UNL     1       2.685   6.478  19.856  0.00  0.00    +0.000 C 
BRANCH  19  20
ATOM     20  N   UNL     1       1.728   7.178  20.704  0.00  0.00    +0.000 N 
ATOM     21  C   UNL     1       1.217   8.418  20.390  0.00  0.00    +0.000 C 
ATOM     22  O   UNL     1       1.522   9.084  19.412  0.00  0.00    +0.000 OA
ATOM     23  H   UNL     1       1.458   6.784  21.601  0.00  0.00    +0.000 HD
BRANCH  21  24
ATOM     24  C   UNL     1       0.149   8.937  21.381  0.00  0.00    +0.000 C 
ATOM     25  O   UNL     1      -0.671   8.165  21.855  0.00  0.00    +0.000 OA
ATOM     26  N   UNL     1       0.230  10.288  21.628  0.00  0.00    +0.000 N 
ATOM     27  H   UNL     1       1.045  10.777  21.262  0.00  0.00    +0.000 HD
BRANCH  26  28
ATOM     28  C   UNL     1      -0.602  10.929  22.615  0.00  0.00    +0.000 C 
BRANCH  28  29
ATOM     29  C   UNL     1      -1.488  11.913  21.946  0.00  0.00    +0.000 A 
ATOM     30  C   UNL     1      -2.139  13.050  22.381  0.00  0.00    +0.000 A 
ATOM     31  C   UNL     1      -2.801  13.592  21.252  0.00  0.00    +0.000 A 
ATOM     32  C   UNL     1      -2.520  12.748  20.204  0.00  0.00    +0.000 A 
ATOM     33  O   UNL     1      -1.729  11.723  20.615  0.00  0.00    +0.000 OA
ENDBRANCH  28  29
ENDBRANCH  26  28
ENDBRANCH  21  24
ENDBRANCH  19  20
ENDBRANCH   5  19
TORSDOF 9
ENDMDL
MODEL 4
REMARK VINA RESULT:      -7.7      2.268      3.081
REMARK  Name = 
REMARK  11 active torsions:
REMARK  status: ('A' for Active; 'I' for Inactive)
REMARK    1  A    between atoms: C_1  and  O_2
REMARK    2  A    between atoms: O_2  and  C_3
REMARK    3  A    between atoms: C_6  and  S_7
REMARK    4  A    between atoms: S_7  and  N_10
REMARK    5  A    between atoms: C_14  and  C_15
REMARK    6  A    between atoms: C_15  and  N_16
REMARK    7  A    between atoms: C_17  and  C_19
REMARK    8  A    between atoms: N_21  and  C_22
REMARK    9  A    between atoms: C_22  and  C_23
REMARK   10  A    between atoms: C_29  and  O_30
REMARK   11  A    between atoms: O_30  and  C_31
REMARK                            x       y       z     vdW  Elec       q    Type
REMARK                         _______ _______ _______ _____ _____    ______ ____
ROOT
ATOM      1  N   UNL     1       3.006   4.475  18.416  0.00  0.00    +0.000 NA
ATOM      2  C   UNL     1       1.653   4.021  18.731  0.00  0.00    +0.000 C 
ATOM      3  C   UNL     1       1.400   4.583  20.112  0.00  0.00    +0.000 C 
ATOM      4  O   UNL     1       2.378   5.602  20.346  0.00  0.00    +0.000 OA
ATOM      5  C   UNL     1       3.229   5.707  19.190  0.00  0.00    +0.000 C 
ENDROOT
BRANCH   1   6
ATOM      6  S   UNL     1       4.246   3.341  18.357  0.00  0.00    +0.000 S 
ATOM      7  O   UNL     1       3.675   2.089  17.906  0.00  0.00    +0.000 OA
ATOM      8  O   UNL     1       4.966   3.414  19.612  0.00  0.00    +0.000 OA
BRANCH   6  12
ATOM      9  C   UNL     1       6.948   5.016  15.051  0.00  0.00    +0.000 A 
ATOM     10  C   UNL     1       6.158   3.878  14.811  0.00  0.00    +0.000 A 
ATOM     11  C   UNL     1       5.343   3.338  15.816  0.00  0.00    +0.000 A 
ATOM     12  C   UNL     1       5.347   3.919  17.083  0.00  0.00    +0.000 A 
ATOM     13  C   UNL     1       6.143   5.036  17.333  0.00  0.00    +0.000 A 
ATOM     14  C   UNL     1       6.976   5.571  16.341  0.00  0.00    +0.000 A 
BRANCH   9  16
ATOM     15  C   UNL     1       7.632   4.946  12.787  0.00  0.00    +0.000 C 
ATOM     16  O   UNL     1       7.697   5.590  14.059  0.00  0.00    +0.000 OA
ENDBRANCH   9  16
BRANCH  14  17
ATOM     17  O   UNL     1       7.694   6.638  16.807  0.00  0.00    +0.000 OA
ATOM     18  C   UNL     1       7.721   6.907  18.199  0.00  0.00    +0.000 C 
ENDBRANCH  14  17
ENDBRANCH   6  12
ENDBRANCH   1   6
BRANCH   5  19
ATOM     19  C   UNL     1       2.788   6.946  18.369  0.00  0.00    +0.000 C 
BRANCH  19  20
ATOM     20  N   UNL     1       2.069   7.954  19.138  0.00  0.00    +0.000 N 
ATOM     21  C   UNL     1       1.669   9.159  18.603  0.00  0.00    +0.000 C 
ATOM     22  O   UNL     1       1.896   9.540  17.465  0.00  0.00    +0.000 OA
ATOM     23  H   UNL     1       1.897   7.812  20.129  0.00  0.00    +0.000 HD
BRANCH  21  24
ATOM     24  C   UNL     1       0.842  10.041  19.568  0.00  0.00    +0.000 C 
ATOM     25  O   UNL     1       0.073   9.523  20.363  0.00  0.00    +0.000 OA
ATOM     26  N   UNL     1       1.060  11.391  19.411  0.00  0.00    +0.000 N 
ATOM     27  H   UNL     1       1.824  11.668  18.797  0.00  0.00    +0.000 HD
BRANCH  26  28
ATOM     28  C   UNL     1       0.470  12.361  20.299  0.00  0.00    +0.000 C 
BRANCH  28  29
ATOM     29  C   UNL     1       0.512  13.700  19.661  0.00  0.00    +0.000 A 
ATOM     30  C   UNL     1      -0.465  14.607  19.301  0.00  0.00    +0.000 A 
ATOM     31  C   UNL     1       0.210  15.735  18.771  0.00  0.00    +0.000 A 
ATOM     32  C   UNL     1       1.551  15.441  18.833  0.00  0.00    +0.000 A 
ATOM     33  O   UNL     1       1.745  14.207  19.366  0.00  0.00    +0.000 OA
ENDBRANCH  28  29
ENDBRANCH  26  28
ENDBRANCH  21  24
ENDBRANCH  19  20
ENDBRANCH   5  19
TORSDOF 9
ENDMDL
MODEL 5
REMARK VINA RESULT:      -7.6      2.533      3.482
REMARK  Name = 
REMARK  11 active torsions:
REMARK  status: ('A' for Active; 'I' for Inactive)
REMARK    1  A    between atoms: C_1  and  O_2
REMARK    2  A    between atoms: O_2  and  C_3
REMARK    3  A    between atoms: C_6  and  S_7
REMARK    4  A    between atoms: S_7  and  N_10
REMARK    5  A    between atoms: C_14  and  C_15
REMARK    6  A    between atoms: C_15  and  N_16
REMARK    7  A    between atoms: C_17  and  C_19
REMARK    8  A    between atoms: N_21  and  C_22
REMARK    9  A    between atoms: C_22  and  C_23
REMARK   10  A    between atoms: C_29  and  O_30
REMARK   11  A    between atoms: O_30  and  C_31
REMARK                            x       y       z     vdW  Elec       q    Type
REMARK                         _______ _______ _______ _____ _____    ______ ____
ROOT
ATOM      1  N   UNL     1       2.687   4.544  18.649  0.00  0.00    +0.000 NA
ATOM      2  C   UNL     1       1.330   4.305  19.134  0.00  0.00    +0.000 C 
ATOM      3  C   UNL     1       1.282   5.054  20.446  0.00  0.00    +0.000 C 
ATOM      4  O   UNL     1       2.389   5.962  20.462  0.00  0.00    +0.000 OA
ATOM      5  C   UNL     1       3.126   5.821  19.234  0.00  0.00    +0.000 C 
ENDROOT
BRANCH   1   6
ATOM      6  S   UNL     1       3.777   3.263  18.632  0.00  0.00    +0.000 S 
ATOM      7  O   UNL     1       3.090   2.109  18.092  0.00  0.00    +0.000 OA
ATOM      8  O   UNL     1       4.405   3.206  19.936  0.00  0.00    +0.000 OA
BRANCH   6  12
ATOM      9  C   UNL     1       6.947   4.698  15.644  0.00  0.00    +0.000 A 
ATOM     10  C   UNL     1       5.841   3.952  15.199  0.00  0.00    +0.000 A 
ATOM     11  C   UNL     1       4.874   3.485  16.101  0.00  0.00    +0.000 A 
ATOM     12  C   UNL     1       5.034   3.735  17.463  0.00  0.00    +0.000 A 
ATOM     13  C   UNL     1       6.138   4.459  17.912  0.00  0.00    +0.000 A 
ATOM     14  C   UNL     1       7.120   4.913  17.021  0.00  0.00    +0.000 A 
BRANCH   9  16
ATOM     15  C   UNL     1       7.496   5.153  13.388  0.00  0.00    +0.000 C 
ATOM     16  O   UNL     1       7.862   5.214  14.765  0.00  0.00    +0.000 OA
ENDBRANCH   9  16
BRANCH  14  17
ATOM     17  O   UNL     1       8.130   5.566  17.674  0.00  0.00    +0.000 OA
ATOM     18  C   UNL     1       7.841   6.290  18.858  0.00  0.00    +0.000 C 
ENDBRANCH  14  17
ENDBRANCH   6  12
ENDBRANCH   1   6
BRANCH   5  19
ATOM     19  C   UNL     1       2.750   6.999  18.299  0.00  0.00    +0.000 C 
BRANCH  19  20
ATOM     20  N   UNL     1       1.813   7.954  18.880  0.00  0.00    +0.000 N 
ATOM     21  C   UNL     1       1.555   9.185  18.319  0.00  0.00    +0.000 C 
ATOM     22  O   UNL     1       2.092   9.635  17.319  0.00  0.00    +0.000 OA
ATOM     23  H   UNL     1       1.365   7.751  19.769  0.00  0.00    +0.000 HD
BRANCH  21  24
ATOM     24  C   UNL     1       0.461  10.000  19.048  0.00  0.00    +0.000 C 
ATOM     25  O   UNL     1       0.309   9.879  20.254  0.00  0.00    +0.000 OA
ATOM     26  N   UNL     1      -0.275  10.811  18.214  0.00  0.00    +0.000 N 
ATOM     27  H   UNL     1       0.051  10.905  17.254  0.00  0.00    +0.000 HD
BRANCH  26  28
ATOM     28  C   UNL     1      -1.256  11.734  18.727  0.00  0.00    +0.000 C 
BRANCH  28  29
ATOM     29  C   UNL     1      -2.543  11.529  18.017  0.00  0.00    +0.000 A 
ATOM     30  C   UNL     1      -3.864  11.631  18.404  0.00  0.00    +0.000 A 
ATOM     31  C   UNL     1      -4.642  11.354  17.253  0.00  0.00    +0.000 A 
ATOM     32  C   UNL     1      -3.748  11.093  16.242  0.00  0.00    +0.000 A 
ATOM     33  O   UNL     1      -2.472  11.190  16.696  0.00  0.00    +0.000 OA
ENDBRANCH  28  29
ENDBRANCH  26  28
ENDBRANCH  21  24
ENDBRANCH  19  20
ENDBRANCH   5  19
TORSDOF 9
ENDMDL
MODEL 6
REMARK VINA RESULT:      -7.6      2.383      3.144
REMARK  Name = 
REMARK  11 active torsions:
REMARK  status: ('A' for Active; 'I' for Inactive)
REMARK    1  A    between atoms: C_1  and  O_2
REMARK    2  A    between atoms: O_2  and  C_3
REMARK    3  A    between atoms: C_6  and  S_7
REMARK    4  A    between atoms: S_7  and  N_10
REMARK    5  A    between atoms: C_14  and  C_15
REMARK    6  A    between atoms: C_15  and  N_16
REMARK    7  A    between atoms: C_17  and  C_19
REMARK    8  A    between atoms: N_21  and  C_22
REMARK    9  A    between atoms: C_22  and  C_23
REMARK   10  A    between atoms: C_29  and  O_30
REMARK   11  A    between atoms: O_30  and  C_31
REMARK                            x       y       z     vdW  Elec       q    Type
REMARK                         _______ _______ _______ _____ _____    ______ ____
ROOT
ATOM      1  N   UNL     1       2.429   3.858  18.848  0.00  0.00    +0.000 NA
ATOM      2  C   UNL     1       0.981   3.666  18.895  0.00  0.00    +0.000 C 
ATOM      3  C   UNL     1       0.769   2.848  20.149  0.00  0.00    +0.000 C 
ATOM      4  O   UNL     1       1.964   2.946  20.931  0.00  0.00    +0.000 OA
ATOM      5  C   UNL     1       2.910   3.778  20.236  0.00  0.00    +0.000 C 
ENDROOT
BRANCH   1   6
ATOM      6  S   UNL     1       3.311   3.066  17.656  0.00  0.00    +0.000 S 
ATOM      7  O   UNL     1       2.465   2.950  16.487  0.00  0.00    +0.000 OA
ATOM      8  O   UNL     1       3.902   1.888  18.259  0.00  0.00    +0.000 OA
BRANCH   6  12
ATOM      9  C   UNL     1       6.701   6.035  16.798  0.00  0.00    +0.000 A 
ATOM     10  C   UNL     1       5.528   6.055  16.022  0.00  0.00    +0.000 A 
ATOM     11  C   UNL     1       4.491   5.140  16.254  0.00  0.00    +0.000 A 
ATOM     12  C   UNL     1       4.643   4.174  17.247  0.00  0.00    +0.000 A 
ATOM     13  C   UNL     1       5.811   4.137  18.008  0.00  0.00    +0.000 A 
ATOM     14  C   UNL     1       6.862   5.033  17.770  0.00  0.00    +0.000 A 
BRANCH   9  16
ATOM     15  C   UNL     1       7.605   8.120  17.455  0.00  0.00    +0.000 C 
ATOM     16  O   UNL     1       7.691   6.964  16.623  0.00  0.00    +0.000 OA
ENDBRANCH   9  16
BRANCH  14  17
ATOM     17  O   UNL     1       7.922   4.799  18.602  0.00  0.00    +0.000 OA
ATOM     18  C   UNL     1       8.009   5.495  19.835  0.00  0.00    +0.000 C 
ENDBRANCH  14  17
ENDBRANCH   6  12
ENDBRANCH   1   6
BRANCH   5  19
ATOM     19  C   UNL     1       2.901   5.183  20.891  0.00  0.00    +0.000 C 
BRANCH  19  20
ATOM     20  N   UNL     1       2.660   6.280  19.961  0.00  0.00    +0.000 N 
ATOM     21  C   UNL     1       1.813   7.329  20.243  0.00  0.00    +0.000 C 
ATOM     22  O   UNL     1       1.146   7.448  21.260  0.00  0.00    +0.000 OA
ATOM     23  H   UNL     1       3.075   6.262  19.034  0.00  0.00    +0.000 HD
BRANCH  21  24
ATOM     24  C   UNL     1       1.775   8.428  19.156  0.00  0.00    +0.000 C 
ATOM     25  O   UNL     1       2.397   8.281  18.115  0.00  0.00    +0.000 OA
ATOM     26  N   UNL     1       1.014   9.522  19.498  0.00  0.00    +0.000 N 
ATOM     27  H   UNL     1       0.450   9.447  20.343  0.00  0.00    +0.000 HD
BRANCH  26  28
ATOM     28  C   UNL     1       0.762  10.592  18.566  0.00  0.00    +0.000 C 
BRANCH  28  29
ATOM     29  C   UNL     1      -0.691  10.657  18.272  0.00  0.00    +0.000 A 
ATOM     30  C   UNL     1      -1.712  11.471  18.722  0.00  0.00    +0.000 A 
ATOM     31  C   UNL     1      -2.881  11.067  18.032  0.00  0.00    +0.000 A 
ATOM     32  C   UNL     1      -2.503  10.029  17.214  0.00  0.00    +0.000 A 
ATOM     33  O   UNL     1      -1.177   9.769  17.356  0.00  0.00    +0.000 OA
ENDBRANCH  28  29
ENDBRANCH  26  28
ENDBRANCH  21  24
ENDBRANCH  19  20
ENDBRANCH   5  19
TORSDOF 9
ENDMDL
MODEL 7
REMARK VINA RESULT:      -7.5      2.292      2.769
REMARK  Name = 
REMARK  11 active torsions:
REMARK  status: ('A' for Active; 'I' for Inactive)
REMARK    1  A    between atoms: C_1  and  O_2
REMARK    2  A    between atoms: O_2  and  C_3
REMARK    3  A    between atoms: C_6  and  S_7
REMARK    4  A    between atoms: S_7  and  N_10
REMARK    5  A    between atoms: C_14  and  C_15
REMARK    6  A    between atoms: C_15  and  N_16
REMARK    7  A    between atoms: C_17  and  C_19
REMARK    8  A    between atoms: N_21  and  C_22
REMARK    9  A    between atoms: C_22  and  C_23
REMARK   10  A    between atoms: C_29  and  O_30
REMARK   11  A    between atoms: O_30  and  C_31
REMARK                            x       y       z     vdW  Elec       q    Type
REMARK                         _______ _______ _______ _____ _____    ______ ____
ROOT
ATOM      1  N   UNL     1       2.254   4.003  19.004  0.00  0.00    +0.000 NA
ATOM      2  C   UNL     1       0.878   3.537  19.169  0.00  0.00    +0.000 C 
ATOM      3  C   UNL     1       0.926   2.727  20.444  0.00  0.00    +0.000 C 
ATOM      4  O   UNL     1       2.135   3.074  21.128  0.00  0.00    +0.000 OA
ATOM      5  C   UNL     1       2.846   4.054  20.350  0.00  0.00    +0.000 C 
ENDROOT
BRANCH   1   6
ATOM      6  S   UNL     1       3.179   3.363  17.754  0.00  0.00    +0.000 S 
ATOM      7  O   UNL     1       2.316   3.212  16.602  0.00  0.00    +0.000 OA
ATOM      8  O   UNL     1       3.908   2.229  18.285  0.00  0.00    +0.000 OA
BRANCH   6  12
ATOM      9  C   UNL     1       6.412   6.501  16.894  0.00  0.00    +0.000 A 
ATOM     10  C   UNL     1       5.296   6.832  17.683  0.00  0.00    +0.000 A 
ATOM     11  C   UNL     1       4.287   5.893  17.937  0.00  0.00    +0.000 A 
ATOM     12  C   UNL     1       4.376   4.624  17.368  0.00  0.00    +0.000 A 
ATOM     13  C   UNL     1       5.471   4.296  16.569  0.00  0.00    +0.000 A 
ATOM     14  C   UNL     1       6.475   5.233  16.292  0.00  0.00    +0.000 A 
BRANCH   9  16
ATOM     15  C   UNL     1       7.886   8.083  17.855  0.00  0.00    +0.000 C 
ATOM     16  O   UNL     1       7.435   7.389  16.692  0.00  0.00    +0.000 OA
ENDBRANCH   9  16
BRANCH  14  17
ATOM     17  O   UNL     1       7.432   4.717  15.463  0.00  0.00    +0.000 OA
ATOM     18  C   UNL     1       7.137   4.526  14.089  0.00  0.00    +0.000 C 
ENDBRANCH  14  17
ENDBRANCH   6  12
ENDBRANCH   1   6
BRANCH   5  19
ATOM     19  C   UNL     1       2.614   5.447  20.988  0.00  0.00    +0.000 C 
BRANCH  19  20
ATOM     20  N   UNL     1       2.295   6.502  20.032  0.00  0.00    +0.000 N 
ATOM     21  C   UNL     1       1.712   7.694  20.401  0.00  0.00    +0.000 C 
ATOM     22  O   UNL     1       1.361   7.992  21.532  0.00  0.00    +0.000 OA
ATOM     23  H   UNL     1       2.444   6.351  19.039  0.00  0.00    +0.000 HD
BRANCH  21  24
ATOM     24  C   UNL     1       1.545   8.706  19.243  0.00  0.00    +0.000 C 
ATOM     25  O   UNL     1       1.946   8.426  18.123  0.00  0.00    +0.000 OA
ATOM     26  N   UNL     1       0.942   9.885  19.618  0.00  0.00    +0.000 N 
ATOM     27  H   UNL     1       0.546   9.924  20.556  0.00  0.00    +0.000 HD
BRANCH  26  28
ATOM     28  C   UNL     1       0.594  10.898  18.654  0.00  0.00    +0.000 C 
BRANCH  28  29
ATOM     29  C   UNL     1      -0.844  10.774  18.308  0.00  0.00    +0.000 A 
ATOM     30  C   UNL     1      -1.971  11.477  18.682  0.00  0.00    +0.000 A 
ATOM     31  C   UNL     1      -3.056  10.905  17.972  0.00  0.00    +0.000 A 
ATOM     32  C   UNL     1      -2.523   9.886  17.219  0.00  0.00    +0.000 A 
ATOM     33  O   UNL     1      -1.183   9.794  17.420  0.00  0.00    +0.000 OA
ENDBRANCH  28  29
ENDBRANCH  26  28
ENDBRANCH  21  24
ENDBRANCH  19  20
ENDBRANCH   5  19
TORSDOF 9
ENDMDL
MODEL 8
REMARK VINA RESULT:      -7.5      2.937      7.485
REMARK  Name = 
REMARK  11 active torsions:
REMARK  status: ('A' for Active; 'I' for Inactive)
REMARK    1  A    between atoms: C_1  and  O_2
REMARK    2  A    between atoms: O_2  and  C_3
REMARK    3  A    between atoms: C_6  and  S_7
REMARK    4  A    between atoms: S_7  and  N_10
REMARK    5  A    between atoms: C_14  and  C_15
REMARK    6  A    between atoms: C_15  and  N_16
REMARK    7  A    between atoms: C_17  and  C_19
REMARK    8  A    between atoms: N_21  and  C_22
REMARK    9  A    between atoms: C_22  and  C_23
REMARK   10  A    between atoms: C_29  and  O_30
REMARK   11  A    between atoms: O_30  and  C_31
REMARK                            x       y       z     vdW  Elec       q    Type
REMARK                         _______ _______ _______ _____ _____    ______ ____
ROOT
ATOM      1  N   UNL     1       3.467   3.285  19.773  0.00  0.00    +0.000 NA
ATOM      2  C   UNL     1       3.630   1.839  19.646  0.00  0.00    +0.000 C 
ATOM      3  C   UNL     1       3.772   1.625  18.156  0.00  0.00    +0.000 C 
ATOM      4  O   UNL     1       4.076   2.894  17.568  0.00  0.00    +0.000 OA
ATOM      5  C   UNL     1       4.130   3.889  18.606  0.00  0.00    +0.000 C 
ENDROOT
BRANCH   1   6
ATOM      6  S   UNL     1       1.969   3.892  20.237  0.00  0.00    +0.000 S 
ATOM      7  O   UNL     1       1.892   3.816  21.680  0.00  0.00    +0.000 OA
ATOM      8  O   UNL     1       0.965   3.256  19.409  0.00  0.00    +0.000 OA
BRANCH   6  12
ATOM      9  C   UNL     1       1.833   8.335  19.103  0.00  0.00    +0.000 A 
ATOM     10  C   UNL     1       2.175   7.368  18.140  0.00  0.00    +0.000 A 
ATOM     11  C   UNL     1       2.244   6.008  18.474  0.00  0.00    +0.000 A 
ATOM     12  C   UNL     1       2.005   5.615  19.790  0.00  0.00    +0.000 A 
ATOM     13  C   UNL     1       1.684   6.571  20.753  0.00  0.00    +0.000 A 
ATOM     14  C   UNL     1       1.633   7.934  20.434  0.00  0.00    +0.000 A 
BRANCH   9  16
ATOM     15  C   UNL     1       0.433  10.032  18.233  0.00  0.00    +0.000 C 
ATOM     16  O   UNL     1       1.699   9.657  18.773  0.00  0.00    +0.000 OA
ENDBRANCH   9  16
BRANCH  14  17
ATOM     17  O   UNL     1       1.337   8.697  21.531  0.00  0.00    +0.000 OA
ATOM     18  C   UNL     1      -0.018   8.972  21.845  0.00  0.00    +0.000 C 
ENDBRANCH  14  17
ENDBRANCH   6  12
ENDBRANCH   1   6
BRANCH   5  19
ATOM     19  C   UNL     1       5.618   4.184  18.924  0.00  0.00    +0.000 C 
BRANCH  19  20
ATOM     20  N   UNL     1       6.156   5.361  18.253  0.00  0.00    +0.000 N 
ATOM     21  C   UNL     1       7.334   5.967  18.633  0.00  0.00    +0.000 C 
ATOM     22  O   UNL     1       8.032   5.629  19.576  0.00  0.00    +0.000 OA
ATOM     23  H   UNL     1       5.628   5.809  17.509  0.00  0.00    +0.000 HD
BRANCH  21  24
ATOM     24  C   UNL     1       7.765   7.144  17.728  0.00  0.00    +0.000 C 
ATOM     25  O   UNL     1       7.731   7.026  16.513  0.00  0.00    +0.000 OA
ATOM     26  N   UNL     1       8.177   8.258  18.424  0.00  0.00    +0.000 N 
ATOM     27  H   UNL     1       8.029   8.255  19.432  0.00  0.00    +0.000 HD
BRANCH  26  28
ATOM     28  C   UNL     1       8.502   9.493  17.755  0.00  0.00    +0.000 C 
BRANCH  28  29
ATOM     29  C   UNL     1       9.190  10.400  18.706  0.00  0.00    +0.000 A 
ATOM     30  C   UNL     1      10.009  11.499  18.540  0.00  0.00    +0.000 A 
ATOM     31  C   UNL     1      10.315  11.972  19.840  0.00  0.00    +0.000 A 
ATOM     32  C   UNL     1       9.672  11.128  20.714  0.00  0.00    +0.000 A 
ATOM     33  O   UNL     1       8.991  10.168  20.036  0.00  0.00    +0.000 OA
ENDBRANCH  28  29
ENDBRANCH  26  28
ENDBRANCH  21  24
ENDBRANCH  19  20
ENDBRANCH   5  19
TORSDOF 9
ENDMDL
MODEL 9
REMARK VINA RESULT:      -7.4      3.435      9.192
REMARK  Name = 
REMARK  11 active torsions:
REMARK  status: ('A' for Active; 'I' for Inactive)
REMARK    1  A    between atoms: C_1  and  O_2
REMARK    2  A    between atoms: O_2  and  C_3
REMARK    3  A    between atoms: C_6  and  S_7
REMARK    4  A    between atoms: S_7  and  N_10
REMARK    5  A    between atoms: C_14  and  C_15
REMARK    6  A    between atoms: C_15  and  N_16
REMARK    7  A    between atoms: C_17  and  C_19
REMARK    8  A    between atoms: N_21  and  C_22
REMARK    9  A    between atoms: C_22  and  C_23
REMARK   10  A    between atoms: C_29  and  O_30
REMARK   11  A    between atoms: O_30  and  C_31
REMARK                            x       y       z     vdW  Elec       q    Type
REMARK                         _______ _______ _______ _____ _____    ______ ____
ROOT
ATOM      1  N   UNL     1       1.123  10.211  20.348  0.00  0.00    +0.000 NA
ATOM      2  C   UNL     1       0.947  11.025  21.549  0.00  0.00    +0.000 C 
ATOM      3  C   UNL     1      -0.354  10.522  22.133  0.00  0.00    +0.000 C 
ATOM      4  O   UNL     1      -0.640   9.260  21.520  0.00  0.00    +0.000 OA
ATOM      5  C   UNL     1       0.409   8.947  20.586  0.00  0.00    +0.000 C 
ENDROOT
BRANCH   1   6
ATOM      6  S   UNL     1       0.959  10.945  18.844  0.00  0.00    +0.000 S 
ATOM      7  O   UNL     1       1.544  10.061  17.857  0.00  0.00    +0.000 OA
ATOM      8  O   UNL     1       1.416  12.314  18.972  0.00  0.00    +0.000 OA
BRANCH   6  12
ATOM      9  C   UNL     1      -3.517  11.207  17.873  0.00  0.00    +0.000 A 
ATOM     10  C   UNL     1      -2.980  11.944  18.943  0.00  0.00    +0.000 A 
ATOM     11  C   UNL     1      -1.619  11.859  19.269  0.00  0.00    +0.000 A 
ATOM     12  C   UNL     1      -0.795  11.001  18.542  0.00  0.00    +0.000 A 
ATOM     13  C   UNL     1      -1.325  10.253  17.491  0.00  0.00    +0.000 A 
ATOM     14  C   UNL     1      -2.688  10.316  17.170  0.00  0.00    +0.000 A 
BRANCH   9  16
ATOM     15  C   UNL     1      -5.748  11.568  18.570  0.00  0.00    +0.000 C 
ATOM     16  O   UNL     1      -4.830  11.332  17.505  0.00  0.00    +0.000 OA
ENDBRANCH   9  16
BRANCH  14  17
ATOM     17  O   UNL     1      -3.001   9.478  16.135  0.00  0.00    +0.000 OA
ATOM     18  C   UNL     1      -2.964   9.968  14.805  0.00  0.00    +0.000 C 
ENDBRANCH  14  17
ENDBRANCH   6  12
ENDBRANCH   1   6
BRANCH   5  19
ATOM     19  C   UNL     1       1.355   7.909  21.241  0.00  0.00    +0.000 C 
BRANCH  19  20
ATOM     20  N   UNL     1       2.153   7.139  20.294  0.00  0.00    +0.000 N 
ATOM     21  C   UNL     1       2.004   5.780  20.120  0.00  0.00    +0.000 C 
ATOM     22  O   UNL     1       1.238   5.065  20.748  0.00  0.00    +0.000 OA
ATOM     23  H   UNL     1       2.899   7.589  19.772  0.00  0.00    +0.000 HD
BRANCH  21  24
ATOM     24  C   UNL     1       2.887   5.180  19.001  0.00  0.00    +0.000 C 
ATOM     25  O   UNL     1       2.514   5.222  17.839  0.00  0.00    +0.000 OA
ATOM     26  N   UNL     1       4.058   4.620  19.458  0.00  0.00    +0.000 N 
ATOM     27  H   UNL     1       4.294   4.774  20.437  0.00  0.00    +0.000 HD
BRANCH  26  28
ATOM     28  C   UNL     1       5.062   4.120  18.553  0.00  0.00    +0.000 C 
BRANCH  28  29
ATOM     29  C   UNL     1       6.112   5.151  18.364  0.00  0.00    +0.000 A 
ATOM     30  C   UNL     1       6.302   6.148  17.428  0.00  0.00    +0.000 A 
ATOM     31  C   UNL     1       7.475   6.843  17.812  0.00  0.00    +0.000 A 
ATOM     32  C   UNL     1       7.930   6.221  18.951  0.00  0.00    +0.000 A 
ATOM     33  O   UNL     1       7.114   5.191  19.291  0.00  0.00    +0.000 OA
ENDBRANCH  28  29
ENDBRANCH  26  28
ENDBRANCH  21  24
ENDBRANCH  19  20
ENDBRANCH   5  19
TORSDOF 9
ENDMDL
