MODEL 1
REMARK VINA RESULT:      -9.4      0.000      0.000
REMARK  Name = 
REMARK  5 active torsions:
REMARK  status: ('A' for Active; 'I' for Inactive)
REMARK    1  A    between atoms: C_2  and  C_3
REMARK    2  A    between atoms: C_6  and  C_7
REMARK    3  A    between atoms: C_7  and  N_8
REMARK    4  A    between atoms: C_12  and  C_13
REMARK    5  A    between atoms: N_20  and  C_21
REMARK                            x       y       z     vdW  Elec       q    Type
REMARK                         _______ _______ _______ _____ _____    ______ ____
ROOT
ATOM      1  C   UNL     1       2.270   5.862  19.438  0.00  0.00    +0.000 A 
ATOM      2  C   UNL     1       2.552   5.939  18.076  0.00  0.00    +0.000 A 
ATOM      3  C   UNL     1       2.800   7.177  17.493  0.00  0.00    +0.000 A 
ATOM      4 CL   UNL     1       4.267   7.436  16.640  0.00  0.00    +0.000 Cl
ATOM      5  C   UNL     1       2.259   8.322  18.075  0.00  0.00    +0.000 A 
ATOM      6  N   UNL     1       2.007   9.571  17.594  0.00  0.00    +0.000 NA
ATOM      7  N   UNL     1       1.362  10.245  18.534  0.00  0.00    +0.000 NA
ATOM      8  N   UNL     1       1.340   9.501  19.669  0.00  0.00    +0.000 N 
ATOM      9  C   UNL     1       1.918   8.253  19.421  0.00  0.00    +0.000 A 
ATOM     10  C   UNL     1       2.188   7.072  20.147  0.00  0.00    +0.000 A 
ENDROOT
BRANCH   8  11
ATOM     11  C   UNL     1       0.704  10.003  20.839  0.00  0.00    +0.000 A 
ATOM     12  C   UNL     1       0.097   9.101  21.727  0.00  0.00    +0.000 A 
ATOM     13  C   UNL     1      -0.379   9.497  22.964  0.00  0.00    +0.000 A 
ATOM     14  C   UNL     1      -0.876  10.762  22.915  0.00  0.00    +0.000 A 
ATOM     15  N   UNL     1      -2.128  11.164  23.352  0.00  0.00    +0.000 N 
ATOM     16  C   UNL     1      -2.392  12.428  22.816  0.00  0.00    +0.000 A 
ATOM     17  O   UNL     1      -3.455  13.019  22.864  0.00  0.00    +0.000 OA
ATOM     18  N   UNL     1      -1.228  12.826  22.125  0.00  0.00    +0.000 N 
ATOM     19  C   UNL     1      -0.380  11.720  22.037  0.00  0.00    +0.000 A 
ATOM     20  C   UNL     1       0.550  11.390  21.066  0.00  0.00    +0.000 A 
ATOM     21  H   UNL     1      -2.832  10.560  23.747  0.00  0.00    +0.000 HD
ATOM     22  H   UNL     1      -1.198  13.665  21.570  0.00  0.00    +0.000 HD
ENDBRANCH   8  11
BRANCH   1  27
ATOM     23  N   UNL     1       3.015   3.622  20.473  0.00  0.00    +0.000 N 
ATOM     24  N   UNL     1       2.508   2.595  21.195  0.00  0.00    +0.000 NA
ATOM     25  C   UNL     1       1.196   2.817  21.196  0.00  0.00    +0.000 A 
ATOM     26  C   UNL     1       0.863   3.967  20.489  0.00  0.00    +0.000 A 
ATOM     27  C   UNL     1       2.057   4.534  20.054  0.00  0.00    +0.000 A 
BRANCH  23  28
ATOM     28  C   UNL     1       4.463   3.639  20.310  0.00  0.00    +0.000 C 
BRANCH  28  32
ATOM     29  C   UNL     1       5.632   3.938  16.206  0.00  0.00    +0.000 A 
ATOM     30  C   UNL     1       4.507   3.165  16.536  0.00  0.00    +0.000 A 
ATOM     31  C   UNL     1       4.094   3.066  17.870  0.00  0.00    +0.000 A 
ATOM     32  C   UNL     1       4.853   3.734  18.847  0.00  0.00    +0.000 A 
ATOM     33  N   UNL     1       5.934   4.482  18.522  0.00  0.00    +0.000 NA
ATOM     34  C   UNL     1       6.295   4.572  17.223  0.00  0.00    +0.000 A 
BRANCH  29  36
ATOM     35  N   UNL     1       6.443   4.132  13.753  0.00  0.00    +0.000 NA
ATOM     36  C   UNL     1       6.080   4.044  14.852  0.00  0.00    +0.000 C 
ENDBRANCH  29  36
ENDBRANCH  28  32
ENDBRANCH  23  28
ENDBRANCH   1  27
TORSDOF 5
ENDMDL
MODEL 2
REMARK VINA RESULT:      -9.0      3.218      5.353
REMARK  Name = 
REMARK  5 active torsions:
REMARK  status: ('A' for Active; 'I' for Inactive)
REMARK    1  A    between atoms: C_2  and  C_3
REMARK    2  A    between atoms: C_6  and  C_7
REMARK    3  A    between atoms: C_7  and  N_8
REMARK    4  A    between atoms: C_12  and  C_13
REMARK    5  A    between atoms: N_20  and  C_21
REMARK                            x       y       z     vdW  Elec       q    Type
REMARK                         _______ _______ _______ _____ _____    ______ ____
ROOT
ATOM      1  C   UNL     1       4.300   4.487  17.464  0.00  0.00    +0.000 A 
ATOM      2  C   UNL     1       4.297   3.253  18.111  0.00  0.00    +0.000 A 
ATOM      3  C   UNL     1       3.271   2.944  18.999  0.00  0.00    +0.000 A 
ATOM      4 CL   UNL     1       2.335   1.526  18.756  0.00  0.00    +0.000 Cl
ATOM      5  C   UNL     1       2.597   3.979  19.644  0.00  0.00    +0.000 A 
ATOM      6  N   UNL     1       1.844   4.025  20.778  0.00  0.00    +0.000 NA
ATOM      7  N   UNL     1       1.543   5.293  21.014  0.00  0.00    +0.000 NA
ATOM      8  N   UNL     1       1.955   6.044  19.961  0.00  0.00    +0.000 N 
ATOM      9  C   UNL     1       2.632   5.234  19.046  0.00  0.00    +0.000 A 
ATOM     10  C   UNL     1       3.281   5.392  17.801  0.00  0.00    +0.000 A 
ENDROOT
BRANCH   8  11
ATOM     11  C   UNL     1       1.745   7.452  19.963  0.00  0.00    +0.000 A 
ATOM     12  C   UNL     1       1.288   8.072  21.136  0.00  0.00    +0.000 A 
ATOM     13  C   UNL     1       1.235   9.448  21.265  0.00  0.00    +0.000 A 
ATOM     14  C   UNL     1       0.927  10.040  20.079  0.00  0.00    +0.000 A 
ATOM     15  N   UNL     1      -0.086  10.962  19.866  0.00  0.00    +0.000 N 
ATOM     16  C   UNL     1      -0.308  11.055  18.490  0.00  0.00    +0.000 A 
ATOM     17  O   UNL     1      -1.222  11.651  17.950  0.00  0.00    +0.000 OA
ATOM     18  N   UNL     1       0.663  10.243  17.866  0.00  0.00    +0.000 N 
ATOM     19  C   UNL     1       1.289   9.484  18.857  0.00  0.00    +0.000 A 
ATOM     20  C   UNL     1       1.857   8.223  18.783  0.00  0.00    +0.000 A 
ATOM     21  H   UNL     1      -0.730  11.295  20.566  0.00  0.00    +0.000 HD
ATOM     22  H   UNL     1       0.655  10.067  16.875  0.00  0.00    +0.000 HD
ENDBRANCH   8  11
BRANCH   1  27
ATOM     23  N   UNL     1       6.686   5.137  16.739  0.00  0.00    +0.000 N 
ATOM     24  N   UNL     1       7.473   5.126  15.637  0.00  0.00    +0.000 NA
ATOM     25  C   UNL     1       6.640   4.813  14.648  0.00  0.00    +0.000 A 
ATOM     26  C   UNL     1       5.340   4.623  15.103  0.00  0.00    +0.000 A 
ATOM     27  C   UNL     1       5.370   4.782  16.485  0.00  0.00    +0.000 A 
BRANCH  23  28
ATOM     28  C   UNL     1       7.349   5.450  17.998  0.00  0.00    +0.000 C 
BRANCH  28  32
ATOM     29  C   UNL     1       8.427   9.580  18.279  0.00  0.00    +0.000 A 
ATOM     30  C   UNL     1       7.475   9.191  17.324  0.00  0.00    +0.000 A 
ATOM     31  C   UNL     1       7.092   7.848  17.224  0.00  0.00    +0.000 A 
ATOM     32  C   UNL     1       7.709   6.921  18.081  0.00  0.00    +0.000 A 
ATOM     33  N   UNL     1       8.625   7.302  19.004  0.00  0.00    +0.000 NA
ATOM     34  C   UNL     1       8.958   8.609  19.087  0.00  0.00    +0.000 A 
BRANCH  29  36
ATOM     35  N   UNL     1       9.177  12.051  18.482  0.00  0.00    +0.000 NA
ATOM     36  C   UNL     1       8.843  10.944  18.391  0.00  0.00    +0.000 C 
ENDBRANCH  29  36
ENDBRANCH  28  32
ENDBRANCH  23  28
ENDBRANCH   1  27
TORSDOF 5
ENDMDL
MODEL 3
REMARK VINA RESULT:      -8.6      3.268      5.315
REMARK  Name = 
REMARK  5 active torsions:
REMARK  status: ('A' for Active; 'I' for Inactive)
REMARK    1  A    between atoms: C_2  and  C_3
REMARK    2  A    between atoms: C_6  and  C_7
REMARK    3  A    between atoms: C_7  and  N_8
REMARK    4  A    between atoms: C_12  and  C_13
REMARK    5  A    between atoms: N_20  and  C_21
REMARK                            x       y       z     vdW  Elec       q    Type
REMARK                         _______ _______ _______ _____ _____    ______ ____
ROOT
ATOM      1  C   UNL     1       4.338   4.756  17.646  0.00  0.00    +0.000 A 
ATOM      2  C   UNL     1       4.365   3.704  18.559  0.00  0.00    +0.000 A 
ATOM      3  C   UNL     1       3.332   3.566  19.481  0.00  0.00    +0.000 A 
ATOM      4 CL   UNL     1       2.453   2.093  19.557  0.00  0.00    +0.000 Cl
ATOM      5  C   UNL     1       2.608   4.693  19.863  0.00  0.00    +0.000 A 
ATOM      6  N   UNL     1       1.829   4.967  20.946  0.00  0.00    +0.000 NA
ATOM      7  N   UNL     1       1.478   6.243  20.881  0.00  0.00    +0.000 NA
ATOM      8  N   UNL     1       1.885   6.748  19.689  0.00  0.00    +0.000 N 
ATOM      9  C   UNL     1       2.611   5.778  18.993  0.00  0.00    +0.000 A 
ATOM     10  C   UNL     1       3.281   5.673  17.754  0.00  0.00    +0.000 A 
ENDROOT
BRANCH   8  11
ATOM     11  C   UNL     1       1.626   8.110  19.366  0.00  0.00    +0.000 A 
ATOM     12  C   UNL     1       2.316   8.701  18.296  0.00  0.00    +0.000 A 
ATOM     13  C   UNL     1       1.986   9.955  17.814  0.00  0.00    +0.000 A 
ATOM     14  C   UNL     1       1.566  10.771  18.819  0.00  0.00    +0.000 A 
ATOM     15  N   UNL     1       2.051  12.038  19.099  0.00  0.00    +0.000 N 
ATOM     16  C   UNL     1       1.632  12.392  20.384  0.00  0.00    +0.000 A 
ATOM     17  O   UNL     1       1.998  13.367  21.014  0.00  0.00    +0.000 OA
ATOM     18  N   UNL     1       0.796  11.350  20.839  0.00  0.00    +0.000 N 
ATOM     19  C   UNL     1       0.917  10.282  19.947  0.00  0.00    +0.000 A 
ATOM     20  C   UNL     1       0.794   8.921  20.171  0.00  0.00    +0.000 A 
ATOM     21  H   UNL     1       2.791  12.505  18.597  0.00  0.00    +0.000 HD
ATOM     22  H   UNL     1       0.440  11.324  21.780  0.00  0.00    +0.000 HD
ENDBRANCH   8  11
BRANCH   1  27
ATOM     23  N   UNL     1       6.766   5.110  16.855  0.00  0.00    +0.000 N 
ATOM     24  N   UNL     1       7.533   4.929  15.754  0.00  0.00    +0.000 NA
ATOM     25  C   UNL     1       6.660   4.614  14.800  0.00  0.00    +0.000 A 
ATOM     26  C   UNL     1       5.355   4.589  15.277  0.00  0.00    +0.000 A 
ATOM     27  C   UNL     1       5.418   4.862  16.640  0.00  0.00    +0.000 A 
BRANCH  23  28
ATOM     28  C   UNL     1       7.472   5.465  18.078  0.00  0.00    +0.000 C 
BRANCH  28  32
ATOM     29  C   UNL     1       8.418   9.633  18.255  0.00  0.00    +0.000 A 
ATOM     30  C   UNL     1       7.504   9.186  17.289  0.00  0.00    +0.000 A 
ATOM     31  C   UNL     1       7.164   7.829  17.222  0.00  0.00    +0.000 A 
ATOM     32  C   UNL     1       7.786   6.948  18.124  0.00  0.00    +0.000 A 
ATOM     33  N   UNL     1       8.664   7.386  19.058  0.00  0.00    +0.000 NA
ATOM     34  C   UNL     1       8.956   8.704  19.107  0.00  0.00    +0.000 A 
BRANCH  29  36
ATOM     35  N   UNL     1       9.089  12.132  18.397  0.00  0.00    +0.000 NA
ATOM     36  C   UNL     1       8.790  11.012  18.334  0.00  0.00    +0.000 C 
ENDBRANCH  29  36
ENDBRANCH  28  32
ENDBRANCH  23  28
ENDBRANCH   1  27
TORSDOF 5
ENDMDL
MODEL 4
REMARK VINA RESULT:      -8.5      4.337     10.009
REMARK  Name = 
REMARK  5 active torsions:
REMARK  status: ('A' for Active; 'I' for Inactive)
REMARK    1  A    between atoms: C_2  and  C_3
REMARK    2  A    between atoms: C_6  and  C_7
REMARK    3  A    between atoms: C_7  and  N_8
REMARK    4  A    between atoms: C_12  and  C_13
REMARK    5  A    between atoms: N_20  and  C_21
REMARK                            x       y       z     vdW  Elec       q    Type
REMARK                         _______ _______ _______ _____ _____    ______ ____
ROOT
ATOM      1  C   UNL     1       4.411   5.134  17.304  0.00  0.00    +0.000 A 
ATOM      2  C   UNL     1       5.392   5.747  18.081  0.00  0.00    +0.000 A 
ATOM      3  C   UNL     1       6.474   6.364  17.462  0.00  0.00    +0.000 A 
ATOM      4 CL   UNL     1       6.811   8.016  17.787  0.00  0.00    +0.000 Cl
ATOM      5  C   UNL     1       6.872   5.929  16.199  0.00  0.00    +0.000 A 
ATOM      6  N   UNL     1       8.039   6.048  15.507  0.00  0.00    +0.000 NA
ATOM      7  N   UNL     1       7.925   5.337  14.395  0.00  0.00    +0.000 NA
ATOM      8  N   UNL     1       6.646   4.897  14.286  0.00  0.00    +0.000 N 
ATOM      9  C   UNL     1       5.926   5.266  15.425  0.00  0.00    +0.000 A 
ATOM     10  C   UNL     1       4.609   5.118  15.914  0.00  0.00    +0.000 A 
ENDROOT
BRANCH   8  11
ATOM     11  C   UNL     1       6.256   4.105  13.169  0.00  0.00    +0.000 A 
ATOM     12  C   UNL     1       4.890   3.944  12.890  0.00  0.00    +0.000 A 
ATOM     13  C   UNL     1       4.446   3.343  11.726  0.00  0.00    +0.000 A 
ATOM     14  C   UNL     1       5.289   2.350  11.334  0.00  0.00    +0.000 A 
ATOM     15  N   UNL     1       4.931   1.046  11.032  0.00  0.00    +0.000 N 
ATOM     16  C   UNL     1       6.090   0.266  11.025  0.00  0.00    +0.000 A 
ATOM     17  O   UNL     1       6.135  -0.948  10.947  0.00  0.00    +0.000 OA
ATOM     18  N   UNL     1       7.173   1.146  11.230  0.00  0.00    +0.000 N 
ATOM     19  C   UNL     1       6.653   2.387  11.604  0.00  0.00    +0.000 A 
ATOM     20  C   UNL     1       7.198   3.370  12.413  0.00  0.00    +0.000 A 
ATOM     21  H   UNL     1       3.996   0.670  11.082  0.00  0.00    +0.000 HD
ATOM     22  H   UNL     1       8.114   0.814  11.360  0.00  0.00    +0.000 HD
ENDBRANCH   8  11
BRANCH   1  27
ATOM     23  N   UNL     1       2.582   4.966  19.113  0.00  0.00    +0.000 N 
ATOM     24  N   UNL     1       1.416   4.320  19.350  0.00  0.00    +0.000 NA
ATOM     25  C   UNL     1       1.348   3.410  18.381  0.00  0.00    +0.000 A 
ATOM     26  C   UNL     1       2.448   3.470  17.533  0.00  0.00    +0.000 A 
ATOM     27  C   UNL     1       3.240   4.525  17.974  0.00  0.00    +0.000 A 
BRANCH  23  28
ATOM     28  C   UNL     1       2.919   6.042  20.035  0.00  0.00    +0.000 C 
BRANCH  28  32
ATOM     29  C   UNL     1       0.921   9.695  19.054  0.00  0.00    +0.000 A 
ATOM     30  C   UNL     1       1.651   9.032  18.055  0.00  0.00    +0.000 A 
ATOM     31  C   UNL     1       2.299   7.826  18.346  0.00  0.00    +0.000 A 
ATOM     32  C   UNL     1       2.215   7.332  19.660  0.00  0.00    +0.000 A 
ATOM     33  N   UNL     1       1.505   7.974  20.619  0.00  0.00    +0.000 NA
ATOM     34  C   UNL     1       0.876   9.126  20.300  0.00  0.00    +0.000 A 
BRANCH  29  36
ATOM     35  N   UNL     1      -0.272  11.942  18.566  0.00  0.00    +0.000 NA
ATOM     36  C   UNL     1       0.261  10.935  18.783  0.00  0.00    +0.000 C 
ENDBRANCH  29  36
ENDBRANCH  28  32
ENDBRANCH  23  28
ENDBRANCH   1  27
TORSDOF 5
ENDMDL
MODEL 5
REMARK VINA RESULT:      -8.4      4.665      8.151
REMARK  Name = 
REMARK  5 active torsions:
REMARK  status: ('A' for Active; 'I' for Inactive)
REMARK    1  A    between atoms: C_2  and  C_3
REMARK    2  A    between atoms: C_6  and  C_7
REMARK    3  A    between atoms: C_7  and  N_8
REMARK    4  A    between atoms: C_12  and  C_13
REMARK    5  A    between atoms: N_20  and  C_21
REMARK                            x       y       z     vdW  Elec       q    Type
REMARK                         _______ _______ _______ _____ _____    ______ ____
ROOT
ATOM      1  C   UNL     1      -1.334  10.395  17.992  0.00  0.00    +0.000 A 
ATOM      2  C   UNL     1      -1.896   9.748  16.894  0.00  0.00    +0.000 A 
ATOM      3  C   UNL     1      -3.075  10.234  16.338  0.00  0.00    +0.000 A 
ATOM      4 CL   UNL     1      -3.124  10.642  14.671  0.00  0.00    +0.000 Cl
ATOM      5  C   UNL     1      -3.953  10.962  17.139  0.00  0.00    +0.000 A 
ATOM      6  N   UNL     1      -5.280  11.249  17.030  0.00  0.00    +0.000 NA
ATOM      7  N   UNL     1      -5.652  11.873  18.138  0.00  0.00    +0.000 NA
ATOM      8  N   UNL     1      -4.549  12.133  18.885  0.00  0.00    +0.000 N 
ATOM      9  C   UNL     1      -3.426  11.572  18.272  0.00  0.00    +0.000 A 
ATOM     10  C   UNL     1      -2.039  11.485  18.527  0.00  0.00    +0.000 A 
ENDROOT
BRANCH   8  11
ATOM     11  C   UNL     1      -4.676  12.804  20.134  0.00  0.00    +0.000 A 
ATOM     12  C   UNL     1      -3.729  13.778  20.485  0.00  0.00    +0.000 A 
ATOM     13  C   UNL     1      -3.889  14.592  21.592  0.00  0.00    +0.000 A 
ATOM     14  C   UNL     1      -4.510  13.927  22.603  0.00  0.00    +0.000 A 
ATOM     15  N   UNL     1      -4.063  13.826  23.911  0.00  0.00    +0.000 N 
ATOM     16  C   UNL     1      -4.767  12.793  24.534  0.00  0.00    +0.000 A 
ATOM     17  O   UNL     1      -4.530  12.326  25.634  0.00  0.00    +0.000 OA
ATOM     18  N   UNL     1      -5.724  12.335  23.604  0.00  0.00    +0.000 N 
ATOM     19  C   UNL     1      -5.429  12.910  22.366  0.00  0.00    +0.000 A 
ATOM     20  C   UNL     1      -5.649  12.425  21.088  0.00  0.00    +0.000 A 
ATOM     21  H   UNL     1      -3.208  14.225  24.268  0.00  0.00    +0.000 HD
ATOM     22  H   UNL     1      -6.296  11.526  23.782  0.00  0.00    +0.000 HD
ENDBRANCH   8  11
BRANCH   1  27
ATOM     23  N   UNL     1       0.278   9.672  19.870  0.00  0.00    +0.000 N 
ATOM     24  N   UNL     1       1.447   9.009  20.033  0.00  0.00    +0.000 NA
ATOM     25  C   UNL     1       1.905   8.851  18.793  0.00  0.00    +0.000 A 
ATOM     26  C   UNL     1       1.047   9.401  17.848  0.00  0.00    +0.000 A 
ATOM     27  C   UNL     1      -0.053   9.897  18.541  0.00  0.00    +0.000 A 
BRANCH  23  28
ATOM     28  C   UNL     1      -0.461   9.979  21.087  0.00  0.00    +0.000 C 
BRANCH  28  32
ATOM     29  C   UNL     1       0.107  14.078  22.173  0.00  0.00    +0.000 A 
ATOM     30  C   UNL     1      -0.797  13.299  22.913  0.00  0.00    +0.000 A 
ATOM     31  C   UNL     1      -0.987  11.951  22.588  0.00  0.00    +0.000 A 
ATOM     32  C   UNL     1      -0.273  11.428  21.496  0.00  0.00    +0.000 A 
ATOM     33  N   UNL     1       0.601  12.182  20.789  0.00  0.00    +0.000 NA
ATOM     34  C   UNL     1       0.776  13.476  21.139  0.00  0.00    +0.000 A 
BRANCH  29  36
ATOM     35  N   UNL     1       0.471  16.582  22.729  0.00  0.00    +0.000 NA
ATOM     36  C   UNL     1       0.309  15.460  22.478  0.00  0.00    +0.000 C 
ENDBRANCH  29  36
ENDBRANCH  28  32
ENDBRANCH  23  28
ENDBRANCH   1  27
TORSDOF 5
ENDMDL
MODEL 6
REMARK VINA RESULT:      -8.4      2.330      4.346
REMARK  Name = 
REMARK  5 active torsions:
REMARK  status: ('A' for Active; 'I' for Inactive)
REMARK    1  A    between atoms: C_2  and  C_3
REMARK    2  A    between atoms: C_6  and  C_7
REMARK    3  A    between atoms: C_7  and  N_8
REMARK    4  A    between atoms: C_12  and  C_13
REMARK    5  A    between atoms: N_20  and  C_21
REMARK                            x       y       z     vdW  Elec       q    Type
REMARK                         _______ _______ _______ _____ _____    ______ ____
ROOT
ATOM      1  C   UNL     1       4.983   5.026  19.122  0.00  0.00    +0.000 A 
ATOM      2  C   UNL     1       4.694   3.702  19.443  0.00  0.00    +0.000 A 
ATOM      3  C   UNL     1       3.369   3.295  19.560  0.00  0.00    +0.000 A 
ATOM      4 CL   UNL     1       2.794   1.986  18.609  0.00  0.00    +0.000 Cl
ATOM      5  C   UNL     1       2.398   4.236  19.897  0.00  0.00    +0.000 A 
ATOM      6  N   UNL     1       1.147   4.123  20.424  0.00  0.00    +0.000 NA
ATOM      7  N   UNL     1       0.698   5.345  20.668  0.00  0.00    +0.000 NA
ATOM      8  N   UNL     1       1.576   6.244  20.156  0.00  0.00    +0.000 N 
ATOM      9  C   UNL     1       2.685   5.571  19.637  0.00  0.00    +0.000 A 
ATOM     10  C   UNL     1       3.898   5.908  18.996  0.00  0.00    +0.000 A 
ENDROOT
BRANCH   8  11
ATOM     11  C   UNL     1       1.324   7.639  20.282  0.00  0.00    +0.000 A 
ATOM     12  C   UNL     1       0.608   8.105  21.395  0.00  0.00    +0.000 A 
ATOM     13  C   UNL     1       0.483   9.454  21.674  0.00  0.00    +0.000 A 
ATOM     14  C   UNL     1       0.413  10.187  20.530  0.00  0.00    +0.000 A 
ATOM     15  N   UNL     1      -0.562  11.121  20.216  0.00  0.00    +0.000 N 
ATOM     16  C   UNL     1      -0.490  11.383  18.846  0.00  0.00    +0.000 A 
ATOM     17  O   UNL     1      -1.289  12.035  18.198  0.00  0.00    +0.000 OA
ATOM     18  N   UNL     1       0.618  10.662  18.352  0.00  0.00    +0.000 N 
ATOM     19  C   UNL     1       1.044   9.790  19.356  0.00  0.00    +0.000 A 
ATOM     20  C   UNL     1       1.657   8.552  19.255  0.00  0.00    +0.000 A 
ATOM     21  H   UNL     1      -1.351  11.360  20.797  0.00  0.00    +0.000 HD
ATOM     22  H   UNL     1       0.826  10.611  17.369  0.00  0.00    +0.000 HD
ENDBRANCH   8  11
BRANCH   1  27
ATOM     23  N   UNL     1       6.936   6.262  17.981  0.00  0.00    +0.000 N 
ATOM     24  N   UNL     1       8.220   6.617  18.223  0.00  0.00    +0.000 NA
ATOM     25  C   UNL     1       8.532   5.962  19.339  0.00  0.00    +0.000 A 
ATOM     26  C   UNL     1       7.468   5.201  19.809  0.00  0.00    +0.000 A 
ATOM     27  C   UNL     1       6.396   5.433  18.953  0.00  0.00    +0.000 A 
BRANCH  23  28
ATOM     28  C   UNL     1       6.320   6.849  16.798  0.00  0.00    +0.000 C 
BRANCH  28  32
ATOM     29  C   UNL     1       6.171   4.022  13.591  0.00  0.00    +0.000 A 
ATOM     30  C   UNL     1       5.017   4.234  14.361  0.00  0.00    +0.000 A 
ATOM     31  C   UNL     1       5.035   5.167  15.405  0.00  0.00    +0.000 A 
ATOM     32  C   UNL     1       6.239   5.846  15.663  0.00  0.00    +0.000 A 
ATOM     33  N   UNL     1       7.348   5.640  14.913  0.00  0.00    +0.000 NA
ATOM     34  C   UNL     1       7.292   4.746  13.902  0.00  0.00    +0.000 A 
BRANCH  29  36
ATOM     35  N   UNL     1       6.187   2.286  11.668  0.00  0.00    +0.000 NA
ATOM     36  C   UNL     1       6.180   3.065  12.528  0.00  0.00    +0.000 C 
ENDBRANCH  29  36
ENDBRANCH  28  32
ENDBRANCH  23  28
ENDBRANCH   1  27
TORSDOF 5
ENDMDL
MODEL 7
REMARK VINA RESULT:      -8.2      7.511      9.867
REMARK  Name = 
REMARK  5 active torsions:
REMARK  status: ('A' for Active; 'I' for Inactive)
REMARK    1  A    between atoms: C_2  and  C_3
REMARK    2  A    between atoms: C_6  and  C_7
REMARK    3  A    between atoms: C_7  and  N_8
REMARK    4  A    between atoms: C_12  and  C_13
REMARK    5  A    between atoms: N_20  and  C_21
REMARK                            x       y       z     vdW  Elec       q    Type
REMARK                         _______ _______ _______ _____ _____    ______ ____
ROOT
ATOM      1  C   UNL     1       8.487  14.397  19.127  0.00  0.00    +0.000 A 
ATOM      2  C   UNL     1       9.118  15.618  18.901  0.00  0.00    +0.000 A 
ATOM      3  C   UNL     1       8.456  16.803  19.209  0.00  0.00    +0.000 A 
ATOM      4 CL   UNL     1       9.184  17.930  20.280  0.00  0.00    +0.000 Cl
ATOM      5  C   UNL     1       7.063  16.820  19.209  0.00  0.00    +0.000 A 
ATOM      6  N   UNL     1       6.153  17.828  19.107  0.00  0.00    +0.000 NA
ATOM      7  N   UNL     1       4.948  17.281  19.031  0.00  0.00    +0.000 NA
ATOM      8  N   UNL     1       5.061  15.946  19.246  0.00  0.00    +0.000 N 
ATOM      9  C   UNL     1       6.409  15.605  19.378  0.00  0.00    +0.000 A 
ATOM     10  C   UNL     1       7.167  14.434  19.601  0.00  0.00    +0.000 A 
ENDROOT
BRANCH   8  11
ATOM     11  C   UNL     1       3.902  15.119  19.222  0.00  0.00    +0.000 A 
ATOM     12  C   UNL     1       3.272  14.790  20.432  0.00  0.00    +0.000 A 
ATOM     13  C   UNL     1       2.048  14.147  20.471  0.00  0.00    +0.000 A 
ATOM     14  C   UNL     1       1.923  13.270  19.438  0.00  0.00    +0.000 A 
ATOM     15  N   UNL     1       1.572  11.933  19.540  0.00  0.00    +0.000 N 
ATOM     16  C   UNL     1       1.895  11.305  18.335  0.00  0.00    +0.000 A 
ATOM     17  O   UNL     1       1.865  10.106  18.121  0.00  0.00    +0.000 OA
ATOM     18  N   UNL     1       2.358  12.312  17.462  0.00  0.00    +0.000 N 
ATOM     19  C   UNL     1       2.546  13.475  18.212  0.00  0.00    +0.000 A 
ATOM     20  C   UNL     1       3.445  14.514  18.029  0.00  0.00    +0.000 A 
ATOM     21  H   UNL     1       1.380  11.443  20.399  0.00  0.00    +0.000 HD
ATOM     22  H   UNL     1       2.744  12.099  16.557  0.00  0.00    +0.000 HD
ENDBRANCH   8  11
BRANCH   1  27
ATOM     23  N   UNL     1      10.025  12.410  19.702  0.00  0.00    +0.000 N 
ATOM     24  N   UNL     1      10.380  11.199  19.210  0.00  0.00    +0.000 NA
ATOM     25  C   UNL     1       9.845  11.174  17.992  0.00  0.00    +0.000 A 
ATOM     26  C   UNL     1       9.156  12.347  17.704  0.00  0.00    +0.000 A 
ATOM     27  C   UNL     1       9.223  13.145  18.841  0.00  0.00    +0.000 A 
BRANCH  23  28
ATOM     28  C   UNL     1      10.479  12.712  21.052  0.00  0.00    +0.000 C 
BRANCH  28  32
ATOM     29  C   UNL     1       7.196  13.123  23.765  0.00  0.00    +0.000 A 
ATOM     30  C   UNL     1       7.387  11.895  23.112  0.00  0.00    +0.000 A 
ATOM     31  C   UNL     1       8.465  11.730  22.233  0.00  0.00    +0.000 A 
ATOM     32  C   UNL     1       9.311  12.830  22.014  0.00  0.00    +0.000 A 
ATOM     33  N   UNL     1       9.125  14.011  22.650  0.00  0.00    +0.000 NA
ATOM     34  C   UNL     1       8.087  14.132  23.506  0.00  0.00    +0.000 A 
BRANCH  29  36
ATOM     35  N   UNL     1       5.204  13.481  25.381  0.00  0.00    +0.000 NA
ATOM     36  C   UNL     1       6.096  13.319  24.657  0.00  0.00    +0.000 C 
ENDBRANCH  29  36
ENDBRANCH  28  32
ENDBRANCH  23  28
ENDBRANCH   1  27
TORSDOF 5
ENDMDL
MODEL 8
REMARK VINA RESULT:      -8.1      6.070     10.121
REMARK  Name = 
REMARK  5 active torsions:
REMARK  status: ('A' for Active; 'I' for Inactive)
REMARK    1  A    between atoms: C_2  and  C_3
REMARK    2  A    between atoms: C_6  and  C_7
REMARK    3  A    between atoms: C_7  and  N_8
REMARK    4  A    between atoms: C_12  and  C_13
REMARK    5  A    between atoms: N_20  and  C_21
REMARK                            x       y       z     vdW  Elec       q    Type
REMARK                         _______ _______ _______ _____ _____    ______ ____
ROOT
ATOM      1  C   UNL     1      -6.120  13.742  20.630  0.00  0.00    +0.000 A 
ATOM      2  C   UNL     1      -7.235  13.547  21.441  0.00  0.00    +0.000 A 
ATOM      3  C   UNL     1      -7.071  13.419  22.817  0.00  0.00    +0.000 A 
ATOM      4 CL   UNL     1      -7.915  14.474  23.876  0.00  0.00    +0.000 Cl
ATOM      5  C   UNL     1      -5.857  12.948  23.314  0.00  0.00    +0.000 A 
ATOM      6  N   UNL     1      -5.503  12.385  24.503  0.00  0.00    +0.000 NA
ATOM      7  N   UNL     1      -4.239  11.999  24.408  0.00  0.00    +0.000 NA
ATOM      8  N   UNL     1      -3.731  12.453  23.234  0.00  0.00    +0.000 N 
ATOM      9  C   UNL     1      -4.739  13.082  22.500  0.00  0.00    +0.000 A 
ATOM     10  C   UNL     1      -4.862  13.734  21.252  0.00  0.00    +0.000 A 
ENDROOT
BRANCH   8  11
ATOM     11  C   UNL     1      -2.378  12.175  22.888  0.00  0.00    +0.000 A 
ATOM     12  C   UNL     1      -1.752  12.953  21.903  0.00  0.00    +0.000 A 
ATOM     13  C   UNL     1      -0.396  12.859  21.646  0.00  0.00    +0.000 A 
ATOM     14  C   UNL     1       0.047  11.583  21.815  0.00  0.00    +0.000 A 
ATOM     15  N   UNL     1       0.776  10.844  20.898  0.00  0.00    +0.000 N 
ATOM     16  C   UNL     1       0.728   9.502  21.284  0.00  0.00    +0.000 A 
ATOM     17  O   UNL     1       1.128   8.554  20.632  0.00  0.00    +0.000 OA
ATOM     18  N   UNL     1       0.037   9.457  22.513  0.00  0.00    +0.000 N 
ATOM     19  C   UNL     1      -0.535  10.712  22.729  0.00  0.00    +0.000 A 
ATOM     20  C   UNL     1      -1.691  11.055  23.411  0.00  0.00    +0.000 A 
ATOM     21  H   UNL     1       1.055  11.159  19.982  0.00  0.00    +0.000 HD
ATOM     22  H   UNL     1      -0.213   8.588  22.954  0.00  0.00    +0.000 HD
ENDBRANCH   8  11
BRANCH   1  27
ATOM     23  N   UNL     1      -6.404  12.951  18.193  0.00  0.00    +0.000 N 
ATOM     24  N   UNL     1      -6.801  13.427  16.989  0.00  0.00    +0.000 NA
ATOM     25  C   UNL     1      -6.915  14.738  17.181  0.00  0.00    +0.000 A 
ATOM     26  C   UNL     1      -6.601  15.102  18.485  0.00  0.00    +0.000 A 
ATOM     27  C   UNL     1      -6.314  13.927  19.174  0.00  0.00    +0.000 A 
BRANCH  23  28
ATOM     28  C   UNL     1      -6.202  11.511  18.280  0.00  0.00    +0.000 C 
BRANCH  28  32
ATOM     29  C   UNL     1      -2.067  10.451  17.994  0.00  0.00    +0.000 A 
ATOM     30  C   UNL     1      -2.423  11.606  18.708  0.00  0.00    +0.000 A 
ATOM     31  C   UNL     1      -3.771  11.965  18.831  0.00  0.00    +0.000 A 
ATOM     32  C   UNL     1      -4.730  11.154  18.198  0.00  0.00    +0.000 A 
ATOM     33  N   UNL     1      -4.381  10.038  17.515  0.00  0.00    +0.000 NA
ATOM     34  C   UNL     1      -3.073   9.710  17.431  0.00  0.00    +0.000 A 
BRANCH  29  36
ATOM     35  N   UNL     1       0.415   9.762  17.721  0.00  0.00    +0.000 NA
ATOM     36  C   UNL     1      -0.696  10.072  17.844  0.00  0.00    +0.000 C 
ENDBRANCH  29  36
ENDBRANCH  28  32
ENDBRANCH  23  28
ENDBRANCH   1  27
TORSDOF 5
ENDMDL
MODEL 9
REMARK VINA RESULT:      -7.9      4.682      9.079
REMARK  Name = 
REMARK  5 active torsions:
REMARK  status: ('A' for Active; 'I' for Inactive)
REMARK    1  A    between atoms: C_2  and  C_3
REMARK    2  A    between atoms: C_6  and  C_7
REMARK    3  A    between atoms: C_7  and  N_8
REMARK    4  A    between atoms: C_12  and  C_13
REMARK    5  A    between atoms: N_20  and  C_21
REMARK                            x       y       z     vdW  Elec       q    Type
REMARK                         _______ _______ _______ _____ _____    ______ ____
ROOT
ATOM      1  C   UNL     1       0.765  10.369  19.874  0.00  0.00    +0.000 A 
ATOM      2  C   UNL     1      -0.012  10.116  21.002  0.00  0.00    +0.000 A 
ATOM      3  C   UNL     1       0.279   9.018  21.806  0.00  0.00    +0.000 A 
ATOM      4 CL   UNL     1       0.584   9.248  23.480  0.00  0.00    +0.000 Cl
ATOM      5  C   UNL     1       0.925   7.919  21.245  0.00  0.00    +0.000 A 
ATOM      6  N   UNL     1       1.024   6.614  21.623  0.00  0.00    +0.000 NA
ATOM      7  N   UNL     1       1.652   5.959  20.658  0.00  0.00    +0.000 NA
ATOM      8  N   UNL     1       2.099   6.854  19.741  0.00  0.00    +0.000 N 
ATOM      9  C   UNL     1       1.662   8.135  20.086  0.00  0.00    +0.000 A 
ATOM     10  C   UNL     1       1.777   9.445  19.570  0.00  0.00    +0.000 A 
ENDROOT
BRANCH   8  11
ATOM     11  C   UNL     1       2.815   6.404  18.596  0.00  0.00    +0.000 A 
ATOM     12  C   UNL     1       2.898   5.027  18.340  0.00  0.00    +0.000 A 
ATOM     13  C   UNL     1       3.419   4.530  17.159  0.00  0.00    +0.000 A 
ATOM     14  C   UNL     1       4.430   5.317  16.701  0.00  0.00    +0.000 A 
ATOM     15  N   UNL     1       5.699   4.889  16.344  0.00  0.00    +0.000 N 
ATOM     16  C   UNL     1       6.532   6.009  16.273  0.00  0.00    +0.000 A 
ATOM     17  O   UNL     1       7.742   5.994  16.136  0.00  0.00    +0.000 OA
ATOM     18  N   UNL     1       5.715   7.137  16.496  0.00  0.00    +0.000 N 
ATOM     19  C   UNL     1       4.471   6.685  16.941  0.00  0.00    +0.000 A 
ATOM     20  C   UNL     1       3.556   7.294  17.784  0.00  0.00    +0.000 A 
ATOM     21  H   UNL     1       6.032   3.939  16.396  0.00  0.00    +0.000 HD
ATOM     22  H   UNL     1       6.098   8.063  16.588  0.00  0.00    +0.000 HD
ENDBRANCH   8  11
BRANCH   1  27
ATOM     23  N   UNL     1      -0.760  12.035  18.631  0.00  0.00    +0.000 N 
ATOM     24  N   UNL     1      -0.713  13.274  18.086  0.00  0.00    +0.000 NA
ATOM     25  C   UNL     1       0.580  13.589  18.110  0.00  0.00    +0.000 A 
ATOM     26  C   UNL     1       1.352  12.574  18.662  0.00  0.00    +0.000 A 
ATOM     27  C   UNL     1       0.475  11.568  19.056  0.00  0.00    +0.000 A 
BRANCH  23  28
ATOM     28  C   UNL     1      -2.081  11.431  18.739  0.00  0.00    +0.000 C 
BRANCH  28  32
ATOM     29  C   UNL     1      -3.597  10.265  14.912  0.00  0.00    +0.000 A 
ATOM     30  C   UNL     1      -2.453   9.623  15.413  0.00  0.00    +0.000 A 
ATOM     31  C   UNL     1      -1.948   9.974  16.671  0.00  0.00    +0.000 A 
ATOM     32  C   UNL     1      -2.602  10.995  17.383  0.00  0.00    +0.000 A 
ATOM     33  N   UNL     1      -3.707  11.608  16.897  0.00  0.00    +0.000 NA
ATOM     34  C   UNL     1      -4.180  11.233  15.688  0.00  0.00    +0.000 A 
BRANCH  29  36
ATOM     35  N   UNL     1      -4.548   9.664  12.579  0.00  0.00    +0.000 NA
ATOM     36  C   UNL     1      -4.123   9.932  13.625  0.00  0.00    +0.000 C 
ENDBRANCH  29  36
ENDBRANCH  28  32
ENDBRANCH  23  28
ENDBRANCH   1  27
TORSDOF 5
ENDMDL
