MODEL 1
REMARK VINA RESULT:      -8.8      0.000      0.000
REMARK  Name = 
REMARK  3 active torsions:
REMARK  status: ('A' for Active; 'I' for Inactive)
REMARK    1  A    between atoms: C_8  and  C_9
REMARK    2  A    between atoms: N_14  and  C_15
REMARK    3  A    between atoms: C_15  and  C_16
REMARK                            x       y       z     vdW  Elec       q    Type
REMARK                         _______ _______ _______ _____ _____    ______ ____
ROOT
ATOM      1  C   UNL     1       3.032   4.742  18.881  0.00  0.00    +0.000 A 
ATOM      2  C   UNL     1       2.363   3.555  19.063  0.00  0.00    +0.000 A 
ATOM      3  C   UNL     1       1.394   3.574  20.029  0.00  0.00    +0.000 A 
ATOM      4  N   UNL     1       1.100   4.667  20.752  0.00  0.00    +0.000 NA
ATOM      5  C   UNL     1       1.752   5.798  20.450  0.00  0.00    +0.000 A 
ATOM      6  N   UNL     1       1.301   6.922  21.103  0.00  0.00    +0.000 N 
ATOM      7  N   UNL     1       2.745   5.875  19.554  0.00  0.00    +0.000 NA
ATOM      8  H   UNL     1       1.427   6.820  22.100  0.00  0.00    +0.000 HD
ENDROOT
BRANCH   1  16
ATOM      9  O   UNL     1       7.733   6.995  16.732  0.00  0.00    +0.000 OA
ATOM     10  C   UNL     1       7.159   6.056  16.186  0.00  0.00    +0.000 C 
ATOM     11  N   UNL     1       7.647   5.477  15.031  0.00  0.00    +0.000 N 
ATOM     12  C   UNL     1       6.811   4.672  14.143  0.00  0.00    +0.000 C 
ATOM     13  C   UNL     1       5.847   3.703  14.867  0.00  0.00    +0.000 C 
ATOM     14  C   UNL     1       5.345   4.360  16.102  0.00  0.00    +0.000 A 
ATOM     15  N   UNL     1       4.275   3.974  16.862  0.00  0.00    +0.000 N 
ATOM     16  C   UNL     1       4.122   4.852  17.919  0.00  0.00    +0.000 A 
ATOM     17  C   UNL     1       5.158   5.771  17.835  0.00  0.00    +0.000 A 
ATOM     18  C   UNL     1       5.941   5.454  16.700  0.00  0.00    +0.000 A 
ATOM     19  H   UNL     1       8.441   5.969  14.652  0.00  0.00    +0.000 HD
ATOM     20  H   UNL     1       3.667   3.182  16.698  0.00  0.00    +0.000 HD
ENDBRANCH   1  16
BRANCH   6  21
ATOM     21  C   UNL     1       1.623   8.209  20.541  0.00  0.00    +0.000 C 
BRANCH  21  22
ATOM     22  C   UNL     1       0.818   9.270  21.262  0.00  0.00    +0.000 A 
ATOM     23  C   UNL     1       0.736  10.578  20.771  0.00  0.00    +0.000 A 
ATOM     24  C   UNL     1      -0.024  11.540  21.442  0.00  0.00    +0.000 A 
ATOM     25  C   UNL     1      -0.712  11.205  22.609  0.00  0.00    +0.000 A 
ATOM     26  C   UNL     1      -0.645   9.906  23.105  0.00  0.00    +0.000 A 
ATOM     27  C   UNL     1       0.111   8.944  22.436  0.00  0.00    +0.000 A 
ENDBRANCH  21  22
ENDBRANCH   6  21
TORSDOF 3
ENDMDL
MODEL 2
REMARK VINA RESULT:      -8.5      2.215      7.641
REMARK  Name = 
REMARK  3 active torsions:
REMARK  status: ('A' for Active; 'I' for Inactive)
REMARK    1  A    between atoms: C_8  and  C_9
REMARK    2  A    between atoms: N_14  and  C_15
REMARK    3  A    between atoms: C_15  and  C_16
REMARK                            x       y       z     vdW  Elec       q    Type
REMARK                         _______ _______ _______ _____ _____    ______ ____
ROOT
ATOM      1  C   UNL     1       2.659   5.306  20.157  0.00  0.00    +0.000 A 
ATOM      2  C   UNL     1       2.055   4.415  21.013  0.00  0.00    +0.000 A 
ATOM      3  C   UNL     1       2.580   3.152  21.006  0.00  0.00    +0.000 A 
ATOM      4  N   UNL     1       3.615   2.792  20.231  0.00  0.00    +0.000 NA
ATOM      5  C   UNL     1       4.188   3.747  19.487  0.00  0.00    +0.000 A 
ATOM      6  N   UNL     1       5.341   3.368  18.839  0.00  0.00    +0.000 N 
ATOM      7  N   UNL     1       3.725   5.001  19.390  0.00  0.00    +0.000 NA
ATOM      8  H   UNL     1       5.143   2.626  18.183  0.00  0.00    +0.000 HD
ENDROOT
BRANCH   1  16
ATOM      9  O   UNL     1       1.783  10.173  17.447  0.00  0.00    +0.000 OA
ATOM     10  C   UNL     1       1.438  10.012  18.615  0.00  0.00    +0.000 C 
ATOM     11  N   UNL     1       0.787  11.004  19.325  0.00  0.00    +0.000 N 
ATOM     12  C   UNL     1       0.738  11.019  20.785  0.00  0.00    +0.000 C 
ATOM     13  C   UNL     1       0.491   9.639  21.438  0.00  0.00    +0.000 C 
ATOM     14  C   UNL     1       1.203   8.601  20.647  0.00  0.00    +0.000 A 
ATOM     15  N   UNL     1       1.479   7.319  21.034  0.00  0.00    +0.000 N 
ATOM     16  C   UNL     1       2.172   6.674  20.026  0.00  0.00    +0.000 A 
ATOM     17  C   UNL     1       2.277   7.568  18.971  0.00  0.00    +0.000 A 
ATOM     18  C   UNL     1       1.654   8.779  19.353  0.00  0.00    +0.000 A 
ATOM     19  H   UNL     1       0.729  11.873  18.817  0.00  0.00    +0.000 HD
ATOM     20  H   UNL     1       1.236   6.883  21.915  0.00  0.00    +0.000 HD
ENDBRANCH   1  16
BRANCH   6  21
ATOM     21  C   UNL     1       6.241   4.401  18.392  0.00  0.00    +0.000 C 
BRANCH  21  22
ATOM     22  C   UNL     1       6.243   4.423  16.877  0.00  0.00    +0.000 A 
ATOM     23  C   UNL     1       5.118   4.028  16.144  0.00  0.00    +0.000 A 
ATOM     24  C   UNL     1       5.133   4.069  14.748  0.00  0.00    +0.000 A 
ATOM     25  C   UNL     1       6.270   4.509  14.069  0.00  0.00    +0.000 A 
ATOM     26  C   UNL     1       7.394   4.912  14.786  0.00  0.00    +0.000 A 
ATOM     27  C   UNL     1       7.380   4.873  16.179  0.00  0.00    +0.000 A 
ENDBRANCH  21  22
ENDBRANCH   6  21
TORSDOF 3
ENDMDL
MODEL 3
REMARK VINA RESULT:      -8.4      2.141      8.288
REMARK  Name = 
REMARK  3 active torsions:
REMARK  status: ('A' for Active; 'I' for Inactive)
REMARK    1  A    between atoms: C_8  and  C_9
REMARK    2  A    between atoms: N_14  and  C_15
REMARK    3  A    between atoms: C_15  and  C_16
REMARK                            x       y       z     vdW  Elec       q    Type
REMARK                         _______ _______ _______ _____ _____    ______ ____
ROOT
ATOM      1  C   UNL     1       3.199   5.050  19.109  0.00  0.00    +0.000 A 
ATOM      2  C   UNL     1       3.041   3.993  19.975  0.00  0.00    +0.000 A 
ATOM      3  C   UNL     1       3.636   2.825  19.583  0.00  0.00    +0.000 A 
ATOM      4  N   UNL     1       4.332   2.702  18.442  0.00  0.00    +0.000 NA
ATOM      5  C   UNL     1       4.497   3.806  17.701  0.00  0.00    +0.000 A 
ATOM      6  N   UNL     1       5.352   3.667  16.632  0.00  0.00    +0.000 N 
ATOM      7  N   UNL     1       3.922   4.985  17.973  0.00  0.00    +0.000 NA
ATOM      8  H   UNL     1       4.990   2.982  15.983  0.00  0.00    +0.000 HD
ENDROOT
BRANCH   1  16
ATOM      9  O   UNL     1       1.471  10.252  17.787  0.00  0.00    +0.000 OA
ATOM     10  C   UNL     1       1.335   9.793  18.919  0.00  0.00    +0.000 C 
ATOM     11  N   UNL     1       0.723  10.514  19.927  0.00  0.00    +0.000 N 
ATOM     12  C   UNL     1       0.910  10.198  21.340  0.00  0.00    +0.000 C 
ATOM     13  C   UNL     1       0.895   8.687  21.673  0.00  0.00    +0.000 C 
ATOM     14  C   UNL     1       1.558   7.948  20.567  0.00  0.00    +0.000 A 
ATOM     15  N   UNL     1       2.004   6.655  20.595  0.00  0.00    +0.000 N 
ATOM     16  C   UNL     1       2.578   6.341  19.377  0.00  0.00    +0.000 A 
ATOM     17  C   UNL     1       2.432   7.454  18.562  0.00  0.00    +0.000 A 
ATOM     18  C   UNL     1       1.776   8.464  19.303  0.00  0.00    +0.000 A 
ATOM     19  H   UNL     1       0.508  11.461  19.654  0.00  0.00    +0.000 HD
ATOM     20  H   UNL     1       1.947   6.008  21.371  0.00  0.00    +0.000 HD
ENDBRANCH   1  16
BRANCH   6  21
ATOM     21  C   UNL     1       5.923   4.859  16.059  0.00  0.00    +0.000 C 
BRANCH  21  22
ATOM     22  C   UNL     1       6.305   4.574  14.621  0.00  0.00    +0.000 A 
ATOM     23  C   UNL     1       5.575   3.670  13.841  0.00  0.00    +0.000 A 
ATOM     24  C   UNL     1       5.934   3.430  12.513  0.00  0.00    +0.000 A 
ATOM     25  C   UNL     1       7.024   4.093  11.948  0.00  0.00    +0.000 A 
ATOM     26  C   UNL     1       7.755   5.001  12.709  0.00  0.00    +0.000 A 
ATOM     27  C   UNL     1       7.398   5.242  14.035  0.00  0.00    +0.000 A 
ENDBRANCH  21  22
ENDBRANCH   6  21
TORSDOF 3
ENDMDL
MODEL 4
REMARK VINA RESULT:      -8.4      2.132      8.210
REMARK  Name = 
REMARK  3 active torsions:
REMARK  status: ('A' for Active; 'I' for Inactive)
REMARK    1  A    between atoms: C_8  and  C_9
REMARK    2  A    between atoms: N_14  and  C_15
REMARK    3  A    between atoms: C_15  and  C_16
REMARK                            x       y       z     vdW  Elec       q    Type
REMARK                         _______ _______ _______ _____ _____    ______ ____
ROOT
ATOM      1  C   UNL     1       3.104   4.893  18.854  0.00  0.00    +0.000 A 
ATOM      2  C   UNL     1       2.772   3.806  19.629  0.00  0.00    +0.000 A 
ATOM      3  C   UNL     1       3.315   2.616  19.228  0.00  0.00    +0.000 A 
ATOM      4  N   UNL     1       4.121   2.499  18.161  0.00  0.00    +0.000 NA
ATOM      5  C   UNL     1       4.450   3.625  17.513  0.00  0.00    +0.000 A 
ATOM      6  N   UNL     1       5.405   3.475  16.534  0.00  0.00    +0.000 N 
ATOM      7  N   UNL     1       3.941   4.831  17.798  0.00  0.00    +0.000 NA
ATOM      8  H   UNL     1       5.065   2.859  15.808  0.00  0.00    +0.000 HD
ENDROOT
BRANCH   1  16
ATOM      9  O   UNL     1       1.674  10.199  17.591  0.00  0.00    +0.000 OA
ATOM     10  C   UNL     1       1.513   9.736  18.718  0.00  0.00    +0.000 C 
ATOM     11  N   UNL     1       0.944  10.479  19.734  0.00  0.00    +0.000 N 
ATOM     12  C   UNL     1       1.113  10.138  21.144  0.00  0.00    +0.000 C 
ATOM     13  C   UNL     1       1.012   8.627  21.460  0.00  0.00    +0.000 C 
ATOM     14  C   UNL     1       1.632   7.863  20.345  0.00  0.00    +0.000 A 
ATOM     15  N   UNL     1       2.003   6.547  20.359  0.00  0.00    +0.000 N 
ATOM     16  C   UNL     1       2.558   6.214  19.136  0.00  0.00    +0.000 A 
ATOM     17  C   UNL     1       2.475   7.343  18.334  0.00  0.00    +0.000 A 
ATOM     18  C   UNL     1       1.877   8.380  19.087  0.00  0.00    +0.000 A 
ATOM     19  H   UNL     1       0.782  11.440  19.472  0.00  0.00    +0.000 HD
ATOM     20  H   UNL     1       1.910   5.895  21.127  0.00  0.00    +0.000 HD
ENDBRANCH   1  16
BRANCH   6  21
ATOM     21  C   UNL     1       6.124   4.646  16.101  0.00  0.00    +0.000 C 
BRANCH  21  22
ATOM     22  C   UNL     1       6.446   4.503  14.628  0.00  0.00    +0.000 A 
ATOM     23  C   UNL     1       7.483   5.234  14.037  0.00  0.00    +0.000 A 
ATOM     24  C   UNL     1       7.775   5.078  12.680  0.00  0.00    +0.000 A 
ATOM     25  C   UNL     1       7.037   4.188  11.899  0.00  0.00    +0.000 A 
ATOM     26  C   UNL     1       6.007   3.448  12.475  0.00  0.00    +0.000 A 
ATOM     27  C   UNL     1       5.715   3.602  13.829  0.00  0.00    +0.000 A 
ENDBRANCH  21  22
ENDBRANCH   6  21
TORSDOF 3
ENDMDL
MODEL 5
REMARK VINA RESULT:      -8.4      2.682      8.229
REMARK  Name = 
REMARK  3 active torsions:
REMARK  status: ('A' for Active; 'I' for Inactive)
REMARK    1  A    between atoms: C_8  and  C_9
REMARK    2  A    between atoms: N_14  and  C_15
REMARK    3  A    between atoms: C_15  and  C_16
REMARK                            x       y       z     vdW  Elec       q    Type
REMARK                         _______ _______ _______ _____ _____    ______ ____
ROOT
ATOM      1  C   UNL     1       3.061   4.871  18.753  0.00  0.00    +0.000 A 
ATOM      2  C   UNL     1       2.670   3.775  19.488  0.00  0.00    +0.000 A 
ATOM      3  C   UNL     1       3.173   2.577  19.060  0.00  0.00    +0.000 A 
ATOM      4  N   UNL     1       3.995   2.460  18.005  0.00  0.00    +0.000 NA
ATOM      5  C   UNL     1       4.383   3.591  17.400  0.00  0.00    +0.000 A 
ATOM      6  N   UNL     1       5.350   3.432  16.434  0.00  0.00    +0.000 N 
ATOM      7  N   UNL     1       3.916   4.807  17.713  0.00  0.00    +0.000 NA
ATOM      8  H   UNL     1       5.000   2.854  15.683  0.00  0.00    +0.000 HD
ENDROOT
BRANCH   1  16
ATOM      9  O   UNL     1       0.884   8.845  22.109  0.00  0.00    +0.000 OA
ATOM     10  C   UNL     1       1.121   9.059  20.923  0.00  0.00    +0.000 C 
ATOM     11  N   UNL     1       0.897  10.296  20.348  0.00  0.00    +0.000 N 
ATOM     12  C   UNL     1       0.765  10.477  18.905  0.00  0.00    +0.000 C 
ATOM     13  C   UNL     1       1.770   9.662  18.056  0.00  0.00    +0.000 C 
ATOM     14  C   UNL     1       1.986   8.343  18.706  0.00  0.00    +0.000 A 
ATOM     15  N   UNL     1       2.562   7.236  18.147  0.00  0.00    +0.000 N 
ATOM     16  C   UNL     1       2.563   6.204  19.067  0.00  0.00    +0.000 A 
ATOM     17  C   UNL     1       2.022   6.708  20.241  0.00  0.00    +0.000 A 
ATOM     18  C   UNL     1       1.671   8.061  20.022  0.00  0.00    +0.000 A 
ATOM     19  H   UNL     1       0.436  10.939  20.973  0.00  0.00    +0.000 HD
ATOM     20  H   UNL     1       2.930   7.150  17.208  0.00  0.00    +0.000 HD
ENDBRANCH   1  16
BRANCH   6  21
ATOM     21  C   UNL     1       6.125   4.586  16.052  0.00  0.00    +0.000 C 
BRANCH  21  22
ATOM     22  C   UNL     1       6.465   4.478  14.580  0.00  0.00    +0.000 A 
ATOM     23  C   UNL     1       7.489   5.246  14.014  0.00  0.00    +0.000 A 
ATOM     24  C   UNL     1       7.799   5.122  12.658  0.00  0.00    +0.000 A 
ATOM     25  C   UNL     1       7.092   4.228  11.853  0.00  0.00    +0.000 A 
ATOM     26  C   UNL     1       6.077   3.451  12.404  0.00  0.00    +0.000 A 
ATOM     27  C   UNL     1       5.767   3.573  13.758  0.00  0.00    +0.000 A 
ENDBRANCH  21  22
ENDBRANCH   6  21
TORSDOF 3
ENDMDL
MODEL 6
REMARK VINA RESULT:      -8.3      3.811      7.263
REMARK  Name = 
REMARK  3 active torsions:
REMARK  status: ('A' for Active; 'I' for Inactive)
REMARK    1  A    between atoms: C_8  and  C_9
REMARK    2  A    between atoms: N_14  and  C_15
REMARK    3  A    between atoms: C_15  and  C_16
REMARK                            x       y       z     vdW  Elec       q    Type
REMARK                         _______ _______ _______ _____ _____    ______ ____
ROOT
ATOM      1  C   UNL     1       5.408   4.844  16.809  0.00  0.00    +0.000 A 
ATOM      2  C   UNL     1       5.735   4.105  15.695  0.00  0.00    +0.000 A 
ATOM      3  C   UNL     1       6.784   4.589  14.962  0.00  0.00    +0.000 A 
ATOM      4  N   UNL     1       7.461   5.699  15.294  0.00  0.00    +0.000 NA
ATOM      5  C   UNL     1       7.121   6.309  16.438  0.00  0.00    +0.000 A 
ATOM      6  N   UNL     1       7.947   7.342  16.816  0.00  0.00    +0.000 N 
ATOM      7  N   UNL     1       6.084   5.942  17.203  0.00  0.00    +0.000 NA
ATOM      8  H   UNL     1       7.924   8.077  16.124  0.00  0.00    +0.000 HD
ENDROOT
BRANCH   1  16
ATOM      9  O   UNL     1       0.708   2.004  18.087  0.00  0.00    +0.000 OA
ATOM     10  C   UNL     1       1.182   2.845  18.847  0.00  0.00    +0.000 C 
ATOM     11  N   UNL     1       0.608   3.124  20.073  0.00  0.00    +0.000 N 
ATOM     12  C   UNL     1       0.872   4.364  20.798  0.00  0.00    +0.000 C 
ATOM     13  C   UNL     1       2.349   4.823  20.778  0.00  0.00    +0.000 C 
ATOM     14  C   UNL     1       2.931   4.505  19.447  0.00  0.00    +0.000 A 
ATOM     15  N   UNL     1       4.096   4.992  18.923  0.00  0.00    +0.000 N 
ATOM     16  C   UNL     1       4.281   4.472  17.655  0.00  0.00    +0.000 A 
ATOM     17  C   UNL     1       3.228   3.600  17.417  0.00  0.00    +0.000 A 
ATOM     18  C   UNL     1       2.383   3.606  18.551  0.00  0.00    +0.000 A 
ATOM     19  H   UNL     1      -0.269   2.645  20.211  0.00  0.00    +0.000 HD
ATOM     20  H   UNL     1       4.738   5.639  19.362  0.00  0.00    +0.000 HD
ENDBRANCH   1  16
BRANCH   6  21
ATOM     21  C   UNL     1       7.932   7.754  18.197  0.00  0.00    +0.000 C 
BRANCH  21  22
ATOM     22  C   UNL     1       8.383   9.197  18.279  0.00  0.00    +0.000 A 
ATOM     23  C   UNL     1       7.855  10.173  17.426  0.00  0.00    +0.000 A 
ATOM     24  C   UNL     1       8.272  11.502  17.527  0.00  0.00    +0.000 A 
ATOM     25  C   UNL     1       9.219  11.872  18.482  0.00  0.00    +0.000 A 
ATOM     26  C   UNL     1       9.747  10.914  19.343  0.00  0.00    +0.000 A 
ATOM     27  C   UNL     1       9.331   9.587  19.245  0.00  0.00    +0.000 A 
ENDBRANCH  21  22
ENDBRANCH   6  21
TORSDOF 3
ENDMDL
MODEL 7
REMARK VINA RESULT:      -8.3      2.232      7.129
REMARK  Name = 
REMARK  3 active torsions:
REMARK  status: ('A' for Active; 'I' for Inactive)
REMARK    1  A    between atoms: C_8  and  C_9
REMARK    2  A    between atoms: N_14  and  C_15
REMARK    3  A    between atoms: C_15  and  C_16
REMARK                            x       y       z     vdW  Elec       q    Type
REMARK                         _______ _______ _______ _____ _____    ______ ____
ROOT
ATOM      1  C   UNL     1       3.059   5.027  19.379  0.00  0.00    +0.000 A 
ATOM      2  C   UNL     1       2.992   4.128  20.418  0.00  0.00    +0.000 A 
ATOM      3  C   UNL     1       3.529   2.897  20.159  0.00  0.00    +0.000 A 
ATOM      4  N   UNL     1       4.090   2.573  18.984  0.00  0.00    +0.000 NA
ATOM      5  C   UNL     1       4.179   3.538  18.058  0.00  0.00    +0.000 A 
ATOM      6  N   UNL     1       4.906   3.205  16.939  0.00  0.00    +0.000 N 
ATOM      7  N   UNL     1       3.648   4.760  18.196  0.00  0.00    +0.000 NA
ATOM      8  H   UNL     1       4.468   2.435  16.455  0.00  0.00    +0.000 HD
ENDROOT
BRANCH   1  16
ATOM      9  O   UNL     1       1.691  10.177  17.536  0.00  0.00    +0.000 OA
ATOM     10  C   UNL     1       1.447   9.815  18.685  0.00  0.00    +0.000 C 
ATOM     11  N   UNL     1       0.795  10.638  19.584  0.00  0.00    +0.000 N 
ATOM     12  C   UNL     1       0.858  10.427  21.028  0.00  0.00    +0.000 C 
ATOM     13  C   UNL     1       0.744   8.948  21.470  0.00  0.00    +0.000 C 
ATOM     14  C   UNL     1       1.453   8.097  20.480  0.00  0.00    +0.000 A 
ATOM     15  N   UNL     1       1.833   6.793  20.640  0.00  0.00    +0.000 N 
ATOM     16  C   UNL     1       2.483   6.360  19.499  0.00  0.00    +0.000 A 
ATOM     17  C   UNL     1       2.453   7.411  18.593  0.00  0.00    +0.000 A 
ATOM     18  C   UNL     1       1.792   8.503  19.202  0.00  0.00    +0.000 A 
ATOM     19  H   UNL     1       0.647  11.569  19.225  0.00  0.00    +0.000 HD
ATOM     20  H   UNL     1       1.685   6.212  21.455  0.00  0.00    +0.000 HD
ENDBRANCH   1  16
BRANCH   6  21
ATOM     21  C   UNL     1       5.418   4.274  16.119  0.00  0.00    +0.000 C 
BRANCH  21  22
ATOM     22  C   UNL     1       6.314   5.153  16.967  0.00  0.00    +0.000 A 
ATOM     23  C   UNL     1       7.174   4.603  17.924  0.00  0.00    +0.000 A 
ATOM     24  C   UNL     1       8.003   5.429  18.687  0.00  0.00    +0.000 A 
ATOM     25  C   UNL     1       7.985   6.811  18.500  0.00  0.00    +0.000 A 
ATOM     26  C   UNL     1       7.140   7.371  17.546  0.00  0.00    +0.000 A 
ATOM     27  C   UNL     1       6.312   6.549  16.783  0.00  0.00    +0.000 A 
ENDBRANCH  21  22
ENDBRANCH   6  21
TORSDOF 3
ENDMDL
MODEL 8
REMARK VINA RESULT:      -8.3      3.632      7.115
REMARK  Name = 
REMARK  3 active torsions:
REMARK  status: ('A' for Active; 'I' for Inactive)
REMARK    1  A    between atoms: C_8  and  C_9
REMARK    2  A    between atoms: N_14  and  C_15
REMARK    3  A    between atoms: C_15  and  C_16
REMARK                            x       y       z     vdW  Elec       q    Type
REMARK                         _______ _______ _______ _____ _____    ______ ____
ROOT
ATOM      1  C   UNL     1       5.416   4.960  16.851  0.00  0.00    +0.000 A 
ATOM      2  C   UNL     1       5.748   4.205  15.749  0.00  0.00    +0.000 A 
ATOM      3  C   UNL     1       6.816   4.663  15.028  0.00  0.00    +0.000 A 
ATOM      4  N   UNL     1       7.508   5.765  15.360  0.00  0.00    +0.000 NA
ATOM      5  C   UNL     1       7.160   6.391  16.493  0.00  0.00    +0.000 A 
ATOM      6  N   UNL     1       7.999   7.413  16.874  0.00  0.00    +0.000 N 
ATOM      7  N   UNL     1       6.105   6.050  17.245  0.00  0.00    +0.000 NA
ATOM      8  H   UNL     1       8.000   8.142  16.176  0.00  0.00    +0.000 HD
ENDROOT
BRANCH   1  16
ATOM      9  O   UNL     1       1.500   5.923  20.791  0.00  0.00    +0.000 OA
ATOM     10  C   UNL     1       1.582   4.842  20.211  0.00  0.00    +0.000 C 
ATOM     11  N   UNL     1       0.701   3.810  20.469  0.00  0.00    +0.000 N 
ATOM     12  C   UNL     1       1.002   2.420  20.134  0.00  0.00    +0.000 C 
ATOM     13  C   UNL     1       1.680   2.219  18.759  0.00  0.00    +0.000 C 
ATOM     14  C   UNL     1       2.617   3.348  18.518  0.00  0.00    +0.000 A 
ATOM     15  N   UNL     1       3.607   3.407  17.576  0.00  0.00    +0.000 N 
ATOM     16  C   UNL     1       4.270   4.616  17.682  0.00  0.00    +0.000 A 
ATOM     17  C   UNL     1       3.634   5.340  18.680  0.00  0.00    +0.000 A 
ATOM     18  C   UNL     1       2.582   4.550  19.199  0.00  0.00    +0.000 A 
ATOM     19  H   UNL     1       0.076   4.011  21.234  0.00  0.00    +0.000 HD
ATOM     20  H   UNL     1       3.848   2.693  16.901  0.00  0.00    +0.000 HD
ENDBRANCH   1  16
BRANCH   6  21
ATOM     21  C   UNL     1       7.969   7.838  18.251  0.00  0.00    +0.000 C 
BRANCH  21  22
ATOM     22  C   UNL     1       8.432   9.279  18.325  0.00  0.00    +0.000 A 
ATOM     23  C   UNL     1       7.916  10.252  17.462  0.00  0.00    +0.000 A 
ATOM     24  C   UNL     1       8.344  11.579  17.555  0.00  0.00    +0.000 A 
ATOM     25  C   UNL     1       9.289  11.948  18.513  0.00  0.00    +0.000 A 
ATOM     26  C   UNL     1       9.805  10.991  19.384  0.00  0.00    +0.000 A 
ATOM     27  C   UNL     1       9.378   9.667  19.293  0.00  0.00    +0.000 A 
ENDBRANCH  21  22
ENDBRANCH   6  21
TORSDOF 3
ENDMDL
MODEL 9
REMARK VINA RESULT:      -8.3      2.654      8.297
REMARK  Name = 
REMARK  3 active torsions:
REMARK  status: ('A' for Active; 'I' for Inactive)
REMARK    1  A    between atoms: C_8  and  C_9
REMARK    2  A    between atoms: N_14  and  C_15
REMARK    3  A    between atoms: C_15  and  C_16
REMARK                            x       y       z     vdW  Elec       q    Type
REMARK                         _______ _______ _______ _____ _____    ______ ____
ROOT
ATOM      1  C   UNL     1       3.114   5.064  18.990  0.00  0.00    +0.000 A 
ATOM      2  C   UNL     1       2.874   3.995  19.824  0.00  0.00    +0.000 A 
ATOM      3  C   UNL     1       3.418   2.807  19.419  0.00  0.00    +0.000 A 
ATOM      4  N   UNL     1       4.141   2.675  18.296  0.00  0.00    +0.000 NA
ATOM      5  C   UNL     1       4.387   3.787  17.588  0.00  0.00    +0.000 A 
ATOM      6  N   UNL     1       5.265   3.629  16.541  0.00  0.00    +0.000 N 
ATOM      7  N   UNL     1       3.867   4.988  17.875  0.00  0.00    +0.000 NA
ATOM      8  H   UNL     1       4.888   2.981  15.865  0.00  0.00    +0.000 HD
ENDROOT
BRANCH   1  16
ATOM      9  O   UNL     1       0.761   9.011  22.258  0.00  0.00    +0.000 OA
ATOM     10  C   UNL     1       0.984   9.207  21.065  0.00  0.00    +0.000 C 
ATOM     11  N   UNL     1       0.700  10.417  20.461  0.00  0.00    +0.000 N 
ATOM     12  C   UNL     1       0.554  10.557  19.015  0.00  0.00    +0.000 C 
ATOM     13  C   UNL     1       1.594   9.770  18.182  0.00  0.00    +0.000 C 
ATOM     14  C   UNL     1       1.875   8.479  18.863  0.00  0.00    +0.000 A 
ATOM     15  N   UNL     1       2.500   7.387  18.328  0.00  0.00    +0.000 N 
ATOM     16  C   UNL     1       2.554   6.379  19.274  0.00  0.00    +0.000 A 
ATOM     17  C   UNL     1       1.993   6.886  20.437  0.00  0.00    +0.000 A 
ATOM     18  C   UNL     1       1.578   8.214  20.187  0.00  0.00    +0.000 A 
ATOM     19  H   UNL     1       0.211  11.053  21.073  0.00  0.00    +0.000 HD
ATOM     20  H   UNL     1       2.869   7.295  17.390  0.00  0.00    +0.000 HD
ENDBRANCH   1  16
BRANCH   6  21
ATOM     21  C   UNL     1       5.915   4.803  16.017  0.00  0.00    +0.000 C 
BRANCH  21  22
ATOM     22  C   UNL     1       6.310   4.539  14.578  0.00  0.00    +0.000 A 
ATOM     23  C   UNL     1       5.584   3.651  13.777  0.00  0.00    +0.000 A 
ATOM     24  C   UNL     1       5.954   3.431  12.448  0.00  0.00    +0.000 A 
ATOM     25  C   UNL     1       7.052   4.098  11.904  0.00  0.00    +0.000 A 
ATOM     26  C   UNL     1       7.780   4.991  12.687  0.00  0.00    +0.000 A 
ATOM     27  C   UNL     1       7.411   5.212  14.013  0.00  0.00    +0.000 A 
ENDBRANCH  21  22
ENDBRANCH   6  21
TORSDOF 3
ENDMDL
