MODEL 1
REMARK VINA RESULT:      -8.4      0.000      0.000
REMARK  Name = 
REMARK  5 active torsions:
REMARK  status: ('A' for Active; 'I' for Inactive)
REMARK    1  A    between atoms: N_1  and  C_2
REMARK    2  A    between atoms: C_5  and  C_6
REMARK    3  A    between atoms: C_8  and  C_9
REMARK    4  A    between atoms: N_11  and  C_12
REMARK    5  A    between atoms: C_19  and  C_20
REMARK                            x       y       z     vdW  Elec       q    Type
REMARK                         _______ _______ _______ _____ _____    ______ ____
ROOT
ATOM      1  C   UNL     1       5.005   5.297  16.715  0.00  0.00    +0.000 A 
ATOM      2  C   UNL     1       4.728   4.490  15.642  0.00  0.00    +0.000 A 
ATOM      3  N   UNL     1       5.774   4.626  14.763  0.00  0.00    +0.000 N 
ATOM      4  N   UNL     1       6.719   5.476  15.246  0.00  0.00    +0.000 NA
ATOM      5  C   UNL     1       6.272   5.882  16.449  0.00  0.00    +0.000 A 
ENDROOT
BRANCH   1   8
ATOM      6  C   UNL     1       2.662   6.537  19.328  0.00  0.00    +0.000 A 
ATOM      7  C   UNL     1       3.582   6.592  18.173  0.00  0.00    +0.000 A 
ATOM      8  C   UNL     1       4.144   5.430  17.833  0.00  0.00    +0.000 A 
ATOM      9  N   UNL     1       3.919   4.320  18.595  0.00  0.00    +0.000 N 
ATOM     10  C   UNL     1       3.130   4.321  19.718  0.00  0.00    +0.000 A 
ATOM     11  S   UNL     1       3.014   2.894  20.589  0.00  0.00    +0.000 S 
ATOM     12  N   UNL     1       2.476   5.481  20.057  0.00  0.00    +0.000 NA
ATOM     13  H   UNL     1       4.376   3.447  18.361  0.00  0.00    +0.000 HD
BRANCH   6  17
ATOM     14  C   UNL     1       0.517  10.167  20.164  0.00  0.00    +0.000 A 
ATOM     15  C   UNL     1       0.678   9.205  21.161  0.00  0.00    +0.000 A 
ATOM     16  C   UNL     1       1.412   8.042  20.918  0.00  0.00    +0.000 A 
ATOM     17  C   UNL     1       1.945   7.801  19.645  0.00  0.00    +0.000 A 
ATOM     18  C   UNL     1       1.774   8.751  18.636  0.00  0.00    +0.000 A 
ATOM     19  C   UNL     1       1.039   9.914  18.892  0.00  0.00    +0.000 A 
BRANCH  14  20
ATOM     20  N   UNL     1      -0.349  11.247  20.369  0.00  0.00    +0.000 N 
ATOM     21  H   UNL     1      -0.889  11.507  19.551  0.00  0.00    +0.000 HD
ATOM     22  H   UNL     1      -0.928  11.157  21.199  0.00  0.00    +0.000 HD
ENDBRANCH  14  20
ENDBRANCH   6  17
ENDBRANCH   1   8
BRANCH   5  23
ATOM     23  C   UNL     1       7.067   6.795  17.285  0.00  0.00    +0.000 A 
ATOM     24  C   UNL     1       7.160   8.158  16.953  0.00  0.00    +0.000 A 
ATOM     25  C   UNL     1       7.926   9.032  17.733  0.00  0.00    +0.000 A 
ATOM     26  C   UNL     1       8.600   8.552  18.848  0.00  0.00    +0.000 A 
ATOM     27  F   UNL     1       9.345   9.386  19.585  0.00  0.00    +0.000 F 
ATOM     28  C   UNL     1       8.522   7.213  19.203  0.00  0.00    +0.000 A 
ATOM     29  C   UNL     1       7.761   6.340  18.418  0.00  0.00    +0.000 A 
ENDBRANCH   5  23
BRANCH   3  30
ATOM     30  C   UNL     1       5.915   3.978  13.502  0.00  0.00    +0.000 A 
ATOM     31  C   UNL     1       4.823   3.327  12.905  0.00  0.00    +0.000 A 
ATOM     32  C   UNL     1       4.976   2.670  11.682  0.00  0.00    +0.000 A 
ATOM     33  C   UNL     1       6.214   2.661  11.045  0.00  0.00    +0.000 A 
ATOM     34  C   UNL     1       7.299   3.316  11.625  0.00  0.00    +0.000 A 
ATOM     35  C   UNL     1       7.155   3.978  12.849  0.00  0.00    +0.000 A 
ENDBRANCH   3  30
TORSDOF 5
ENDMDL
MODEL 2
REMARK VINA RESULT:      -8.3      0.174      1.218
REMARK  Name = 
REMARK  5 active torsions:
REMARK  status: ('A' for Active; 'I' for Inactive)
REMARK    1  A    between atoms: N_1  and  C_2
REMARK    2  A    between atoms: C_5  and  C_6
REMARK    3  A    between atoms: C_8  and  C_9
REMARK    4  A    between atoms: N_11  and  C_12
REMARK    5  A    between atoms: C_19  and  C_20
REMARK                            x       y       z     vdW  Elec       q    Type
REMARK                         _______ _______ _______ _____ _____    ______ ____
ROOT
ATOM      1  C   UNL     1       4.964   5.303  16.660  0.00  0.00    +0.000 A 
ATOM      2  C   UNL     1       4.671   4.488  15.597  0.00  0.00    +0.000 A 
ATOM      3  N   UNL     1       5.724   4.584  14.722  0.00  0.00    +0.000 N 
ATOM      4  N   UNL     1       6.689   5.416  15.198  0.00  0.00    +0.000 NA
ATOM      5  C   UNL     1       6.247   5.852  16.392  0.00  0.00    +0.000 A 
ENDROOT
BRANCH   1   8
ATOM      6  C   UNL     1       2.620   6.633  19.228  0.00  0.00    +0.000 A 
ATOM      7  C   UNL     1       3.543   6.648  18.074  0.00  0.00    +0.000 A 
ATOM      8  C   UNL     1       4.101   5.474  17.772  0.00  0.00    +0.000 A 
ATOM      9  N   UNL     1       3.870   4.390  18.568  0.00  0.00    +0.000 N 
ATOM     10  C   UNL     1       3.080   4.429  19.689  0.00  0.00    +0.000 A 
ATOM     11  S   UNL     1       2.956   3.030  20.604  0.00  0.00    +0.000 S 
ATOM     12  N   UNL     1       2.429   5.601  19.989  0.00  0.00    +0.000 NA
ATOM     13  H   UNL     1       4.325   3.508  18.363  0.00  0.00    +0.000 HD
BRANCH   6  17
ATOM     14  C   UNL     1       0.636  10.345  20.102  0.00  0.00    +0.000 A 
ATOM     15  C   UNL     1       1.129  10.100  18.820  0.00  0.00    +0.000 A 
ATOM     16  C   UNL     1       1.733   8.881  18.509  0.00  0.00    +0.000 A 
ATOM     17  C   UNL     1       1.908   7.909  19.503  0.00  0.00    +0.000 A 
ATOM     18  C   UNL     1       1.433   8.153  20.794  0.00  0.00    +0.000 A 
ATOM     19  C   UNL     1       0.826   9.378  21.092  0.00  0.00    +0.000 A 
BRANCH  14  20
ATOM     20  N   UNL     1       0.178  11.623  20.441  0.00  0.00    +0.000 N 
ATOM     21  H   UNL     1      -0.670  11.901  19.958  0.00  0.00    +0.000 HD
ATOM     22  H   UNL     1       0.122  11.787  21.442  0.00  0.00    +0.000 HD
ENDBRANCH  14  20
ENDBRANCH   6  17
ENDBRANCH   1   8
BRANCH   5  23
ATOM     23  C   UNL     1       7.061   6.756  17.219  0.00  0.00    +0.000 A 
ATOM     24  C   UNL     1       7.716   6.270  18.364  0.00  0.00    +0.000 A 
ATOM     25  C   UNL     1       8.481   7.124  19.166  0.00  0.00    +0.000 A 
ATOM     26  C   UNL     1       8.600   8.466  18.828  0.00  0.00    +0.000 A 
ATOM     27  F   UNL     1       9.321   9.286  19.603  0.00  0.00    +0.000 F 
ATOM     28  C   UNL     1       7.970   8.972  17.700  0.00  0.00    +0.000 A 
ATOM     29  C   UNL     1       7.200   8.117  16.904  0.00  0.00    +0.000 A 
ENDBRANCH   5  23
BRANCH   3  30
ATOM     30  C   UNL     1       5.855   3.915  13.472  0.00  0.00    +0.000 A 
ATOM     31  C   UNL     1       4.740   3.327  12.854  0.00  0.00    +0.000 A 
ATOM     32  C   UNL     1       4.880   2.648  11.641  0.00  0.00    +0.000 A 
ATOM     33  C   UNL     1       6.130   2.554  11.036  0.00  0.00    +0.000 A 
ATOM     34  C   UNL     1       7.240   3.147  11.635  0.00  0.00    +0.000 A 
ATOM     35  C   UNL     1       7.108   3.830  12.849  0.00  0.00    +0.000 A 
ENDBRANCH   3  30
TORSDOF 5
ENDMDL
MODEL 3
REMARK VINA RESULT:      -8.0      8.421     12.896
REMARK  Name = 
REMARK  5 active torsions:
REMARK  status: ('A' for Active; 'I' for Inactive)
REMARK    1  A    between atoms: N_1  and  C_2
REMARK    2  A    between atoms: C_5  and  C_6
REMARK    3  A    between atoms: C_8  and  C_9
REMARK    4  A    between atoms: N_11  and  C_12
REMARK    5  A    between atoms: C_19  and  C_20
REMARK                            x       y       z     vdW  Elec       q    Type
REMARK                         _______ _______ _______ _____ _____    ______ ____
ROOT
ATOM      1  C   UNL     1      -2.692  13.430  22.331  0.00  0.00    +0.000 A 
ATOM      2  C   UNL     1      -2.871  14.639  22.952  0.00  0.00    +0.000 A 
ATOM      3  N   UNL     1      -1.812  14.805  23.811  0.00  0.00    +0.000 N 
ATOM      4  N   UNL     1      -0.953  13.754  23.745  0.00  0.00    +0.000 NA
ATOM      5  C   UNL     1      -1.468  12.910  22.831  0.00  0.00    +0.000 A 
ENDROOT
BRANCH   1   8
ATOM      6  C   UNL     1      -4.272  11.973  19.292  0.00  0.00    +0.000 A 
ATOM      7  C   UNL     1      -3.216  12.567  20.139  0.00  0.00    +0.000 A 
ATOM      8  C   UNL     1      -3.595  12.904  21.373  0.00  0.00    +0.000 A 
ATOM      9  N   UNL     1      -4.903  12.773  21.740  0.00  0.00    +0.000 N 
ATOM     10  C   UNL     1      -5.881  12.304  20.899  0.00  0.00    +0.000 A 
ATOM     11  S   UNL     1      -7.454  12.274  21.475  0.00  0.00    +0.000 S 
ATOM     12  N   UNL     1      -5.515  11.878  19.645  0.00  0.00    +0.000 NA
ATOM     13  H   UNL     1      -5.199  13.066  22.664  0.00  0.00    +0.000 HD
BRANCH   6  17
ATOM     14  C   UNL     1      -3.004  10.477  15.467  0.00  0.00    +0.000 A 
ATOM     15  C   UNL     1      -4.217  11.155  15.585  0.00  0.00    +0.000 A 
ATOM     16  C   UNL     1      -4.620  11.687  16.812  0.00  0.00    +0.000 A 
ATOM     17  C   UNL     1      -3.834  11.491  17.955  0.00  0.00    +0.000 A 
ATOM     18  C   UNL     1      -2.626  10.799  17.849  0.00  0.00    +0.000 A 
ATOM     19  C   UNL     1      -2.231  10.272  16.614  0.00  0.00    +0.000 A 
BRANCH  14  20
ATOM     20  N   UNL     1      -2.688   9.814  14.276  0.00  0.00    +0.000 N 
ATOM     21  H   UNL     1      -3.069   8.877  14.209  0.00  0.00    +0.000 HD
ATOM     22  H   UNL     1      -2.869  10.363  13.440  0.00  0.00    +0.000 HD
ENDBRANCH  14  20
ENDBRANCH   6  17
ENDBRANCH   1   8
BRANCH   5  23
ATOM     23  C   UNL     1      -0.774  11.663  22.474  0.00  0.00    +0.000 A 
ATOM     24  C   UNL     1       0.098  11.629  21.372  0.00  0.00    +0.000 A 
ATOM     25  C   UNL     1       0.752  10.445  21.015  0.00  0.00    +0.000 A 
ATOM     26  C   UNL     1       0.542   9.290  21.756  0.00  0.00    +0.000 A 
ATOM     27  F   UNL     1       1.157   8.153  21.405  0.00  0.00    +0.000 F 
ATOM     28  C   UNL     1      -0.308   9.295  22.852  0.00  0.00    +0.000 A 
ATOM     29  C   UNL     1      -0.966  10.478  23.203  0.00  0.00    +0.000 A 
ENDBRANCH   5  23
BRANCH   3  30
ATOM     30  C   UNL     1      -1.581  15.916  24.671  0.00  0.00    +0.000 A 
ATOM     31  C   UNL     1      -0.991  15.734  25.932  0.00  0.00    +0.000 A 
ATOM     32  C   UNL     1      -0.791  16.824  26.783  0.00  0.00    +0.000 A 
ATOM     33  C   UNL     1      -1.175  18.101  26.380  0.00  0.00    +0.000 A 
ATOM     34  C   UNL     1      -1.749  18.292  25.125  0.00  0.00    +0.000 A 
ATOM     35  C   UNL     1      -1.951  17.206  24.266  0.00  0.00    +0.000 A 
ENDBRANCH   3  30
TORSDOF 5
ENDMDL
MODEL 4
REMARK VINA RESULT:      -8.0      3.012      8.642
REMARK  Name = 
REMARK  5 active torsions:
REMARK  status: ('A' for Active; 'I' for Inactive)
REMARK    1  A    between atoms: N_1  and  C_2
REMARK    2  A    between atoms: C_5  and  C_6
REMARK    3  A    between atoms: C_8  and  C_9
REMARK    4  A    between atoms: N_11  and  C_12
REMARK    5  A    between atoms: C_19  and  C_20
REMARK                            x       y       z     vdW  Elec       q    Type
REMARK                         _______ _______ _______ _____ _____    ______ ____
ROOT
ATOM      1  C   UNL     1       3.411   7.512  17.684  0.00  0.00    +0.000 A 
ATOM      2  C   UNL     1       3.049   8.833  17.627  0.00  0.00    +0.000 A 
ATOM      3  N   UNL     1       1.793   8.924  18.175  0.00  0.00    +0.000 N 
ATOM      4  N   UNL     1       1.349   7.711  18.599  0.00  0.00    +0.000 NA
ATOM      5  C   UNL     1       2.335   6.837  18.322  0.00  0.00    +0.000 A 
ENDROOT
BRANCH   1   8
ATOM      6  C   UNL     1       6.108   5.823  15.753  0.00  0.00    +0.000 A 
ATOM      7  C   UNL     1       4.735   6.182  16.165  0.00  0.00    +0.000 A 
ATOM      8  C   UNL     1       4.650   7.021  17.200  0.00  0.00    +0.000 A 
ATOM      9  N   UNL     1       5.784   7.412  17.850  0.00  0.00    +0.000 N 
ATOM     10  C   UNL     1       7.041   6.988  17.500  0.00  0.00    +0.000 A 
ATOM     11  S   UNL     1       8.327   7.499  18.445  0.00  0.00    +0.000 S 
ATOM     12  N   UNL     1       7.175   6.182  16.395  0.00  0.00    +0.000 NA
ATOM     13  H   UNL     1       5.718   8.018  18.660  0.00  0.00    +0.000 HD
BRANCH   6  17
ATOM     14  C   UNL     1       6.513   3.335  12.270  0.00  0.00    +0.000 A 
ATOM     15  C   UNL     1       5.361   3.261  13.053  0.00  0.00    +0.000 A 
ATOM     16  C   UNL     1       5.195   4.096  14.160  0.00  0.00    +0.000 A 
ATOM     17  C   UNL     1       6.216   4.979  14.534  0.00  0.00    +0.000 A 
ATOM     18  C   UNL     1       7.381   5.047  13.766  0.00  0.00    +0.000 A 
ATOM     19  C   UNL     1       7.535   4.208  12.657  0.00  0.00    +0.000 A 
BRANCH  14  20
ATOM     20  N   UNL     1       6.735   2.389  11.264  0.00  0.00    +0.000 N 
ATOM     21  H   UNL     1       5.958   2.276  10.623  0.00  0.00    +0.000 HD
ATOM     22  H   UNL     1       7.620   2.506  10.778  0.00  0.00    +0.000 HD
ENDBRANCH  14  20
ENDBRANCH   6  17
ENDBRANCH   1   8
BRANCH   5  23
ATOM     23  C   UNL     1       2.212   5.415  18.680  0.00  0.00    +0.000 A 
ATOM     24  C   UNL     1       2.416   5.000  20.007  0.00  0.00    +0.000 A 
ATOM     25  C   UNL     1       2.316   3.648  20.355  0.00  0.00    +0.000 A 
ATOM     26  C   UNL     1       2.009   2.706  19.383  0.00  0.00    +0.000 A 
ATOM     27  F   UNL     1       1.928   1.411  19.714  0.00  0.00    +0.000 F 
ATOM     28  C   UNL     1       1.797   3.088  18.066  0.00  0.00    +0.000 A 
ATOM     29  C   UNL     1       1.905   4.438  17.719  0.00  0.00    +0.000 A 
ENDBRANCH   5  23
BRANCH   3  30
ATOM     30  C   UNL     1       1.013  10.106  18.322  0.00  0.00    +0.000 A 
ATOM     31  C   UNL     1       1.627  11.340  18.592  0.00  0.00    +0.000 A 
ATOM     32  C   UNL     1       0.854  12.491  18.762  0.00  0.00    +0.000 A 
ATOM     33  C   UNL     1      -0.534  12.420  18.662  0.00  0.00    +0.000 A 
ATOM     34  C   UNL     1      -1.149  11.202  18.381  0.00  0.00    +0.000 A 
ATOM     35  C   UNL     1      -0.382  10.045  18.207  0.00  0.00    +0.000 A 
ENDBRANCH   3  30
TORSDOF 5
ENDMDL
MODEL 5
REMARK VINA RESULT:      -7.9      3.008      8.595
REMARK  Name = 
REMARK  5 active torsions:
REMARK  status: ('A' for Active; 'I' for Inactive)
REMARK    1  A    between atoms: N_1  and  C_2
REMARK    2  A    between atoms: C_5  and  C_6
REMARK    3  A    between atoms: C_8  and  C_9
REMARK    4  A    between atoms: N_11  and  C_12
REMARK    5  A    between atoms: C_19  and  C_20
REMARK                            x       y       z     vdW  Elec       q    Type
REMARK                         _______ _______ _______ _____ _____    ______ ____
ROOT
ATOM      1  C   UNL     1       3.557   7.188  17.825  0.00  0.00    +0.000 A 
ATOM      2  C   UNL     1       3.363   8.542  17.737  0.00  0.00    +0.000 A 
ATOM      3  N   UNL     1       2.099   8.794  18.210  0.00  0.00    +0.000 N 
ATOM      4  N   UNL     1       1.486   7.650  18.616  0.00  0.00    +0.000 NA
ATOM      5  C   UNL     1       2.372   6.659  18.403  0.00  0.00    +0.000 A 
ENDROOT
BRANCH   1   8
ATOM      6  C   UNL     1       6.215   5.386  15.943  0.00  0.00    +0.000 A 
ATOM      7  C   UNL     1       4.880   5.953  16.228  0.00  0.00    +0.000 A 
ATOM      8  C   UNL     1       4.752   6.544  17.418  0.00  0.00    +0.000 A 
ATOM      9  N   UNL     1       5.789   6.512  18.305  0.00  0.00    +0.000 N 
ATOM     10  C   UNL     1       6.987   5.896  18.046  0.00  0.00    +0.000 A 
ATOM     11  S   UNL     1       8.134   5.879  19.268  0.00  0.00    +0.000 S 
ATOM     12  N   UNL     1       7.183   5.342  16.804  0.00  0.00    +0.000 NA
ATOM     13  H   UNL     1       5.679   6.925  19.224  0.00  0.00    +0.000 HD
BRANCH   6  17
ATOM     14  C   UNL     1       6.851   3.726  12.029  0.00  0.00    +0.000 A 
ATOM     15  C   UNL     1       5.747   3.332  12.784  0.00  0.00    +0.000 A 
ATOM     16  C   UNL     1       5.502   3.897  14.037  0.00  0.00    +0.000 A 
ATOM     17  C   UNL     1       6.401   4.826  14.578  0.00  0.00    +0.000 A 
ATOM     18  C   UNL     1       7.518   5.213  13.835  0.00  0.00    +0.000 A 
ATOM     19  C   UNL     1       7.752   4.642  12.579  0.00  0.00    +0.000 A 
BRANCH  14  20
ATOM     20  N   UNL     1       7.172   3.041  10.851  0.00  0.00    +0.000 N 
ATOM     21  H   UNL     1       7.578   3.626  10.129  0.00  0.00    +0.000 HD
ATOM     22  H   UNL     1       7.706   2.190  11.003  0.00  0.00    +0.000 HD
ENDBRANCH  14  20
ENDBRANCH   6  17
ENDBRANCH   1   8
BRANCH   5  23
ATOM     23  C   UNL     1       2.055   5.268  18.764  0.00  0.00    +0.000 A 
ATOM     24  C   UNL     1       1.966   4.282  17.767  0.00  0.00    +0.000 A 
ATOM     25  C   UNL     1       1.650   2.959  18.097  0.00  0.00    +0.000 A 
ATOM     26  C   UNL     1       1.426   2.613  19.423  0.00  0.00    +0.000 A 
ATOM     27  F   UNL     1       1.110   1.350  19.737  0.00  0.00    +0.000 F 
ATOM     28  C   UNL     1       1.514   3.565  20.429  0.00  0.00    +0.000 A 
ATOM     29  C   UNL     1       1.822   4.887  20.095  0.00  0.00    +0.000 A 
ENDBRANCH   5  23
BRANCH   3  30
ATOM     30  C   UNL     1       1.462  10.064  18.302  0.00  0.00    +0.000 A 
ATOM     31  C   UNL     1       2.215  11.248  18.242  0.00  0.00    +0.000 A 
ATOM     32  C   UNL     1       1.587  12.491  18.361  0.00  0.00    +0.000 A 
ATOM     33  C   UNL     1       0.207  12.561  18.536  0.00  0.00    +0.000 A 
ATOM     34  C   UNL     1      -0.548  11.391  18.583  0.00  0.00    +0.000 A 
ATOM     35  C   UNL     1       0.072  10.143  18.463  0.00  0.00    +0.000 A 
ENDBRANCH   3  30
TORSDOF 5
ENDMDL
MODEL 6
REMARK VINA RESULT:      -7.9      8.375     12.768
REMARK  Name = 
REMARK  5 active torsions:
REMARK  status: ('A' for Active; 'I' for Inactive)
REMARK    1  A    between atoms: N_1  and  C_2
REMARK    2  A    between atoms: C_5  and  C_6
REMARK    3  A    between atoms: C_8  and  C_9
REMARK    4  A    between atoms: N_11  and  C_12
REMARK    5  A    between atoms: C_19  and  C_20
REMARK                            x       y       z     vdW  Elec       q    Type
REMARK                         _______ _______ _______ _____ _____    ______ ____
ROOT
ATOM      1  C   UNL     1      -2.534  13.395  22.243  0.00  0.00    +0.000 A 
ATOM      2  C   UNL     1      -2.635  14.610  22.869  0.00  0.00    +0.000 A 
ATOM      3  N   UNL     1      -1.543  14.722  23.695  0.00  0.00    +0.000 N 
ATOM      4  N   UNL     1      -0.738  13.630  23.602  0.00  0.00    +0.000 NA
ATOM      5  C   UNL     1      -1.322  12.814  22.704  0.00  0.00    +0.000 A 
ENDROOT
BRANCH   1   8
ATOM      6  C   UNL     1      -4.269  11.934  19.291  0.00  0.00    +0.000 A 
ATOM      7  C   UNL     1      -3.152  12.455  20.106  0.00  0.00    +0.000 A 
ATOM      8  C   UNL     1      -3.491  12.915  21.313  0.00  0.00    +0.000 A 
ATOM      9  N   UNL     1      -4.805  12.962  21.675  0.00  0.00    +0.000 N 
ATOM     10  C   UNL     1      -5.830  12.555  20.858  0.00  0.00    +0.000 A 
ATOM     11  S   UNL     1      -7.397  12.746  21.421  0.00  0.00    +0.000 S 
ATOM     12  N   UNL     1      -5.515  12.007  19.638  0.00  0.00    +0.000 NA
ATOM     13  H   UNL     1      -5.067  13.347  22.575  0.00  0.00    +0.000 HD
BRANCH   6  17
ATOM     14  C   UNL     1      -3.154  10.255  15.494  0.00  0.00    +0.000 A 
ATOM     15  C   UNL     1      -2.410   9.957  16.636  0.00  0.00    +0.000 A 
ATOM     16  C   UNL     1      -2.787  10.458  17.883  0.00  0.00    +0.000 A 
ATOM     17  C   UNL     1      -3.888  11.318  17.992  0.00  0.00    +0.000 A 
ATOM     18  C   UNL     1      -4.628  11.635  16.851  0.00  0.00    +0.000 A 
ATOM     19  C   UNL     1      -4.242  11.125  15.607  0.00  0.00    +0.000 A 
BRANCH  14  20
ATOM     20  N   UNL     1      -2.677   9.879  14.233  0.00  0.00    +0.000 N 
ATOM     21  H   UNL     1      -2.620   8.876  14.094  0.00  0.00    +0.000 HD
ATOM     22  H   UNL     1      -3.142  10.349  13.462  0.00  0.00    +0.000 HD
ENDBRANCH  14  20
ENDBRANCH   6  17
ENDBRANCH   1   8
BRANCH   5  23
ATOM     23  C   UNL     1      -0.701  11.536  22.325  0.00  0.00    +0.000 A 
ATOM     24  C   UNL     1      -0.895  10.392  23.118  0.00  0.00    +0.000 A 
ATOM     25  C   UNL     1      -0.297   9.175  22.775  0.00  0.00    +0.000 A 
ATOM     26  C   UNL     1       0.495   9.091  21.637  0.00  0.00    +0.000 A 
ATOM     27  F   UNL     1       1.079   7.929  21.317  0.00  0.00    +0.000 F 
ATOM     28  C   UNL     1       0.699  10.202  20.832  0.00  0.00    +0.000 A 
ATOM     29  C   UNL     1       0.106  11.420  21.181  0.00  0.00    +0.000 A 
ENDBRANCH   5  23
BRANCH   3  30
ATOM     30  C   UNL     1      -1.231  15.819  24.548  0.00  0.00    +0.000 A 
ATOM     31  C   UNL     1      -0.906  17.075  24.010  0.00  0.00    +0.000 A 
ATOM     32  C   UNL     1      -0.575  18.139  24.852  0.00  0.00    +0.000 A 
ATOM     33  C   UNL     1      -0.568  17.959  26.233  0.00  0.00    +0.000 A 
ATOM     34  C   UNL     1      -0.902  16.720  26.775  0.00  0.00    +0.000 A 
ATOM     35  C   UNL     1      -1.237  15.649  25.939  0.00  0.00    +0.000 A 
ENDBRANCH   3  30
TORSDOF 5
ENDMDL
MODEL 7
REMARK VINA RESULT:      -7.9      3.007      8.567
REMARK  Name = 
REMARK  5 active torsions:
REMARK  status: ('A' for Active; 'I' for Inactive)
REMARK    1  A    between atoms: N_1  and  C_2
REMARK    2  A    between atoms: C_5  and  C_6
REMARK    3  A    between atoms: C_8  and  C_9
REMARK    4  A    between atoms: N_11  and  C_12
REMARK    5  A    between atoms: C_19  and  C_20
REMARK                            x       y       z     vdW  Elec       q    Type
REMARK                         _______ _______ _______ _____ _____    ______ ____
ROOT
ATOM      1  C   UNL     1       3.553   7.187  17.821  0.00  0.00    +0.000 A 
ATOM      2  C   UNL     1       3.363   8.542  17.751  0.00  0.00    +0.000 A 
ATOM      3  N   UNL     1       2.096   8.790  18.218  0.00  0.00    +0.000 N 
ATOM      4  N   UNL     1       1.477   7.642  18.603  0.00  0.00    +0.000 NA
ATOM      5  C   UNL     1       2.362   6.652  18.382  0.00  0.00    +0.000 A 
ENDROOT
BRANCH   1   8
ATOM      6  C   UNL     1       6.216   5.390  15.939  0.00  0.00    +0.000 A 
ATOM      7  C   UNL     1       4.879   5.953  16.225  0.00  0.00    +0.000 A 
ATOM      8  C   UNL     1       4.750   6.545  17.415  0.00  0.00    +0.000 A 
ATOM      9  N   UNL     1       5.787   6.517  18.301  0.00  0.00    +0.000 N 
ATOM     10  C   UNL     1       6.987   5.904  18.042  0.00  0.00    +0.000 A 
ATOM     11  S   UNL     1       8.134   5.892  19.263  0.00  0.00    +0.000 S 
ATOM     12  N   UNL     1       7.184   5.350  16.800  0.00  0.00    +0.000 NA
ATOM     13  H   UNL     1       5.676   6.931  19.219  0.00  0.00    +0.000 HD
BRANCH   6  17
ATOM     14  C   UNL     1       6.855   3.729  12.027  0.00  0.00    +0.000 A 
ATOM     15  C   UNL     1       5.756   3.328  12.785  0.00  0.00    +0.000 A 
ATOM     16  C   UNL     1       5.509   3.893  14.038  0.00  0.00    +0.000 A 
ATOM     17  C   UNL     1       6.403   4.830  14.575  0.00  0.00    +0.000 A 
ATOM     18  C   UNL     1       7.515   5.224  13.829  0.00  0.00    +0.000 A 
ATOM     19  C   UNL     1       7.750   4.653  12.573  0.00  0.00    +0.000 A 
BRANCH  14  20
ATOM     20  N   UNL     1       7.178   3.045  10.849  0.00  0.00    +0.000 N 
ATOM     21  H   UNL     1       6.956   3.554  10.000  0.00  0.00    +0.000 HD
ATOM     22  H   UNL     1       8.122   2.671  10.837  0.00  0.00    +0.000 HD
ENDBRANCH  14  20
ENDBRANCH   6  17
ENDBRANCH   1   8
BRANCH   5  23
ATOM     23  C   UNL     1       2.039   5.256  18.720  0.00  0.00    +0.000 A 
ATOM     24  C   UNL     1       1.801   4.889  20.055  0.00  0.00    +0.000 A 
ATOM     25  C   UNL     1       1.508   3.562  20.389  0.00  0.00    +0.000 A 
ATOM     26  C   UNL     1       1.448   2.596  19.393  0.00  0.00    +0.000 A 
ATOM     27  F   UNL     1       1.181   1.324  19.715  0.00  0.00    +0.000 F 
ATOM     28  C   UNL     1       1.672   2.932  18.065  0.00  0.00    +0.000 A 
ATOM     29  C   UNL     1       1.972   4.257  17.735  0.00  0.00    +0.000 A 
ENDBRANCH   5  23
BRANCH   3  30
ATOM     30  C   UNL     1       1.461  10.060  18.324  0.00  0.00    +0.000 A 
ATOM     31  C   UNL     1       0.071  10.154  18.496  0.00  0.00    +0.000 A 
ATOM     32  C   UNL     1      -0.549  11.404  18.572  0.00  0.00    +0.000 A 
ATOM     33  C   UNL     1       0.213  12.566  18.480  0.00  0.00    +0.000 A 
ATOM     34  C   UNL     1       1.595  12.481  18.322  0.00  0.00    +0.000 A 
ATOM     35  C   UNL     1       2.223  11.234  18.247  0.00  0.00    +0.000 A 
ENDBRANCH   3  30
TORSDOF 5
ENDMDL
MODEL 8
REMARK VINA RESULT:      -7.5      5.124      8.709
REMARK  Name = 
REMARK  5 active torsions:
REMARK  status: ('A' for Active; 'I' for Inactive)
REMARK    1  A    between atoms: N_1  and  C_2
REMARK    2  A    between atoms: C_5  and  C_6
REMARK    3  A    between atoms: C_8  and  C_9
REMARK    4  A    between atoms: N_11  and  C_12
REMARK    5  A    between atoms: C_19  and  C_20
REMARK                            x       y       z     vdW  Elec       q    Type
REMARK                         _______ _______ _______ _____ _____    ______ ____
ROOT
ATOM      1  C   UNL     1      -0.443   9.852  18.492  0.00  0.00    +0.000 A 
ATOM      2  C   UNL     1       0.332   8.891  17.896  0.00  0.00    +0.000 A 
ATOM      3  N   UNL     1       1.410   8.684  18.721  0.00  0.00    +0.000 N 
ATOM      4  N   UNL     1       1.341   9.464  19.833  0.00  0.00    +0.000 NA
ATOM      5  C   UNL     1       0.202  10.174  19.716  0.00  0.00    +0.000 A 
ENDROOT
BRANCH   1   8
ATOM      6  C   UNL     1      -3.751  11.453  17.898  0.00  0.00    +0.000 A 
ATOM      7  C   UNL     1      -2.588  10.948  18.657  0.00  0.00    +0.000 A 
ATOM      8  C   UNL     1      -1.648  10.341  17.928  0.00  0.00    +0.000 A 
ATOM      9  N   UNL     1      -1.848  10.147  16.593  0.00  0.00    +0.000 N 
ATOM     10  C   UNL     1      -2.982  10.547  15.931  0.00  0.00    +0.000 A 
ATOM     11  S   UNL     1      -3.109  10.167  14.304  0.00  0.00    +0.000 S 
ATOM     12  N   UNL     1      -3.938  11.240  16.634  0.00  0.00    +0.000 NA
ATOM     13  H   UNL     1      -1.154   9.651  16.046  0.00  0.00    +0.000 HD
BRANCH   6  17
ATOM     14  C   UNL     1      -6.705  13.609  20.157  0.00  0.00    +0.000 A 
ATOM     15  C   UNL     1      -5.470  13.305  20.731  0.00  0.00    +0.000 A 
ATOM     16  C   UNL     1      -4.484  12.647  19.994  0.00  0.00    +0.000 A 
ATOM     17  C   UNL     1      -4.748  12.228  18.683  0.00  0.00    +0.000 A 
ATOM     18  C   UNL     1      -5.987  12.513  18.107  0.00  0.00    +0.000 A 
ATOM     19  C   UNL     1      -6.967  13.175  18.854  0.00  0.00    +0.000 A 
BRANCH  14  20
ATOM     20  N   UNL     1      -7.736  14.124  20.951  0.00  0.00    +0.000 N 
ATOM     21  H   UNL     1      -7.446  14.873  21.571  0.00  0.00    +0.000 HD
ATOM     22  H   UNL     1      -8.576  14.359  20.431  0.00  0.00    +0.000 HD
ENDBRANCH  14  20
ENDBRANCH   6  17
ENDBRANCH   1   8
BRANCH   5  23
ATOM     23  C   UNL     1      -0.218  11.111  20.769  0.00  0.00    +0.000 A 
ATOM     24  C   UNL     1      -0.064  12.496  20.587  0.00  0.00    +0.000 A 
ATOM     25  C   UNL     1      -0.446  13.395  21.588  0.00  0.00    +0.000 A 
ATOM     26  C   UNL     1      -0.988  12.918  22.775  0.00  0.00    +0.000 A 
ATOM     27  F   UNL     1      -1.340  13.778  23.738  0.00  0.00    +0.000 F 
ATOM     28  C   UNL     1      -1.158  11.556  22.980  0.00  0.00    +0.000 A 
ATOM     29  C   UNL     1      -0.768  10.659  21.980  0.00  0.00    +0.000 A 
ENDBRANCH   5  23
BRANCH   3  30
ATOM     30  C   UNL     1       2.485   7.775  18.504  0.00  0.00    +0.000 A 
ATOM     31  C   UNL     1       3.376   7.961  17.435  0.00  0.00    +0.000 A 
ATOM     32  C   UNL     1       4.412   7.051  17.211  0.00  0.00    +0.000 A 
ATOM     33  C   UNL     1       4.567   5.952  18.053  0.00  0.00    +0.000 A 
ATOM     34  C   UNL     1       3.696   5.767  19.124  0.00  0.00    +0.000 A 
ATOM     35  C   UNL     1       2.657   6.675  19.356  0.00  0.00    +0.000 A 
ENDBRANCH   3  30
TORSDOF 5
ENDMDL
MODEL 9
REMARK VINA RESULT:      -7.5      3.024      8.588
REMARK  Name = 
REMARK  5 active torsions:
REMARK  status: ('A' for Active; 'I' for Inactive)
REMARK    1  A    between atoms: N_1  and  C_2
REMARK    2  A    between atoms: C_5  and  C_6
REMARK    3  A    between atoms: C_8  and  C_9
REMARK    4  A    between atoms: N_11  and  C_12
REMARK    5  A    between atoms: C_19  and  C_20
REMARK                            x       y       z     vdW  Elec       q    Type
REMARK                         _______ _______ _______ _____ _____    ______ ____
ROOT
ATOM      1  C   UNL     1       3.594   7.134  17.845  0.00  0.00    +0.000 A 
ATOM      2  C   UNL     1       3.404   8.489  17.768  0.00  0.00    +0.000 A 
ATOM      3  N   UNL     1       2.123   8.735  18.195  0.00  0.00    +0.000 N 
ATOM      4  N   UNL     1       1.494   7.587  18.561  0.00  0.00    +0.000 NA
ATOM      5  C   UNL     1       2.387   6.598  18.369  0.00  0.00    +0.000 A 
ENDROOT
BRANCH   1   8
ATOM      6  C   UNL     1       6.326   5.366  16.038  0.00  0.00    +0.000 A 
ATOM      7  C   UNL     1       4.983   5.932  16.277  0.00  0.00    +0.000 A 
ATOM      8  C   UNL     1       4.803   6.493  17.475  0.00  0.00    +0.000 A 
ATOM      9  N   UNL     1       5.799   6.433  18.407  0.00  0.00    +0.000 N 
ATOM     10  C   UNL     1       7.005   5.818  18.186  0.00  0.00    +0.000 A 
ATOM     11  S   UNL     1       8.095   5.764  19.457  0.00  0.00    +0.000 S 
ATOM     12  N   UNL     1       7.254   5.295  16.940  0.00  0.00    +0.000 NA
ATOM     13  H   UNL     1       5.649   6.823  19.330  0.00  0.00    +0.000 HD
BRANCH   6  17
ATOM     14  C   UNL     1       6.932   3.879  12.050  0.00  0.00    +0.000 A 
ATOM     15  C   UNL     1       7.777   4.862  12.566  0.00  0.00    +0.000 A 
ATOM     16  C   UNL     1       7.621   5.321  13.875  0.00  0.00    +0.000 A 
ATOM     17  C   UNL     1       6.571   4.840  14.669  0.00  0.00    +0.000 A 
ATOM     18  C   UNL     1       5.711   3.868  14.154  0.00  0.00    +0.000 A 
ATOM     19  C   UNL     1       5.878   3.414  12.842  0.00  0.00    +0.000 A 
BRANCH  14  20
ATOM     20  N   UNL     1       6.998   3.543  10.693  0.00  0.00    +0.000 N 
ATOM     21  H   UNL     1       6.101   3.315  10.279  0.00  0.00    +0.000 HD
ATOM     22  H   UNL     1       7.523   4.207  10.131  0.00  0.00    +0.000 HD
ENDBRANCH  14  20
ENDBRANCH   6  17
ENDBRANCH   1   8
BRANCH   5  23
ATOM     23  C   UNL     1       2.055   5.202  18.697  0.00  0.00    +0.000 A 
ATOM     24  C   UNL     1       1.730   4.844  20.017  0.00  0.00    +0.000 A 
ATOM     25  C   UNL     1       1.428   3.517  20.342  0.00  0.00    +0.000 A 
ATOM     26  C   UNL     1       1.445   2.542  19.354  0.00  0.00    +0.000 A 
ATOM     27  F   UNL     1       1.169   1.270  19.669  0.00  0.00    +0.000 F 
ATOM     28  C   UNL     1       1.756   2.868  18.042  0.00  0.00    +0.000 A 
ATOM     29  C   UNL     1       2.065   4.194  17.720  0.00  0.00    +0.000 A 
ENDBRANCH   5  23
BRANCH   3  30
ATOM     30  C   UNL     1       1.484  10.005  18.281  0.00  0.00    +0.000 A 
ATOM     31  C   UNL     1       2.233  11.191  18.200  0.00  0.00    +0.000 A 
ATOM     32  C   UNL     1       1.604  12.433  18.312  0.00  0.00    +0.000 A 
ATOM     33  C   UNL     1       0.226  12.501  18.502  0.00  0.00    +0.000 A 
ATOM     34  C   UNL     1      -0.526  11.330  18.570  0.00  0.00    +0.000 A 
ATOM     35  C   UNL     1       0.096  10.082  18.456  0.00  0.00    +0.000 A 
ENDBRANCH   3  30
TORSDOF 5
ENDMDL
