MODEL 1
REMARK VINA RESULT:      -7.4      0.000      0.000
REMARK  Name = 
REMARK  4 active torsions:
REMARK  status: ('A' for Active; 'I' for Inactive)
REMARK    1  A    between atoms: C_1  and  O_2
REMARK    2  A    between atoms: O_2  and  C_3
REMARK    3  A    between atoms: C_8  and  S_9
REMARK    4  A    between atoms: S_9  and  C_10
REMARK                            x       y       z     vdW  Elec       q    Type
REMARK                         _______ _______ _______ _____ _____    ______ ____
ROOT
ATOM      1  C   UNL     1       3.443   3.156  17.534  0.00  0.00    +0.000 A 
ATOM      2  C   UNL     1       3.412   1.863  18.025  0.00  0.00    +0.000 A 
ATOM      3  N   UNL     1       2.389   1.792  18.931  0.00  0.00    +0.000 N 
ATOM      4  C   UNL     1       2.095   3.063  19.366  0.00  0.00    +0.000 A 
ATOM      5  C   UNL     1       1.348   3.480  20.480  0.00  0.00    +0.000 A 
ATOM      6  C   UNL     1       1.312   4.851  20.740  0.00  0.00    +0.000 A 
ATOM      7  C   UNL     1       1.952   5.755  19.896  0.00  0.00    +0.000 A 
ATOM      8 CL   UNL     1       1.925   7.435  20.277  0.00  0.00    +0.000 Cl
ATOM      9  C   UNL     1       2.659   5.326  18.768  0.00  0.00    +0.000 A 
ATOM     10  C   UNL     1       2.742   3.948  18.494  0.00  0.00    +0.000 A 
ATOM     11  H   UNL     1       2.026   0.945  19.349  0.00  0.00    +0.000 HD
ENDROOT
BRANCH   1  12
ATOM     12  S   UNL     1       4.564   3.718  16.306  0.00  0.00    +0.000 S 
BRANCH  12  18
ATOM     13  C   UNL     1       6.609   5.733  16.402  0.00  0.00    +0.000 A 
ATOM     14  C   UNL     1       7.448   6.573  17.165  0.00  0.00    +0.000 A 
ATOM     15  C   UNL     1       7.549   6.430  18.548  0.00  0.00    +0.000 A 
ATOM     16  C   UNL     1       6.887   5.383  19.170  0.00  0.00    +0.000 A 
ATOM     17  C   UNL     1       6.100   4.505  18.411  0.00  0.00    +0.000 A 
ATOM     18  C   UNL     1       5.924   4.673  17.019  0.00  0.00    +0.000 A 
BRANCH  13  20
ATOM     19  C   UNL     1       7.187   4.983  14.248  0.00  0.00    +0.000 C 
ATOM     20  O   UNL     1       6.461   5.920  15.055  0.00  0.00    +0.000 OA
ENDBRANCH  13  20
ENDBRANCH  12  18
ENDBRANCH   1  12
TORSDOF 3
ENDMDL
MODEL 2
REMARK VINA RESULT:      -7.4      3.620      6.584
REMARK  Name = 
REMARK  4 active torsions:
REMARK  status: ('A' for Active; 'I' for Inactive)
REMARK    1  A    between atoms: C_1  and  O_2
REMARK    2  A    between atoms: O_2  and  C_3
REMARK    3  A    between atoms: C_8  and  S_9
REMARK    4  A    between atoms: S_9  and  C_10
REMARK                            x       y       z     vdW  Elec       q    Type
REMARK                         _______ _______ _______ _____ _____    ______ ____
ROOT
ATOM      1  C   UNL     1       5.682   4.510  16.340  0.00  0.00    +0.000 A 
ATOM      2  C   UNL     1       6.836   5.093  16.833  0.00  0.00    +0.000 A 
ATOM      3  N   UNL     1       7.502   5.646  15.774  0.00  0.00    +0.000 N 
ATOM      4  C   UNL     1       7.070   5.041  14.617  0.00  0.00    +0.000 A 
ATOM      5  C   UNL     1       7.642   5.046  13.333  0.00  0.00    +0.000 A 
ATOM      6  C   UNL     1       7.036   4.241  12.367  0.00  0.00    +0.000 A 
ATOM      7  C   UNL     1       5.890   3.508  12.665  0.00  0.00    +0.000 A 
ATOM      8 CL   UNL     1       5.201   2.487  11.461  0.00  0.00    +0.000 Cl
ATOM      9  C   UNL     1       5.311   3.544  13.937  0.00  0.00    +0.000 A 
ATOM     10  C   UNL     1       5.914   4.321  14.943  0.00  0.00    +0.000 A 
ATOM     11  H   UNL     1       8.300   6.264  15.833  0.00  0.00    +0.000 HD
ENDROOT
BRANCH   1  12
ATOM     12  S   UNL     1       4.478   3.711  17.336  0.00  0.00    +0.000 S 
BRANCH  12  18
ATOM     13  C   UNL     1       2.833   4.744  19.451  0.00  0.00    +0.000 A 
ATOM     14  C   UNL     1       2.251   5.853  20.103  0.00  0.00    +0.000 A 
ATOM     15  C   UNL     1       2.303   7.128  19.545  0.00  0.00    +0.000 A 
ATOM     16  C   UNL     1       2.850   7.292  18.282  0.00  0.00    +0.000 A 
ATOM     17  C   UNL     1       3.375   6.185  17.599  0.00  0.00    +0.000 A 
ATOM     18  C   UNL     1       3.401   4.895  18.175  0.00  0.00    +0.000 A 
BRANCH  13  20
ATOM     19  C   UNL     1       2.192   3.456  21.313  0.00  0.00    +0.000 C 
ATOM     20  O   UNL     1       2.839   3.507  20.035  0.00  0.00    +0.000 OA
ENDBRANCH  13  20
ENDBRANCH  12  18
ENDBRANCH   1  12
TORSDOF 3
ENDMDL
MODEL 3
REMARK VINA RESULT:      -7.3      2.512      3.621
REMARK  Name = 
REMARK  4 active torsions:
REMARK  status: ('A' for Active; 'I' for Inactive)
REMARK    1  A    between atoms: C_1  and  O_2
REMARK    2  A    between atoms: O_2  and  C_3
REMARK    3  A    between atoms: C_8  and  S_9
REMARK    4  A    between atoms: S_9  and  C_10
REMARK                            x       y       z     vdW  Elec       q    Type
REMARK                         _______ _______ _______ _____ _____    ______ ____
ROOT
ATOM      1  C   UNL     1       3.233   6.454  18.911  0.00  0.00    +0.000 A 
ATOM      2  C   UNL     1       2.308   7.090  19.720  0.00  0.00    +0.000 A 
ATOM      3  N   UNL     1       2.015   6.243  20.754  0.00  0.00    +0.000 N 
ATOM      4  C   UNL     1       2.344   4.961  20.381  0.00  0.00    +0.000 A 
ATOM      5  C   UNL     1       1.973   3.735  20.958  0.00  0.00    +0.000 A 
ATOM      6  C   UNL     1       2.368   2.575  20.289  0.00  0.00    +0.000 A 
ATOM      7  C   UNL     1       3.136   2.646  19.129  0.00  0.00    +0.000 A 
ATOM      8 CL   UNL     1       3.563   1.195  18.306  0.00  0.00    +0.000 Cl
ATOM      9  C   UNL     1       3.531   3.874  18.590  0.00  0.00    +0.000 A 
ATOM     10  C   UNL     1       3.122   5.064  19.221  0.00  0.00    +0.000 A 
ATOM     11  H   UNL     1       1.486   6.480  21.582  0.00  0.00    +0.000 HD
ENDROOT
BRANCH   1  12
ATOM     12  S   UNL     1       3.945   7.170  17.476  0.00  0.00    +0.000 S 
BRANCH  12  18
ATOM     13  C   UNL     1       6.331   5.574  17.587  0.00  0.00    +0.000 A 
ATOM     14  C   UNL     1       7.164   4.598  17.000  0.00  0.00    +0.000 A 
ATOM     15  C   UNL     1       6.944   4.146  15.700  0.00  0.00    +0.000 A 
ATOM     16  C   UNL     1       5.948   4.737  14.939  0.00  0.00    +0.000 A 
ATOM     17  C   UNL     1       5.155   5.753  15.492  0.00  0.00    +0.000 A 
ATOM     18  C   UNL     1       5.311   6.176  16.831  0.00  0.00    +0.000 A 
BRANCH  13  20
ATOM     19  C   UNL     1       7.851   5.814  19.366  0.00  0.00    +0.000 C 
ATOM     20  O   UNL     1       6.509   5.965  18.886  0.00  0.00    +0.000 OA
ENDBRANCH  13  20
ENDBRANCH  12  18
ENDBRANCH   1  12
TORSDOF 3
ENDMDL
MODEL 4
REMARK VINA RESULT:      -7.2      1.863      2.948
REMARK  Name = 
REMARK  4 active torsions:
REMARK  status: ('A' for Active; 'I' for Inactive)
REMARK    1  A    between atoms: C_1  and  O_2
REMARK    2  A    between atoms: O_2  and  C_3
REMARK    3  A    between atoms: C_8  and  S_9
REMARK    4  A    between atoms: S_9  and  C_10
REMARK                            x       y       z     vdW  Elec       q    Type
REMARK                         _______ _______ _______ _____ _____    ______ ____
ROOT
ATOM      1  C   UNL     1       2.907   3.791  19.113  0.00  0.00    +0.000 A 
ATOM      2  C   UNL     1       2.907   3.361  20.428  0.00  0.00    +0.000 A 
ATOM      3  N   UNL     1       2.150   4.244  21.149  0.00  0.00    +0.000 N 
ATOM      4  C   UNL     1       2.075   5.430  20.456  0.00  0.00    +0.000 A 
ATOM      5  C   UNL     1       1.675   6.703  20.895  0.00  0.00    +0.000 A 
ATOM      6  C   UNL     1       1.810   7.757  19.989  0.00  0.00    +0.000 A 
ATOM      7  C   UNL     1       2.278   7.531  18.697  0.00  0.00    +0.000 A 
ATOM      8 CL   UNL     1       2.478   8.864  17.624  0.00  0.00    +0.000 Cl
ATOM      9  C   UNL     1       2.635   6.251  18.262  0.00  0.00    +0.000 A 
ATOM     10  C   UNL     1       2.540   5.171  19.160  0.00  0.00    +0.000 A 
ATOM     11  H   UNL     1       1.843   4.119  22.105  0.00  0.00    +0.000 HD
ENDROOT
BRANCH   1  12
ATOM     12  S   UNL     1       3.712   2.949  17.801  0.00  0.00    +0.000 S 
BRANCH  12  18
ATOM     13  C   UNL     1       6.131   4.484  17.587  0.00  0.00    +0.000 A 
ATOM     14  C   UNL     1       7.150   5.034  16.780  0.00  0.00    +0.000 A 
ATOM     15  C   UNL     1       7.061   5.014  15.389  0.00  0.00    +0.000 A 
ATOM     16  C   UNL     1       5.906   4.534  14.793  0.00  0.00    +0.000 A 
ATOM     17  C   UNL     1       4.860   4.043  15.588  0.00  0.00    +0.000 A 
ATOM     18  C   UNL     1       4.958   3.985  16.997  0.00  0.00    +0.000 A 
BRANCH  13  20
ATOM     19  C   UNL     1       7.056   5.498  19.498  0.00  0.00    +0.000 C 
ATOM     20  O   UNL     1       6.254   4.445  18.949  0.00  0.00    +0.000 OA
ENDBRANCH  13  20
ENDBRANCH  12  18
ENDBRANCH   1  12
TORSDOF 3
ENDMDL
MODEL 5
REMARK VINA RESULT:      -7.2      3.084      5.918
REMARK  Name = 
REMARK  4 active torsions:
REMARK  status: ('A' for Active; 'I' for Inactive)
REMARK    1  A    between atoms: C_1  and  O_2
REMARK    2  A    between atoms: O_2  and  C_3
REMARK    3  A    between atoms: C_8  and  S_9
REMARK    4  A    between atoms: S_9  and  C_10
REMARK                            x       y       z     vdW  Elec       q    Type
REMARK                         _______ _______ _______ _____ _____    ______ ____
ROOT
ATOM      1  C   UNL     1       4.503   5.701  18.242  0.00  0.00    +0.000 A 
ATOM      2  C   UNL     1       5.381   5.498  19.292  0.00  0.00    +0.000 A 
ATOM      3  N   UNL     1       6.643   5.437  18.767  0.00  0.00    +0.000 N 
ATOM      4  C   UNL     1       6.551   5.125  17.430  0.00  0.00    +0.000 A 
ATOM      5  C   UNL     1       7.541   4.672  16.543  0.00  0.00    +0.000 A 
ATOM      6  C   UNL     1       7.128   4.325  15.256  0.00  0.00    +0.000 A 
ATOM      7  C   UNL     1       5.797   4.472  14.870  0.00  0.00    +0.000 A 
ATOM      8 CL   UNL     1       5.317   3.987  13.289  0.00  0.00    +0.000 Cl
ATOM      9  C   UNL     1       4.831   4.962  15.753  0.00  0.00    +0.000 A 
ATOM     10  C   UNL     1       5.208   5.292  17.068  0.00  0.00    +0.000 A 
ATOM     11  H   UNL     1       7.506   5.442  19.295  0.00  0.00    +0.000 HD
ENDROOT
BRANCH   1  12
ATOM     12  S   UNL     1       2.769   5.890  18.429  0.00  0.00    +0.000 S 
BRANCH  12  18
ATOM     13  C   UNL     1       1.697   3.297  19.042  0.00  0.00    +0.000 A 
ATOM     14  C   UNL     1       1.420   2.294  19.996  0.00  0.00    +0.000 A 
ATOM     15  C   UNL     1       1.580   2.531  21.360  0.00  0.00    +0.000 A 
ATOM     16  C   UNL     1       1.922   3.803  21.790  0.00  0.00    +0.000 A 
ATOM     17  C   UNL     1       2.138   4.823  20.852  0.00  0.00    +0.000 A 
ATOM     18  C   UNL     1       2.055   4.589  19.461  0.00  0.00    +0.000 A 
BRANCH  13  20
ATOM     19  C   UNL     1       2.718   2.317  17.163  0.00  0.00    +0.000 C 
ATOM     20  O   UNL     1       1.604   3.039  17.701  0.00  0.00    +0.000 OA
ENDBRANCH  13  20
ENDBRANCH  12  18
ENDBRANCH   1  12
TORSDOF 3
ENDMDL
MODEL 6
REMARK VINA RESULT:      -7.1      1.914      2.501
REMARK  Name = 
REMARK  4 active torsions:
REMARK  status: ('A' for Active; 'I' for Inactive)
REMARK    1  A    between atoms: C_1  and  O_2
REMARK    2  A    between atoms: O_2  and  C_3
REMARK    3  A    between atoms: C_8  and  S_9
REMARK    4  A    between atoms: S_9  and  C_10
REMARK                            x       y       z     vdW  Elec       q    Type
REMARK                         _______ _______ _______ _____ _____    ______ ____
ROOT
ATOM      1  C   UNL     1       3.119   4.952  19.106  0.00  0.00    +0.000 A 
ATOM      2  C   UNL     1       3.058   4.438  20.390  0.00  0.00    +0.000 A 
ATOM      3  N   UNL     1       2.105   5.146  21.071  0.00  0.00    +0.000 N 
ATOM      4  C   UNL     1       1.913   6.351  20.436  0.00  0.00    +0.000 A 
ATOM      5  C   UNL     1       1.278   7.517  20.896  0.00  0.00    +0.000 A 
ATOM      6  C   UNL     1       1.333   8.638  20.066  0.00  0.00    +0.000 A 
ATOM      7  C   UNL     1       1.954   8.573  18.820  0.00  0.00    +0.000 A 
ATOM      8 CL   UNL     1       2.045   9.991  17.846  0.00  0.00    +0.000 Cl
ATOM      9  C   UNL     1       2.547   7.394  18.360  0.00  0.00    +0.000 A 
ATOM     10  C   UNL     1       2.537   6.254  19.186  0.00  0.00    +0.000 A 
ATOM     11  H   UNL     1       1.731   4.913  21.981  0.00  0.00    +0.000 HD
ENDROOT
BRANCH   1  12
ATOM     12  S   UNL     1       4.169   4.332  17.846  0.00  0.00    +0.000 S 
BRANCH  12  18
ATOM     13  C   UNL     1       6.227   6.086  16.876  0.00  0.00    +0.000 A 
ATOM     14  C   UNL     1       7.371   6.870  17.133  0.00  0.00    +0.000 A 
ATOM     15  C   UNL     1       8.023   6.816  18.364  0.00  0.00    +0.000 A 
ATOM     16  C   UNL     1       7.595   5.903  19.316  0.00  0.00    +0.000 A 
ATOM     17  C   UNL     1       6.497   5.075  19.046  0.00  0.00    +0.000 A 
ATOM     18  C   UNL     1       5.775   5.163  17.834  0.00  0.00    +0.000 A 
BRANCH  13  20
ATOM     19  C   UNL     1       5.918   5.210  14.714  0.00  0.00    +0.000 C 
ATOM     20  O   UNL     1       5.551   6.192  15.691  0.00  0.00    +0.000 OA
ENDBRANCH  13  20
ENDBRANCH  12  18
ENDBRANCH   1  12
TORSDOF 3
ENDMDL
MODEL 7
REMARK VINA RESULT:      -7.0      1.650      2.196
REMARK  Name = 
REMARK  4 active torsions:
REMARK  status: ('A' for Active; 'I' for Inactive)
REMARK    1  A    between atoms: C_1  and  O_2
REMARK    2  A    between atoms: O_2  and  C_3
REMARK    3  A    between atoms: C_8  and  S_9
REMARK    4  A    between atoms: S_9  and  C_10
REMARK                            x       y       z     vdW  Elec       q    Type
REMARK                         _______ _______ _______ _____ _____    ______ ____
ROOT
ATOM      1  C   UNL     1       2.923   4.116  19.176  0.00  0.00    +0.000 A 
ATOM      2  C   UNL     1       2.809   3.638  20.470  0.00  0.00    +0.000 A 
ATOM      3  N   UNL     1       1.946   4.463  21.138  0.00  0.00    +0.000 N 
ATOM      4  C   UNL     1       1.890   5.669  20.481  0.00  0.00    +0.000 A 
ATOM      5  C   UNL     1       1.393   6.908  20.918  0.00  0.00    +0.000 A 
ATOM      6  C   UNL     1       1.573   8.000  20.067  0.00  0.00    +0.000 A 
ATOM      7  C   UNL     1       2.178   7.841  18.822  0.00  0.00    +0.000 A 
ATOM      8 CL   UNL     1       2.426   9.220  17.820  0.00  0.00    +0.000 Cl
ATOM      9  C   UNL     1       2.631   6.593  18.384  0.00  0.00    +0.000 A 
ATOM     10  C   UNL     1       2.494   5.478  19.232  0.00  0.00    +0.000 A 
ATOM     11  H   UNL     1       1.551   4.291  22.053  0.00  0.00    +0.000 HD
ENDROOT
BRANCH   1  12
ATOM     12  S   UNL     1       3.892   3.357  17.926  0.00  0.00    +0.000 S 
BRANCH  12  18
ATOM     13  C   UNL     1       5.891   4.682  16.346  0.00  0.00    +0.000 A 
ATOM     14  C   UNL     1       6.936   5.627  16.257  0.00  0.00    +0.000 A 
ATOM     15  C   UNL     1       7.457   6.237  17.396  0.00  0.00    +0.000 A 
ATOM     16  C   UNL     1       7.008   5.836  18.644  0.00  0.00    +0.000 A 
ATOM     17  C   UNL     1       6.014   4.852  18.746  0.00  0.00    +0.000 A 
ATOM     18  C   UNL     1       5.417   4.272  17.604  0.00  0.00    +0.000 A 
BRANCH  13  20
ATOM     19  C   UNL     1       6.190   4.168  14.070  0.00  0.00    +0.000 C 
ATOM     20  O   UNL     1       5.337   4.136  15.221  0.00  0.00    +0.000 OA
ENDBRANCH  13  20
ENDBRANCH  12  18
ENDBRANCH   1  12
TORSDOF 3
ENDMDL
MODEL 8
REMARK VINA RESULT:      -7.0      3.633      5.699
REMARK  Name = 
REMARK  4 active torsions:
REMARK  status: ('A' for Active; 'I' for Inactive)
REMARK    1  A    between atoms: C_1  and  O_2
REMARK    2  A    between atoms: O_2  and  C_3
REMARK    3  A    between atoms: C_8  and  S_9
REMARK    4  A    between atoms: S_9  and  C_10
REMARK                            x       y       z     vdW  Elec       q    Type
REMARK                         _______ _______ _______ _____ _____    ______ ____
ROOT
ATOM      1  C   UNL     1       2.330   7.892  18.980  0.00  0.00    +0.000 A 
ATOM      2  C   UNL     1       1.962   8.231  17.690  0.00  0.00    +0.000 A 
ATOM      3  N   UNL     1       1.341   9.449  17.747  0.00  0.00    +0.000 N 
ATOM      4  C   UNL     1       0.895   9.658  19.031  0.00  0.00    +0.000 A 
ATOM      5  C   UNL     1      -0.031  10.595  19.518  0.00  0.00    +0.000 A 
ATOM      6  C   UNL     1      -0.379  10.499  20.867  0.00  0.00    +0.000 A 
ATOM      7  C   UNL     1       0.212   9.543  21.690  0.00  0.00    +0.000 A 
ATOM      8 CL   UNL     1      -0.279   9.425  23.336  0.00  0.00    +0.000 Cl
ATOM      9  C   UNL     1       1.162   8.644  21.198  0.00  0.00    +0.000 A 
ATOM     10  C   UNL     1       1.512   8.692  19.835  0.00  0.00    +0.000 A 
ATOM     11  H   UNL     1       1.091  10.024  16.953  0.00  0.00    +0.000 HD
ENDROOT
BRANCH   1  12
ATOM     12  S   UNL     1       3.200   6.429  19.404  0.00  0.00    +0.000 S 
BRANCH  12  18
ATOM     13  C   UNL     1       2.416   4.004  18.079  0.00  0.00    +0.000 A 
ATOM     14  C   UNL     1       1.762   2.754  18.126  0.00  0.00    +0.000 A 
ATOM     15  C   UNL     1       0.977   2.389  19.218  0.00  0.00    +0.000 A 
ATOM     16  C   UNL     1       0.759   3.310  20.231  0.00  0.00    +0.000 A 
ATOM     17  C   UNL     1       1.354   4.578  20.164  0.00  0.00    +0.000 A 
ATOM     18  C   UNL     1       2.213   4.944  19.103  0.00  0.00    +0.000 A 
BRANCH  13  20
ATOM     19  C   UNL     1       4.513   3.673  17.064  0.00  0.00    +0.000 C 
ATOM     20  O   UNL     1       3.239   4.330  17.036  0.00  0.00    +0.000 OA
ENDBRANCH  13  20
ENDBRANCH  12  18
ENDBRANCH   1  12
TORSDOF 3
ENDMDL
MODEL 9
REMARK VINA RESULT:      -6.8      3.327      6.215
REMARK  Name = 
REMARK  4 active torsions:
REMARK  status: ('A' for Active; 'I' for Inactive)
REMARK    1  A    between atoms: C_1  and  O_2
REMARK    2  A    between atoms: O_2  and  C_3
REMARK    3  A    between atoms: C_8  and  S_9
REMARK    4  A    between atoms: S_9  and  C_10
REMARK                            x       y       z     vdW  Elec       q    Type
REMARK                         _______ _______ _______ _____ _____    ______ ____
ROOT
ATOM      1  C   UNL     1       5.541   4.331  16.479  0.00  0.00    +0.000 A 
ATOM      2  C   UNL     1       6.640   4.942  17.057  0.00  0.00    +0.000 A 
ATOM      3  N   UNL     1       7.323   5.587  16.062  0.00  0.00    +0.000 N 
ATOM      4  C   UNL     1       6.976   5.027  14.855  0.00  0.00    +0.000 A 
ATOM      5  C   UNL     1       7.603   5.133  13.602  0.00  0.00    +0.000 A 
ATOM      6  C   UNL     1       7.085   4.354  12.566  0.00  0.00    +0.000 A 
ATOM      7  C   UNL     1       5.967   3.549  12.770  0.00  0.00    +0.000 A 
ATOM      8 CL   UNL     1       5.386   2.565  11.481  0.00  0.00    +0.000 Cl
ATOM      9  C   UNL     1       5.329   3.485  14.012  0.00  0.00    +0.000 A 
ATOM     10  C   UNL     1       5.845   4.233  15.087  0.00  0.00    +0.000 A 
ATOM     11  H   UNL     1       8.085   6.240  16.192  0.00  0.00    +0.000 HD
ENDROOT
BRANCH   1  12
ATOM     12  S   UNL     1       4.338   3.419  17.372  0.00  0.00    +0.000 S 
BRANCH  12  18
ATOM     13  C   UNL     1       3.200   5.723  18.656  0.00  0.00    +0.000 A 
ATOM     14  C   UNL     1       2.404   6.266  19.687  0.00  0.00    +0.000 A 
ATOM     15  C   UNL     1       1.947   5.476  20.740  0.00  0.00    +0.000 A 
ATOM     16  C   UNL     1       2.364   4.157  20.825  0.00  0.00    +0.000 A 
ATOM     17  C   UNL     1       3.206   3.625  19.839  0.00  0.00    +0.000 A 
ATOM     18  C   UNL     1       3.623   4.384  18.723  0.00  0.00    +0.000 A 
BRANCH  13  20
ATOM     19  C   UNL     1       3.149   7.848  17.648  0.00  0.00    +0.000 C 
ATOM     20  O   UNL     1       3.589   6.486  17.589  0.00  0.00    +0.000 OA
ENDBRANCH  13  20
ENDBRANCH  12  18
ENDBRANCH   1  12
TORSDOF 3
ENDMDL
