MODEL 1
REMARK VINA RESULT:      -9.1      0.000      0.000
REMARK  Name = 
REMARK  7 active torsions:
REMARK  status: ('A' for Active; 'I' for Inactive)
REMARK    1  A    between atoms: O_1  and  C_2
REMARK    2  A    between atoms: C_7  and  C_8
REMARK    3  A    between atoms: C_8  and  N_9
REMARK    4  A    between atoms: C_11  and  O_12
REMARK    5  A    between atoms: C_14  and  C_15
REMARK    6  A    between atoms: C_17  and  C_18
REMARK    7  A    between atoms: C_18  and  C_19
REMARK                            x       y       z     vdW  Elec       q    Type
REMARK                         _______ _______ _______ _____ _____    ______ ____
ROOT
ATOM      1  N   UNL     1       5.456   5.445  17.921  0.00  0.00    +0.000 NA
ATOM      2  C   UNL     1       4.704   5.182  16.680  0.00  0.00    +0.000 C 
ATOM      3  C   UNL     1       5.701   4.601  15.683  0.00  0.00    +0.000 C 
ATOM      4  C   UNL     1       6.979   5.336  16.012  0.00  0.00    +0.000 C 
ATOM      5  C   UNL     1       6.890   5.574  17.527  0.00  0.00    +0.000 C 
ENDROOT
BRANCH   5   6
ATOM      6  C   UNL     1       7.448   6.922  17.859  0.00  0.00    +0.000 A 
ATOM      7  N   UNL     1       7.246   8.086  17.276  0.00  0.00    +0.000 NA
ATOM      8  C   UNL     1       8.117   8.903  17.956  0.00  0.00    +0.000 A 
ATOM      9  N   UNL     1       8.807   8.298  18.935  0.00  0.00    +0.000 NA
ATOM     10  O   UNL     1       8.373   6.973  18.862  0.00  0.00    +0.000 OA
BRANCH   8  11
ATOM     11  C   UNL     1       8.215  10.358  17.682  0.00  0.00    +0.000 C 
BRANCH  11  12
ATOM     12  C   UNL     1       9.404  10.876  18.458  0.00  0.00    +0.000 A 
ATOM     13  C   UNL     1      10.610  11.176  17.805  0.00  0.00    +0.000 A 
ATOM     14  C   UNL     1      11.696  11.691  18.518  0.00  0.00    +0.000 A 
ATOM     15  C   UNL     1      11.590  11.908  19.890  0.00  0.00    +0.000 A 
ATOM     16  C   UNL     1      10.404  11.601  20.553  0.00  0.00    +0.000 A 
ATOM     17  C   UNL     1       9.317  11.087  19.843  0.00  0.00    +0.000 A 
ENDBRANCH  11  12
ENDBRANCH   8  11
ENDBRANCH   5   6
BRANCH   3  18
ATOM     18  O   UNL     1       5.912   3.205  15.875  0.00  0.00    +0.000 OA
ATOM     19  H   UNL     1       6.826   3.079  16.184  0.00  0.00    +0.000 HD
ENDBRANCH   3  18
BRANCH   1  20
ATOM     20  C   UNL     1       5.287   4.379  18.926  0.00  0.00    +0.000 C 
BRANCH  20  26
ATOM     21  C   UNL     1       3.294   2.795  18.750  0.00  0.00    +0.000 A 
ATOM     22  C   UNL     1       1.975   2.444  19.046  0.00  0.00    +0.000 A 
ATOM     23  C   UNL     1       1.170   3.321  19.769  0.00  0.00    +0.000 A 
ATOM     24  C   UNL     1       1.688   4.544  20.196  0.00  0.00    +0.000 A 
ATOM     25  C   UNL     1       3.013   4.883  19.915  0.00  0.00    +0.000 A 
ATOM     26  C   UNL     1       3.840   4.009  19.187  0.00  0.00    +0.000 A 
BRANCH  21  27
ATOM     27  O   UNL     1       4.065   1.949  17.999  0.00  0.00    +0.000 OA
ATOM     28  H   UNL     1       4.385   2.434  17.221  0.00  0.00    +0.000 HD
ENDBRANCH  21  27
ENDBRANCH  20  26
ENDBRANCH   1  20
TORSDOF 7
ENDMDL
MODEL 2
REMARK VINA RESULT:      -9.0      0.924      1.317
REMARK  Name = 
REMARK  7 active torsions:
REMARK  status: ('A' for Active; 'I' for Inactive)
REMARK    1  A    between atoms: O_1  and  C_2
REMARK    2  A    between atoms: C_7  and  C_8
REMARK    3  A    between atoms: C_8  and  N_9
REMARK    4  A    between atoms: C_11  and  O_12
REMARK    5  A    between atoms: C_14  and  C_15
REMARK    6  A    between atoms: C_17  and  C_18
REMARK    7  A    between atoms: C_18  and  C_19
REMARK                            x       y       z     vdW  Elec       q    Type
REMARK                         _______ _______ _______ _____ _____    ______ ____
ROOT
ATOM      1  N   UNL     1       5.467   5.443  17.939  0.00  0.00    +0.000 NA
ATOM      2  C   UNL     1       4.673   5.199  16.722  0.00  0.00    +0.000 C 
ATOM      3  C   UNL     1       5.638   4.651  15.676  0.00  0.00    +0.000 C 
ATOM      4  C   UNL     1       6.919   5.392  15.974  0.00  0.00    +0.000 C 
ATOM      5  C   UNL     1       6.884   5.596  17.496  0.00  0.00    +0.000 C 
ENDROOT
BRANCH   5   6
ATOM      6  C   UNL     1       7.440   6.943  17.837  0.00  0.00    +0.000 A 
ATOM      7  N   UNL     1       7.244   8.109  17.256  0.00  0.00    +0.000 NA
ATOM      8  C   UNL     1       8.110   8.924  17.945  0.00  0.00    +0.000 A 
ATOM      9  N   UNL     1       8.792   8.315  18.928  0.00  0.00    +0.000 NA
ATOM     10  O   UNL     1       8.357   6.991  18.847  0.00  0.00    +0.000 OA
BRANCH   8  11
ATOM     11  C   UNL     1       8.212  10.379  17.677  0.00  0.00    +0.000 C 
BRANCH  11  12
ATOM     12  C   UNL     1       9.402  10.892  18.454  0.00  0.00    +0.000 A 
ATOM     13  C   UNL     1      10.615  11.170  17.805  0.00  0.00    +0.000 A 
ATOM     14  C   UNL     1      11.702  11.680  18.519  0.00  0.00    +0.000 A 
ATOM     15  C   UNL     1      11.591  11.914  19.888  0.00  0.00    +0.000 A 
ATOM     16  C   UNL     1      10.398  11.628  20.547  0.00  0.00    +0.000 A 
ATOM     17  C   UNL     1       9.309  11.119  19.837  0.00  0.00    +0.000 A 
ENDBRANCH  11  12
ENDBRANCH   8  11
ENDBRANCH   5   6
BRANCH   3  18
ATOM     18  O   UNL     1       5.870   3.253  15.830  0.00  0.00    +0.000 OA
ATOM     19  H   UNL     1       5.587   2.810  15.010  0.00  0.00    +0.000 HD
ENDBRANCH   3  18
BRANCH   1  20
ATOM     20  C   UNL     1       5.347   4.354  18.926  0.00  0.00    +0.000 C 
BRANCH  20  26
ATOM     21  C   UNL     1       2.961   4.778  19.727  0.00  0.00    +0.000 A 
ATOM     22  C   UNL     1       1.636   4.375  19.904  0.00  0.00    +0.000 A 
ATOM     23  C   UNL     1       1.252   3.082  19.554  0.00  0.00    +0.000 A 
ATOM     24  C   UNL     1       2.194   2.199  19.027  0.00  0.00    +0.000 A 
ATOM     25  C   UNL     1       3.513   2.612  18.833  0.00  0.00    +0.000 A 
ATOM     26  C   UNL     1       3.918   3.914  19.179  0.00  0.00    +0.000 A 
BRANCH  21  27
ATOM     27  O   UNL     1       3.342   6.034  20.116  0.00  0.00    +0.000 OA
ATOM     28  H   UNL     1       4.103   6.305  19.577  0.00  0.00    +0.000 HD
ENDBRANCH  21  27
ENDBRANCH  20  26
ENDBRANCH   1  20
TORSDOF 7
ENDMDL
MODEL 3
REMARK VINA RESULT:      -8.5      4.121      5.989
REMARK  Name = 
REMARK  7 active torsions:
REMARK  status: ('A' for Active; 'I' for Inactive)
REMARK    1  A    between atoms: O_1  and  C_2
REMARK    2  A    between atoms: C_7  and  C_8
REMARK    3  A    between atoms: C_8  and  N_9
REMARK    4  A    between atoms: C_11  and  O_12
REMARK    5  A    between atoms: C_14  and  C_15
REMARK    6  A    between atoms: C_17  and  C_18
REMARK    7  A    between atoms: C_18  and  C_19
REMARK                            x       y       z     vdW  Elec       q    Type
REMARK                         _______ _______ _______ _____ _____    ______ ____
ROOT
ATOM      1  N   UNL     1       4.352   4.398  17.334  0.00  0.00    +0.000 NA
ATOM      2  C   UNL     1       5.462   4.391  16.363  0.00  0.00    +0.000 C 
ATOM      3  C   UNL     1       6.670   4.984  17.080  0.00  0.00    +0.000 C 
ATOM      4  C   UNL     1       6.054   6.030  17.977  0.00  0.00    +0.000 C 
ATOM      5  C   UNL     1       4.685   5.441  18.348  0.00  0.00    +0.000 C 
ENDROOT
BRANCH   5   6
ATOM      6  C   UNL     1       3.662   6.532  18.393  0.00  0.00    +0.000 A 
ATOM      7  N   UNL     1       3.468   7.542  17.570  0.00  0.00    +0.000 NA
ATOM      8  C   UNL     1       2.474   8.246  18.206  0.00  0.00    +0.000 A 
ATOM      9  N   UNL     1       2.039   7.694  19.350  0.00  0.00    +0.000 NA
ATOM     10  O   UNL     1       2.841   6.559  19.484  0.00  0.00    +0.000 OA
BRANCH   8  11
ATOM     11  C   UNL     1       1.871   9.468  17.623  0.00  0.00    +0.000 C 
BRANCH  11  12
ATOM     12  C   UNL     1       0.893  10.011  18.639  0.00  0.00    +0.000 A 
ATOM     13  C   UNL     1       1.341  10.489  19.881  0.00  0.00    +0.000 A 
ATOM     14  C   UNL     1       0.440  11.024  20.804  0.00  0.00    +0.000 A 
ATOM     15  C   UNL     1      -0.918  11.085  20.499  0.00  0.00    +0.000 A 
ATOM     16  C   UNL     1      -1.378  10.601  19.277  0.00  0.00    +0.000 A 
ATOM     17  C   UNL     1      -0.480  10.065  18.351  0.00  0.00    +0.000 A 
ENDBRANCH  11  12
ENDBRANCH   8  11
ENDBRANCH   5   6
BRANCH   3  18
ATOM     18  O   UNL     1       7.346   4.025  17.889  0.00  0.00    +0.000 OA
ATOM     19  H   UNL     1       8.200   3.825  17.468  0.00  0.00    +0.000 HD
ENDBRANCH   3  18
BRANCH   1  20
ATOM     20  C   UNL     1       4.154   3.088  17.982  0.00  0.00    +0.000 C 
BRANCH  20  26
ATOM     21  C   UNL     1       1.746   3.370  18.777  0.00  0.00    +0.000 A 
ATOM     22  C   UNL     1       0.768   3.319  19.773  0.00  0.00    +0.000 A 
ATOM     23  C   UNL     1       1.129   3.013  21.083  0.00  0.00    +0.000 A 
ATOM     24  C   UNL     1       2.464   2.757  21.392  0.00  0.00    +0.000 A 
ATOM     25  C   UNL     1       3.436   2.789  20.390  0.00  0.00    +0.000 A 
ATOM     26  C   UNL     1       3.090   3.095  19.061  0.00  0.00    +0.000 A 
BRANCH  21  27
ATOM     27  O   UNL     1       1.392   3.717  17.501  0.00  0.00    +0.000 OA
ATOM     28  H   UNL     1       0.742   4.438  17.548  0.00  0.00    +0.000 HD
ENDBRANCH  21  27
ENDBRANCH  20  26
ENDBRANCH   1  20
TORSDOF 7
ENDMDL
MODEL 4
REMARK VINA RESULT:      -8.5      4.061      7.083
REMARK  Name = 
REMARK  7 active torsions:
REMARK  status: ('A' for Active; 'I' for Inactive)
REMARK    1  A    between atoms: O_1  and  C_2
REMARK    2  A    between atoms: C_7  and  C_8
REMARK    3  A    between atoms: C_8  and  N_9
REMARK    4  A    between atoms: C_11  and  O_12
REMARK    5  A    between atoms: C_14  and  C_15
REMARK    6  A    between atoms: C_17  and  C_18
REMARK    7  A    between atoms: C_18  and  C_19
REMARK                            x       y       z     vdW  Elec       q    Type
REMARK                         _______ _______ _______ _____ _____    ______ ____
ROOT
ATOM      1  N   UNL     1       3.558   3.902  19.556  0.00  0.00    +0.000 NA
ATOM      2  C   UNL     1       2.999   2.975  20.556  0.00  0.00    +0.000 C 
ATOM      3  C   UNL     1       1.658   2.500  20.006  0.00  0.00    +0.000 C 
ATOM      4  C   UNL     1       1.137   3.718  19.282  0.00  0.00    +0.000 C 
ATOM      5  C   UNL     1       2.404   4.407  18.755  0.00  0.00    +0.000 C 
ENDROOT
BRANCH   5   6
ATOM      6  C   UNL     1       2.250   5.892  18.860  0.00  0.00    +0.000 A 
ATOM      7  N   UNL     1       2.351   6.819  17.930  0.00  0.00    +0.000 NA
ATOM      8  C   UNL     1       2.227   7.976  18.661  0.00  0.00    +0.000 A 
ATOM      9  N   UNL     1       2.027   7.791  19.975  0.00  0.00    +0.000 NA
ATOM     10  O   UNL     1       2.057   6.402  20.112  0.00  0.00    +0.000 OA
BRANCH   8  11
ATOM     11  C   UNL     1       2.227   9.317  18.028  0.00  0.00    +0.000 C 
BRANCH  11  12
ATOM     12  C   UNL     1       0.949  10.006  18.446  0.00  0.00    +0.000 A 
ATOM     13  C   UNL     1       0.968  11.036  19.400  0.00  0.00    +0.000 A 
ATOM     14  C   UNL     1      -0.209  11.697  19.757  0.00  0.00    +0.000 A 
ATOM     15  C   UNL     1      -1.420  11.333  19.170  0.00  0.00    +0.000 A 
ATOM     16  C   UNL     1      -1.456  10.303  18.233  0.00  0.00    +0.000 A 
ATOM     17  C   UNL     1      -0.280   9.640  17.873  0.00  0.00    +0.000 A 
ENDBRANCH  11  12
ENDBRANCH   8  11
ENDBRANCH   5   6
BRANCH   3  18
ATOM     18  O   UNL     1       1.801   1.435  19.070  0.00  0.00    +0.000 OA
ATOM     19  H   UNL     1       2.689   1.052  19.184  0.00  0.00    +0.000 HD
ENDBRANCH   3  18
BRANCH   1  20
ATOM     20  C   UNL     1       4.556   3.261  18.679  0.00  0.00    +0.000 C 
BRANCH  20  26
ATOM     21  C   UNL     1       6.304   5.104  18.444  0.00  0.00    +0.000 A 
ATOM     22  C   UNL     1       7.084   5.964  17.667  0.00  0.00    +0.000 A 
ATOM     23  C   UNL     1       6.920   5.991  16.285  0.00  0.00    +0.000 A 
ATOM     24  C   UNL     1       5.979   5.156  15.683  0.00  0.00    +0.000 A 
ATOM     25  C   UNL     1       5.215   4.283  16.460  0.00  0.00    +0.000 A 
ATOM     26  C   UNL     1       5.369   4.242  17.858  0.00  0.00    +0.000 A 
BRANCH  21  27
ATOM     27  O   UNL     1       6.438   5.117  19.806  0.00  0.00    +0.000 OA
ATOM     28  H   UNL     1       5.607   4.803  20.199  0.00  0.00    +0.000 HD
ENDBRANCH  21  27
ENDBRANCH  20  26
ENDBRANCH   1  20
TORSDOF 7
ENDMDL
MODEL 5
REMARK VINA RESULT:      -8.4      4.236      6.089
REMARK  Name = 
REMARK  7 active torsions:
REMARK  status: ('A' for Active; 'I' for Inactive)
REMARK    1  A    between atoms: O_1  and  C_2
REMARK    2  A    between atoms: C_7  and  C_8
REMARK    3  A    between atoms: C_8  and  N_9
REMARK    4  A    between atoms: C_11  and  O_12
REMARK    5  A    between atoms: C_14  and  C_15
REMARK    6  A    between atoms: C_17  and  C_18
REMARK    7  A    between atoms: C_18  and  C_19
REMARK                            x       y       z     vdW  Elec       q    Type
REMARK                         _______ _______ _______ _____ _____    ______ ____
ROOT
ATOM      1  N   UNL     1       4.037   4.744  17.079  0.00  0.00    +0.000 NA
ATOM      2  C   UNL     1       5.327   4.762  16.366  0.00  0.00    +0.000 C 
ATOM      3  C   UNL     1       6.400   5.033  17.415  0.00  0.00    +0.000 C 
ATOM      4  C   UNL     1       5.708   5.969  18.376  0.00  0.00    +0.000 C 
ATOM      5  C   UNL     1       4.239   5.522  18.338  0.00  0.00    +0.000 C 
ENDROOT
BRANCH   5   6
ATOM      6  C   UNL     1       3.345   6.719  18.412  0.00  0.00    +0.000 A 
ATOM      7  N   UNL     1       3.266   7.765  17.615  0.00  0.00    +0.000 NA
ATOM      8  C   UNL     1       2.356   8.559  18.271  0.00  0.00    +0.000 A 
ATOM      9  N   UNL     1       1.863   8.032  19.402  0.00  0.00    +0.000 NA
ATOM     10  O   UNL     1       2.532   6.811  19.505  0.00  0.00    +0.000 OA
BRANCH   8  11
ATOM     11  C   UNL     1       1.895   9.856  17.720  0.00  0.00    +0.000 C 
BRANCH  11  12
ATOM     12  C   UNL     1       0.807  10.366  18.635  0.00  0.00    +0.000 A 
ATOM     13  C   UNL     1       1.127  11.058  19.814  0.00  0.00    +0.000 A 
ATOM     14  C   UNL     1       0.119  11.562  20.639  0.00  0.00    +0.000 A 
ATOM     15  C   UNL     1      -1.220  11.377  20.299  0.00  0.00    +0.000 A 
ATOM     16  C   UNL     1      -1.552  10.680  19.140  0.00  0.00    +0.000 A 
ATOM     17  C   UNL     1      -0.547  10.175  18.312  0.00  0.00    +0.000 A 
ENDBRANCH  11  12
ENDBRANCH   8  11
ENDBRANCH   5   6
BRANCH   3  18
ATOM     18  O   UNL     1       6.782   3.854  18.118  0.00  0.00    +0.000 OA
ATOM     19  H   UNL     1       7.199   3.247  17.482  0.00  0.00    +0.000 HD
ENDBRANCH   3  18
BRANCH   1  20
ATOM     20  C   UNL     1       3.572   3.378  17.382  0.00  0.00    +0.000 C 
BRANCH  20  26
ATOM     21  C   UNL     1       3.536   2.826  19.873  0.00  0.00    +0.000 A 
ATOM     22  C   UNL     1       2.888   2.771  21.109  0.00  0.00    +0.000 A 
ATOM     23  C   UNL     1       1.544   3.123  21.203  0.00  0.00    +0.000 A 
ATOM     24  C   UNL     1       0.854   3.532  20.063  0.00  0.00    +0.000 A 
ATOM     25  C   UNL     1       1.510   3.605  18.833  0.00  0.00    +0.000 A 
ATOM     26  C   UNL     1       2.868   3.255  18.720  0.00  0.00    +0.000 A 
BRANCH  21  27
ATOM     27  O   UNL     1       4.844   2.434  19.779  0.00  0.00    +0.000 OA
ATOM     28  H   UNL     1       5.060   2.307  18.841  0.00  0.00    +0.000 HD
ENDBRANCH  21  27
ENDBRANCH  20  26
ENDBRANCH   1  20
TORSDOF 7
ENDMDL
MODEL 6
REMARK VINA RESULT:      -8.4      1.091      1.606
REMARK  Name = 
REMARK  7 active torsions:
REMARK  status: ('A' for Active; 'I' for Inactive)
REMARK    1  A    between atoms: O_1  and  C_2
REMARK    2  A    between atoms: C_7  and  C_8
REMARK    3  A    between atoms: C_8  and  N_9
REMARK    4  A    between atoms: C_11  and  O_12
REMARK    5  A    between atoms: C_14  and  C_15
REMARK    6  A    between atoms: C_17  and  C_18
REMARK    7  A    between atoms: C_18  and  C_19
REMARK                            x       y       z     vdW  Elec       q    Type
REMARK                         _______ _______ _______ _____ _____    ______ ____
ROOT
ATOM      1  N   UNL     1       5.633   5.857  18.025  0.00  0.00    +0.000 NA
ATOM      2  C   UNL     1       4.865   5.565  16.801  0.00  0.00    +0.000 C 
ATOM      3  C   UNL     1       5.839   4.920  15.821  0.00  0.00    +0.000 C 
ATOM      4  C   UNL     1       7.137   5.635  16.112  0.00  0.00    +0.000 C 
ATOM      5  C   UNL     1       7.066   5.934  17.616  0.00  0.00    +0.000 C 
ENDROOT
BRANCH   5   6
ATOM      6  C   UNL     1       7.660   7.280  17.891  0.00  0.00    +0.000 A 
ATOM      7  N   UNL     1       8.434   7.675  18.882  0.00  0.00    +0.000 NA
ATOM      8  C   UNL     1       8.541   9.024  18.642  0.00  0.00    +0.000 A 
ATOM      9  N   UNL     1       7.900   9.453  17.544  0.00  0.00    +0.000 NA
ATOM     10  O   UNL     1       7.299   8.293  17.050  0.00  0.00    +0.000 OA
BRANCH   8  11
ATOM     11  C   UNL     1       9.376   9.914  19.485  0.00  0.00    +0.000 C 
BRANCH  11  12
ATOM     12  C   UNL     1       9.721  11.124  18.648  0.00  0.00    +0.000 A 
ATOM     13  C   UNL     1       8.798  12.169  18.485  0.00  0.00    +0.000 A 
ATOM     14  C   UNL     1       9.132  13.304  17.742  0.00  0.00    +0.000 A 
ATOM     15  C   UNL     1      10.390  13.406  17.152  0.00  0.00    +0.000 A 
ATOM     16  C   UNL     1      11.311  12.370  17.294  0.00  0.00    +0.000 A 
ATOM     17  C   UNL     1      10.980  11.234  18.036  0.00  0.00    +0.000 A 
ENDBRANCH  11  12
ENDBRANCH   8  11
ENDBRANCH   5   6
BRANCH   3  18
ATOM     18  O   UNL     1       6.016   3.527  16.066  0.00  0.00    +0.000 OA
ATOM     19  H   UNL     1       6.867   3.260  15.678  0.00  0.00    +0.000 HD
ENDBRANCH   3  18
BRANCH   1  20
ATOM     20  C   UNL     1       5.446   4.836  19.073  0.00  0.00    +0.000 C 
BRANCH  20  26
ATOM     21  C   UNL     1       3.467   3.232  18.929  0.00  0.00    +0.000 A 
ATOM     22  C   UNL     1       2.142   2.888  19.210  0.00  0.00    +0.000 A 
ATOM     23  C   UNL     1       1.316   3.795  19.868  0.00  0.00    +0.000 A 
ATOM     24  C   UNL     1       1.816   5.041  20.245  0.00  0.00    +0.000 A 
ATOM     25  C   UNL     1       3.145   5.374  19.980  0.00  0.00    +0.000 A 
ATOM     26  C   UNL     1       3.995   4.470  19.317  0.00  0.00    +0.000 A 
BRANCH  21  27
ATOM     27  O   UNL     1       4.260   2.355  18.241  0.00  0.00    +0.000 OA
ATOM     28  H   UNL     1       3.797   1.503  18.182  0.00  0.00    +0.000 HD
ENDBRANCH  21  27
ENDBRANCH  20  26
ENDBRANCH   1  20
TORSDOF 7
ENDMDL
MODEL 7
REMARK VINA RESULT:      -8.4      4.987      7.305
REMARK  Name = 
REMARK  7 active torsions:
REMARK  status: ('A' for Active; 'I' for Inactive)
REMARK    1  A    between atoms: O_1  and  C_2
REMARK    2  A    between atoms: C_7  and  C_8
REMARK    3  A    between atoms: C_8  and  N_9
REMARK    4  A    between atoms: C_11  and  O_12
REMARK    5  A    between atoms: C_14  and  C_15
REMARK    6  A    between atoms: C_17  and  C_18
REMARK    7  A    between atoms: C_18  and  C_19
REMARK                            x       y       z     vdW  Elec       q    Type
REMARK                         _______ _______ _______ _____ _____    ______ ____
ROOT
ATOM      1  N   UNL     1       3.074   5.032  18.013  0.00  0.00    +0.000 NA
ATOM      2  C   UNL     1       1.884   4.164  17.957  0.00  0.00    +0.000 C 
ATOM      3  C   UNL     1       2.375   2.738  18.183  0.00  0.00    +0.000 C 
ATOM      4  C   UNL     1       3.724   2.731  17.505  0.00  0.00    +0.000 C 
ATOM      5  C   UNL     1       4.247   4.161  17.705  0.00  0.00    +0.000 C 
ENDROOT
BRANCH   5   6
ATOM      6  C   UNL     1       4.975   4.608  16.477  0.00  0.00    +0.000 A 
ATOM      7  N   UNL     1       5.714   3.915  15.634  0.00  0.00    +0.000 NA
ATOM      8  C   UNL     1       6.196   4.895  14.800  0.00  0.00    +0.000 A 
ATOM      9  N   UNL     1       5.761   6.133  15.079  0.00  0.00    +0.000 NA
ATOM     10  O   UNL     1       4.958   5.946  16.206  0.00  0.00    +0.000 OA
BRANCH   8  11
ATOM     11  C   UNL     1       7.057   4.588  13.632  0.00  0.00    +0.000 C 
BRANCH  11  12
ATOM     12  C   UNL     1       6.252   3.705  12.707  0.00  0.00    +0.000 A 
ATOM     13  C   UNL     1       4.910   4.001  12.421  0.00  0.00    +0.000 A 
ATOM     14  C   UNL     1       4.179   3.204  11.536  0.00  0.00    +0.000 A 
ATOM     15  C   UNL     1       4.779   2.102  10.931  0.00  0.00    +0.000 A 
ATOM     16  C   UNL     1       6.105   1.788  11.217  0.00  0.00    +0.000 A 
ATOM     17  C   UNL     1       6.839   2.582  12.101  0.00  0.00    +0.000 A 
ENDBRANCH  11  12
ENDBRANCH   8  11
ENDBRANCH   5   6
BRANCH   3  18
ATOM     18  O   UNL     1       2.554   2.437  19.565  0.00  0.00    +0.000 OA
ATOM     19  H   UNL     1       3.054   3.168  19.969  0.00  0.00    +0.000 HD
ENDBRANCH   3  18
BRANCH   1  20
ATOM     20  C   UNL     1       3.243   5.684  19.325  0.00  0.00    +0.000 C 
BRANCH  20  26
ATOM     21  C   UNL     1       2.428   7.935  18.444  0.00  0.00    +0.000 A 
ATOM     22  C   UNL     1       1.665   9.099  18.568  0.00  0.00    +0.000 A 
ATOM     23  C   UNL     1       0.948   9.336  19.738  0.00  0.00    +0.000 A 
ATOM     24  C   UNL     1       0.992   8.408  20.778  0.00  0.00    +0.000 A 
ATOM     25  C   UNL     1       1.739   7.236  20.642  0.00  0.00    +0.000 A 
ATOM     26  C   UNL     1       2.469   6.980  19.467  0.00  0.00    +0.000 A 
BRANCH  21  27
ATOM     27  O   UNL     1       3.167   7.731  17.311  0.00  0.00    +0.000 OA
ATOM     28  H   UNL     1       2.565   7.723  16.548  0.00  0.00    +0.000 HD
ENDBRANCH  21  27
ENDBRANCH  20  26
ENDBRANCH   1  20
TORSDOF 7
ENDMDL
MODEL 8
REMARK VINA RESULT:      -8.4      5.031      7.411
REMARK  Name = 
REMARK  7 active torsions:
REMARK  status: ('A' for Active; 'I' for Inactive)
REMARK    1  A    between atoms: O_1  and  C_2
REMARK    2  A    between atoms: C_7  and  C_8
REMARK    3  A    between atoms: C_8  and  N_9
REMARK    4  A    between atoms: C_11  and  O_12
REMARK    5  A    between atoms: C_14  and  C_15
REMARK    6  A    between atoms: C_17  and  C_18
REMARK    7  A    between atoms: C_18  and  C_19
REMARK                            x       y       z     vdW  Elec       q    Type
REMARK                         _______ _______ _______ _____ _____    ______ ____
ROOT
ATOM      1  N   UNL     1       3.002   5.044  17.892  0.00  0.00    +0.000 NA
ATOM      2  C   UNL     1       1.894   4.072  17.872  0.00  0.00    +0.000 C 
ATOM      3  C   UNL     1       2.495   2.720  18.240  0.00  0.00    +0.000 C 
ATOM      4  C   UNL     1       3.867   2.776  17.612  0.00  0.00    +0.000 C 
ATOM      5  C   UNL     1       4.257   4.258  17.702  0.00  0.00    +0.000 C 
ENDROOT
BRANCH   5   6
ATOM      6  C   UNL     1       4.995   4.662  16.465  0.00  0.00    +0.000 A 
ATOM      7  N   UNL     1       5.699   3.930  15.625  0.00  0.00    +0.000 NA
ATOM      8  C   UNL     1       6.216   4.881  14.777  0.00  0.00    +0.000 A 
ATOM      9  N   UNL     1       5.834   6.139  15.046  0.00  0.00    +0.000 NA
ATOM     10  O   UNL     1       5.032   5.997  16.180  0.00  0.00    +0.000 OA
BRANCH   8  11
ATOM     11  C   UNL     1       7.055   4.526  13.607  0.00  0.00    +0.000 C 
BRANCH  11  12
ATOM     12  C   UNL     1       6.203   3.681  12.689  0.00  0.00    +0.000 A 
ATOM     13  C   UNL     1       4.891   4.067  12.372  0.00  0.00    +0.000 A 
ATOM     14  C   UNL     1       4.119   3.304  11.493  0.00  0.00    +0.000 A 
ATOM     15  C   UNL     1       4.646   2.146  10.925  0.00  0.00    +0.000 A 
ATOM     16  C   UNL     1       5.942   1.744  11.242  0.00  0.00    +0.000 A 
ATOM     17  C   UNL     1       6.717   2.505  12.120  0.00  0.00    +0.000 A 
ENDBRANCH  11  12
ENDBRANCH   8  11
ENDBRANCH   5   6
BRANCH   3  18
ATOM     18  O   UNL     1       2.641   2.555  19.648  0.00  0.00    +0.000 OA
ATOM     19  H   UNL     1       3.236   3.255  19.972  0.00  0.00    +0.000 HD
ENDBRANCH   3  18
BRANCH   1  20
ATOM     20  C   UNL     1       3.060   5.818  19.146  0.00  0.00    +0.000 C 
BRANCH  20  26
ATOM     21  C   UNL     1       1.803   7.789  20.168  0.00  0.00    +0.000 A 
ATOM     22  C   UNL     1       1.242   9.066  20.082  0.00  0.00    +0.000 A 
ATOM     23  C   UNL     1       1.243   9.742  18.865  0.00  0.00    +0.000 A 
ATOM     24  C   UNL     1       1.807   9.142  17.739  0.00  0.00    +0.000 A 
ATOM     25  C   UNL     1       2.385   7.874  17.834  0.00  0.00    +0.000 A 
ATOM     26  C   UNL     1       2.394   7.177  19.056  0.00  0.00    +0.000 A 
BRANCH  21  27
ATOM     27  O   UNL     1       1.757   7.111  21.356  0.00  0.00    +0.000 OA
ATOM     28  H   UNL     1       2.269   6.291  21.262  0.00  0.00    +0.000 HD
ENDBRANCH  21  27
ENDBRANCH  20  26
ENDBRANCH   1  20
TORSDOF 7
ENDMDL
MODEL 9
REMARK VINA RESULT:      -8.3      3.934      7.026
REMARK  Name = 
REMARK  7 active torsions:
REMARK  status: ('A' for Active; 'I' for Inactive)
REMARK    1  A    between atoms: O_1  and  C_2
REMARK    2  A    between atoms: C_7  and  C_8
REMARK    3  A    between atoms: C_8  and  N_9
REMARK    4  A    between atoms: C_11  and  O_12
REMARK    5  A    between atoms: C_14  and  C_15
REMARK    6  A    between atoms: C_17  and  C_18
REMARK    7  A    between atoms: C_18  and  C_19
REMARK                            x       y       z     vdW  Elec       q    Type
REMARK                         _______ _______ _______ _____ _____    ______ ____
ROOT
ATOM      1  N   UNL     1       3.630   4.038  19.643  0.00  0.00    +0.000 NA
ATOM      2  C   UNL     1       2.967   3.059  20.523  0.00  0.00    +0.000 C 
ATOM      3  C   UNL     1       1.753   2.540  19.759  0.00  0.00    +0.000 C 
ATOM      4  C   UNL     1       1.293   3.753  18.987  0.00  0.00    +0.000 C 
ATOM      5  C   UNL     1       2.592   4.513  18.681  0.00  0.00    +0.000 C 
ENDROOT
BRANCH   5   6
ATOM      6  C   UNL     1       2.351   5.986  18.791  0.00  0.00    +0.000 A 
ATOM      7  N   UNL     1       2.421   6.925  17.869  0.00  0.00    +0.000 NA
ATOM      8  C   UNL     1       2.214   8.067  18.604  0.00  0.00    +0.000 A 
ATOM      9  N   UNL     1       1.994   7.861  19.912  0.00  0.00    +0.000 NA
ATOM     10  O   UNL     1       2.100   6.475  20.041  0.00  0.00    +0.000 OA
BRANCH   8  11
ATOM     11  C   UNL     1       2.152   9.411  17.979  0.00  0.00    +0.000 C 
BRANCH  11  12
ATOM     12  C   UNL     1       0.867  10.056  18.441  0.00  0.00    +0.000 A 
ATOM     13  C   UNL     1       0.879  11.050  19.433  0.00  0.00    +0.000 A 
ATOM     14  C   UNL     1      -0.306  11.672  19.831  0.00  0.00    +0.000 A 
ATOM     15  C   UNL     1      -1.517  11.307  19.246  0.00  0.00    +0.000 A 
ATOM     16  C   UNL     1      -1.546  10.313  18.271  0.00  0.00    +0.000 A 
ATOM     17  C   UNL     1      -0.363   9.689  17.870  0.00  0.00    +0.000 A 
ENDBRANCH  11  12
ENDBRANCH   8  11
ENDBRANCH   5   6
BRANCH   3  18
ATOM     18  O   UNL     1       2.093   1.509  18.835  0.00  0.00    +0.000 OA
ATOM     19  H   UNL     1       2.619   0.842  19.310  0.00  0.00    +0.000 HD
ENDBRANCH   3  18
BRANCH   1  20
ATOM     20  C   UNL     1       4.782   3.467  18.921  0.00  0.00    +0.000 C 
BRANCH  20  26
ATOM     21  C   UNL     1       5.734   4.768  16.943  0.00  0.00    +0.000 A 
ATOM     22  C   UNL     1       6.548   5.770  16.409  0.00  0.00    +0.000 A 
ATOM     23  C   UNL     1       7.369   6.516  17.251  0.00  0.00    +0.000 A 
ATOM     24  C   UNL     1       7.371   6.261  18.622  0.00  0.00    +0.000 A 
ATOM     25  C   UNL     1       6.541   5.272  19.154  0.00  0.00    +0.000 A 
ATOM     26  C   UNL     1       5.704   4.510  18.319  0.00  0.00    +0.000 A 
BRANCH  21  27
ATOM     27  O   UNL     1       4.964   4.007  16.105  0.00  0.00    +0.000 OA
ATOM     28  H   UNL     1       4.238   3.620  16.621  0.00  0.00    +0.000 HD
ENDBRANCH  21  27
ENDBRANCH  20  26
ENDBRANCH   1  20
TORSDOF 7
ENDMDL
