MODEL 1
REMARK VINA RESULT:      -8.1      0.000      0.000
REMARK  Name = 
REMARK  4 active torsions:
REMARK  status: ('A' for Active; 'I' for Inactive)
REMARK    1  A    between atoms: C_1  and  C_2
REMARK    2  A    between atoms: C_7  and  N_8
REMARK    3  A    between atoms: C_9  and  C_11
REMARK    4  A    between atoms: N_14  and  C_15
REMARK                            x       y       z     vdW  Elec       q    Type
REMARK                         _______ _______ _______ _____ _____    ______ ____
ROOT
ATOM      1  C   UNL     1       1.334  10.216  19.068  0.00  0.00    +0.000 C 
ATOM      2  C   UNL     1       1.841   9.505  17.806  0.00  0.00    +0.000 C 
ATOM      3  C   UNL     1       1.520   8.013  17.841  0.00  0.00    +0.000 C 
ATOM      4  N   UNL     1       2.041   7.418  19.076  0.00  0.00    +0.000 N 
ATOM      5  C   UNL     1       1.572   8.027  20.322  0.00  0.00    +0.000 C 
ATOM      6  C   UNL     1       1.907   9.521  20.312  0.00  0.00    +0.000 C 
ENDROOT
BRANCH   4   7
ATOM      7  C   UNL     1       2.775   6.227  19.065  0.00  0.00    +0.000 A 
ATOM      8  C   UNL     1       2.431   5.127  19.752  0.00  0.00    +0.000 A 
ATOM      9  C   UNL     1       3.314   3.944  19.641  0.00  0.00    +0.000 A 
ATOM     10  N   UNL     1       4.420   3.862  18.975  0.00  0.00    +0.000 NA
ATOM     11  C   UNL     1       4.780   5.001  18.306  0.00  0.00    +0.000 A 
ATOM     12  N   UNL     1       5.861   5.230  17.591  0.00  0.00    +0.000 NA
ATOM     13  C   UNL     1       5.704   6.515  17.175  0.00  0.00    +0.000 A 
ATOM     14  N   UNL     1       4.587   7.127  17.561  0.00  0.00    +0.000 NA
ATOM     15  N   UNL     1       3.981   6.164  18.317  0.00  0.00    +0.000 N 
ATOM     16  C   UNL     1       2.756   2.795  20.420  0.00  0.00    +0.000 C 
ATOM     17  C   UNL     1       1.449   3.332  21.010  0.00  0.00    +0.000 C 
ATOM     18  C   UNL     1       1.262   4.798  20.605  0.00  0.00    +0.000 C 
ENDBRANCH   4   7
BRANCH   1  20
ATOM     19  N   UNL     1      -0.835  10.850  18.106  0.00  0.00    +0.000 N 
ATOM     20  C   UNL     1      -0.189  10.237  19.156  0.00  0.00    +0.000 C 
ATOM     21  O   UNL     1      -0.805   9.744  20.098  0.00  0.00    +0.000 OA
ATOM     22  H   UNL     1      -0.326  11.515  17.535  0.00  0.00    +0.000 HD
BRANCH  19  29
ATOM     23  C   UNL     1      -2.309   9.754  15.762  0.00  0.00    +0.000 C 
ATOM     24  C   UNL     1      -2.832  10.910  16.620  0.00  0.00    +0.000 C 
ATOM     25  C   UNL     1      -4.370  10.876  16.649  0.00  0.00    +0.000 C 
ATOM     26  C   UNL     1      -4.949  11.984  17.526  0.00  0.00    +0.000 C 
ATOM     27  C   UNL     1      -4.382  11.939  18.940  0.00  0.00    +0.000 C 
ATOM     28  C   UNL     1      -2.859  11.979  18.926  0.00  0.00    +0.000 C 
ATOM     29  C   UNL     1      -2.289  10.846  18.061  0.00  0.00    +0.000 C 
ENDBRANCH  19  29
ENDBRANCH   1  20
TORSDOF 3
ENDMDL
MODEL 2
REMARK VINA RESULT:      -8.0      2.457      3.783
REMARK  Name = 
REMARK  4 active torsions:
REMARK  status: ('A' for Active; 'I' for Inactive)
REMARK    1  A    between atoms: C_1  and  C_2
REMARK    2  A    between atoms: C_7  and  N_8
REMARK    3  A    between atoms: C_9  and  C_11
REMARK    4  A    between atoms: N_14  and  C_15
REMARK                            x       y       z     vdW  Elec       q    Type
REMARK                         _______ _______ _______ _____ _____    ______ ____
ROOT
ATOM      1  C   UNL     1       0.059   9.878  19.824  0.00  0.00    +0.000 C 
ATOM      2  C   UNL     1       0.369   8.783  20.855  0.00  0.00    +0.000 C 
ATOM      3  C   UNL     1       1.784   8.239  20.679  0.00  0.00    +0.000 C 
ATOM      4  N   UNL     1       1.978   7.788  19.297  0.00  0.00    +0.000 N 
ATOM      5  C   UNL     1       1.732   8.791  18.260  0.00  0.00    +0.000 C 
ATOM      6  C   UNL     1       0.307   9.332  18.409  0.00  0.00    +0.000 C 
ENDROOT
BRANCH   4   7
ATOM      7  C   UNL     1       2.553   6.546  19.003  0.00  0.00    +0.000 A 
ATOM      8  C   UNL     1       2.191   5.394  19.588  0.00  0.00    +0.000 A 
ATOM      9  C   UNL     1       2.899   4.162  19.173  0.00  0.00    +0.000 A 
ATOM     10  N   UNL     1       3.870   4.075  18.323  0.00  0.00    +0.000 NA
ATOM     11  C   UNL     1       4.255   5.260  17.759  0.00  0.00    +0.000 A 
ATOM     12  N   UNL     1       5.232   5.489  16.906  0.00  0.00    +0.000 NA
ATOM     13  C   UNL     1       5.167   6.831  16.697  0.00  0.00    +0.000 A 
ATOM     14  N   UNL     1       4.205   7.483  17.344  0.00  0.00    +0.000 NA
ATOM     15  N   UNL     1       3.613   6.481  18.059  0.00  0.00    +0.000 N 
ATOM     16  C   UNL     1       2.335   2.969  19.877  0.00  0.00    +0.000 C 
ATOM     17  C   UNL     1       1.209   3.534  20.747  0.00  0.00    +0.000 C 
ATOM     18  C   UNL     1       1.138   5.055  20.576  0.00  0.00    +0.000 C 
ENDBRANCH   4   7
BRANCH   1  20
ATOM     19  N   UNL     1       1.016  11.960  18.940  0.00  0.00    +0.000 N 
ATOM     20  C   UNL     1       0.895  11.135  20.036  0.00  0.00    +0.000 C 
ATOM     21  O   UNL     1       1.430  11.401  21.111  0.00  0.00    +0.000 OA
ATOM     22  H   UNL     1       0.858  11.576  18.016  0.00  0.00    +0.000 HD
BRANCH  19  29
ATOM     23  C   UNL     1      -0.405  14.461  19.711  0.00  0.00    +0.000 C 
ATOM     24  C   UNL     1       0.818  14.438  18.790  0.00  0.00    +0.000 C 
ATOM     25  C   UNL     1       1.625  15.734  18.971  0.00  0.00    +0.000 C 
ATOM     26  C   UNL     1       2.884  15.750  18.105  0.00  0.00    +0.000 C 
ATOM     27  C   UNL     1       3.759  14.529  18.361  0.00  0.00    +0.000 C 
ATOM     28  C   UNL     1       2.973  13.236  18.178  0.00  0.00    +0.000 C 
ATOM     29  C   UNL     1       1.725  13.223  19.072  0.00  0.00    +0.000 C 
ENDBRANCH  19  29
ENDBRANCH   1  20
TORSDOF 3
ENDMDL
MODEL 3
REMARK VINA RESULT:      -7.9      2.643      4.651
REMARK  Name = 
REMARK  4 active torsions:
REMARK  status: ('A' for Active; 'I' for Inactive)
REMARK    1  A    between atoms: C_1  and  C_2
REMARK    2  A    between atoms: C_7  and  N_8
REMARK    3  A    between atoms: C_9  and  C_11
REMARK    4  A    between atoms: N_14  and  C_15
REMARK                            x       y       z     vdW  Elec       q    Type
REMARK                         _______ _______ _______ _____ _____    ______ ____
ROOT
ATOM      1  C   UNL     1       0.046   9.904  19.862  0.00  0.00    +0.000 C 
ATOM      2  C   UNL     1       0.400   8.797  20.865  0.00  0.00    +0.000 C 
ATOM      3  C   UNL     1       1.819   8.282  20.647  0.00  0.00    +0.000 C 
ATOM      4  N   UNL     1       1.990   7.860  19.252  0.00  0.00    +0.000 N 
ATOM      5  C   UNL     1       1.702   8.879  18.241  0.00  0.00    +0.000 C 
ATOM      6  C   UNL     1       0.271   9.390  18.432  0.00  0.00    +0.000 C 
ENDROOT
BRANCH   4   7
ATOM      7  C   UNL     1       2.581   6.636  18.922  0.00  0.00    +0.000 A 
ATOM      8  C   UNL     1       3.511   6.484  17.966  0.00  0.00    +0.000 A 
ATOM      9  C   UNL     1       4.037   5.120  17.731  0.00  0.00    +0.000 A 
ATOM     10  N   UNL     1       3.667   4.033  18.328  0.00  0.00    +0.000 NA
ATOM     11  C   UNL     1       2.693   4.194  19.275  0.00  0.00    +0.000 A 
ATOM     12  N   UNL     1       2.092   3.277  20.004  0.00  0.00    +0.000 NA
ATOM     13  C   UNL     1       1.215   3.991  20.758  0.00  0.00    +0.000 A 
ATOM     14  N   UNL     1       1.219   5.309  20.578  0.00  0.00    +0.000 NA
ATOM     15  N   UNL     1       2.160   5.460  19.600  0.00  0.00    +0.000 N 
ATOM     16  C   UNL     1       5.100   5.140  16.679  0.00  0.00    +0.000 C 
ATOM     17  C   UNL     1       5.221   6.615  16.286  0.00  0.00    +0.000 C 
ATOM     18  C   UNL     1       4.209   7.447  17.081  0.00  0.00    +0.000 C 
ENDBRANCH   4   7
BRANCH   1  20
ATOM     19  N   UNL     1       0.983  11.998  18.984  0.00  0.00    +0.000 N 
ATOM     20  C   UNL     1       0.863  11.173  20.080  0.00  0.00    +0.000 C 
ATOM     21  O   UNL     1       1.386  11.447  21.158  0.00  0.00    +0.000 OA
ATOM     22  H   UNL     1       0.838  11.611  18.059  0.00  0.00    +0.000 HD
BRANCH  19  29
ATOM     23  C   UNL     1      -0.479  14.483  19.727  0.00  0.00    +0.000 C 
ATOM     24  C   UNL     1       0.756  14.472  18.821  0.00  0.00    +0.000 C 
ATOM     25  C   UNL     1       1.545  15.780  19.008  0.00  0.00    +0.000 C 
ATOM     26  C   UNL     1       2.814  15.807  18.158  0.00  0.00    +0.000 C 
ATOM     27  C   UNL     1       3.701  14.598  18.430  0.00  0.00    +0.000 C 
ATOM     28  C   UNL     1       2.933  13.296  18.241  0.00  0.00    +0.000 C 
ATOM     29  C   UNL     1       1.674  13.270  19.119  0.00  0.00    +0.000 C 
ENDBRANCH  19  29
ENDBRANCH   1  20
TORSDOF 3
ENDMDL
MODEL 4
REMARK VINA RESULT:      -7.9      0.979      2.708
REMARK  Name = 
REMARK  4 active torsions:
REMARK  status: ('A' for Active; 'I' for Inactive)
REMARK    1  A    between atoms: C_1  and  C_2
REMARK    2  A    between atoms: C_7  and  N_8
REMARK    3  A    between atoms: C_9  and  C_11
REMARK    4  A    between atoms: N_14  and  C_15
REMARK                            x       y       z     vdW  Elec       q    Type
REMARK                         _______ _______ _______ _____ _____    ______ ____
ROOT
ATOM      1  C   UNL     1       1.319  10.243  19.129  0.00  0.00    +0.000 C 
ATOM      2  C   UNL     1       1.842   9.582  17.845  0.00  0.00    +0.000 C 
ATOM      3  C   UNL     1       1.542   8.086  17.829  0.00  0.00    +0.000 C 
ATOM      4  N   UNL     1       2.066   7.457  19.046  0.00  0.00    +0.000 N 
ATOM      5  C   UNL     1       1.583   8.016  20.309  0.00  0.00    +0.000 C 
ATOM      6  C   UNL     1       1.897   9.514  20.351  0.00  0.00    +0.000 C 
ENDROOT
BRANCH   4   7
ATOM      7  C   UNL     1       2.817   6.277  18.998  0.00  0.00    +0.000 A 
ATOM      8  C   UNL     1       3.903   6.109  18.228  0.00  0.00    +0.000 A 
ATOM      9  C   UNL     1       4.588   4.797  18.284  0.00  0.00    +0.000 A 
ATOM     10  N   UNL     1       4.229   3.764  18.975  0.00  0.00    +0.000 NA
ATOM     11  C   UNL     1       3.100   3.935  19.730  0.00  0.00    +0.000 A 
ATOM     12  N   UNL     1       2.476   3.060  20.491  0.00  0.00    +0.000 NA
ATOM     13  C   UNL     1       1.423   3.761  20.988  0.00  0.00    +0.000 A 
ATOM     14  N   UNL     1       1.331   5.034  20.612  0.00  0.00    +0.000 NA
ATOM     15  N   UNL     1       2.403   5.161  19.775  0.00  0.00    +0.000 N 
ATOM     16  C   UNL     1       5.803   4.800  17.413  0.00  0.00    +0.000 C 
ATOM     17  C   UNL     1       5.848   6.213  16.823  0.00  0.00    +0.000 C 
ATOM     18  C   UNL     1       4.644   7.020  17.321  0.00  0.00    +0.000 C 
ENDBRANCH   4   7
BRANCH   1  20
ATOM     19  N   UNL     1      -0.854  10.900  18.191  0.00  0.00    +0.000 N 
ATOM     20  C   UNL     1      -0.204  10.240  19.209  0.00  0.00    +0.000 C 
ATOM     21  O   UNL     1      -0.817   9.688  20.121  0.00  0.00    +0.000 OA
ATOM     22  H   UNL     1      -0.352  11.601  17.659  0.00  0.00    +0.000 HD
BRANCH  19  29
ATOM     23  C   UNL     1      -2.303   9.786  15.840  0.00  0.00    +0.000 C 
ATOM     24  C   UNL     1      -2.844  10.936  16.695  0.00  0.00    +0.000 C 
ATOM     25  C   UNL     1      -4.382  10.885  16.716  0.00  0.00    +0.000 C 
ATOM     26  C   UNL     1      -4.978  11.986  17.590  0.00  0.00    +0.000 C 
ATOM     27  C   UNL     1      -4.417  11.948  19.007  0.00  0.00    +0.000 C 
ATOM     28  C   UNL     1      -2.894  12.006  19.000  0.00  0.00    +0.000 C 
ATOM     29  C   UNL     1      -2.307  10.879  18.139  0.00  0.00    +0.000 C 
ENDBRANCH  19  29
ENDBRANCH   1  20
TORSDOF 3
ENDMDL
MODEL 5
REMARK VINA RESULT:      -7.3      4.079      8.440
REMARK  Name = 
REMARK  4 active torsions:
REMARK  status: ('A' for Active; 'I' for Inactive)
REMARK    1  A    between atoms: C_1  and  C_2
REMARK    2  A    between atoms: C_7  and  N_8
REMARK    3  A    between atoms: C_9  and  C_11
REMARK    4  A    between atoms: N_14  and  C_15
REMARK                            x       y       z     vdW  Elec       q    Type
REMARK                         _______ _______ _______ _____ _____    ______ ____
ROOT
ATOM      1  C   UNL     1       6.889   6.403  17.114  0.00  0.00    +0.000 C 
ATOM      2  C   UNL     1       6.918   5.892  18.562  0.00  0.00    +0.000 C 
ATOM      3  C   UNL     1       5.741   4.963  18.847  0.00  0.00    +0.000 C 
ATOM      4  N   UNL     1       4.481   5.633  18.506  0.00  0.00    +0.000 N 
ATOM      5  C   UNL     1       4.371   6.116  17.129  0.00  0.00    +0.000 C 
ATOM      6  C   UNL     1       5.533   7.069  16.834  0.00  0.00    +0.000 C 
ENDROOT
BRANCH   4   7
ATOM      7  C   UNL     1       3.387   5.627  19.379  0.00  0.00    +0.000 A 
ATOM      8  C   UNL     1       2.623   6.701  19.631  0.00  0.00    +0.000 A 
ATOM      9  C   UNL     1       1.502   6.537  20.584  0.00  0.00    +0.000 A 
ATOM     10  N   UNL     1       1.194   5.466  21.242  0.00  0.00    +0.000 NA
ATOM     11  C   UNL     1       2.002   4.387  21.004  0.00  0.00    +0.000 A 
ATOM     12  N   UNL     1       1.963   3.191  21.552  0.00  0.00    +0.000 NA
ATOM     13  C   UNL     1       2.992   2.532  20.958  0.00  0.00    +0.000 A 
ATOM     14  N   UNL     1       3.684   3.215  20.050  0.00  0.00    +0.000 NA
ATOM     15  N   UNL     1       3.068   4.434  20.081  0.00  0.00    +0.000 N 
ATOM     16  C   UNL     1       0.724   7.808  20.705  0.00  0.00    +0.000 C 
ATOM     17  C   UNL     1       1.420   8.776  19.744  0.00  0.00    +0.000 C 
ATOM     18  C   UNL     1       2.620   8.083  19.091  0.00  0.00    +0.000 C 
ENDBRANCH   4   7
BRANCH   1  20
ATOM     19  N   UNL     1       6.489   5.446  14.888  0.00  0.00    +0.000 N 
ATOM     20  C   UNL     1       7.128   5.292  16.097  0.00  0.00    +0.000 C 
ATOM     21  O   UNL     1       7.841   4.319  16.335  0.00  0.00    +0.000 OA
ATOM     22  H   UNL     1       5.677   6.050  14.834  0.00  0.00    +0.000 HD
BRANCH  19  29
ATOM     23  C   UNL     1       8.643   5.851  12.872  0.00  0.00    +0.000 C 
ATOM     24  C   UNL     1       7.329   5.126  12.565  0.00  0.00    +0.000 C 
ATOM     25  C   UNL     1       7.573   4.044  11.499  0.00  0.00    +0.000 C 
ATOM     26  C   UNL     1       6.302   3.258  11.183  0.00  0.00    +0.000 C 
ATOM     27  C   UNL     1       5.687   2.650  12.438  0.00  0.00    +0.000 C 
ATOM     28  C   UNL     1       5.434   3.713  13.500  0.00  0.00    +0.000 C 
ATOM     29  C   UNL     1       6.724   4.479  13.827  0.00  0.00    +0.000 C 
ENDBRANCH  19  29
ENDBRANCH   1  20
TORSDOF 3
ENDMDL
MODEL 6
REMARK VINA RESULT:      -7.3      2.630      4.048
REMARK  Name = 
REMARK  4 active torsions:
REMARK  status: ('A' for Active; 'I' for Inactive)
REMARK    1  A    between atoms: C_1  and  C_2
REMARK    2  A    between atoms: C_7  and  N_8
REMARK    3  A    between atoms: C_9  and  C_11
REMARK    4  A    between atoms: N_14  and  C_15
REMARK                            x       y       z     vdW  Elec       q    Type
REMARK                         _______ _______ _______ _____ _____    ______ ____
ROOT
ATOM      1  C   UNL     1       0.049   9.537  20.300  0.00  0.00    +0.000 C 
ATOM      2  C   UNL     1       0.176   8.240  21.112  0.00  0.00    +0.000 C 
ATOM      3  C   UNL     1       1.573   7.638  20.984  0.00  0.00    +0.000 C 
ATOM      4  N   UNL     1       1.912   7.457  19.569  0.00  0.00    +0.000 N 
ATOM      5  C   UNL     1       1.845   8.662  18.740  0.00  0.00    +0.000 C 
ATOM      6  C   UNL     1       0.441   9.266  18.839  0.00  0.00    +0.000 C 
ENDROOT
BRANCH   4   7
ATOM      7  C   UNL     1       2.456   6.260  19.091  0.00  0.00    +0.000 A 
ATOM      8  C   UNL     1       2.105   5.045  19.540  0.00  0.00    +0.000 A 
ATOM      9  C   UNL     1       2.777   3.871  18.937  0.00  0.00    +0.000 A 
ATOM     10  N   UNL     1       3.707   3.887  18.038  0.00  0.00    +0.000 NA
ATOM     11  C   UNL     1       4.082   5.132  17.614  0.00  0.00    +0.000 A 
ATOM     12  N   UNL     1       5.022   5.462  16.753  0.00  0.00    +0.000 NA
ATOM     13  C   UNL     1       4.966   6.820  16.721  0.00  0.00    +0.000 A 
ATOM     14  N   UNL     1       4.044   7.390  17.491  0.00  0.00    +0.000 NA
ATOM     15  N   UNL     1       3.471   6.309  18.098  0.00  0.00    +0.000 N 
ATOM     16  C   UNL     1       2.230   2.601  19.507  0.00  0.00    +0.000 C 
ATOM     17  C   UNL     1       1.152   3.058  20.494  0.00  0.00    +0.000 C 
ATOM     18  C   UNL     1       1.094   4.589  20.524  0.00  0.00    +0.000 C 
ENDBRANCH   4   7
BRANCH   1  20
ATOM     19  N   UNL     1       0.907  11.832  20.130  0.00  0.00    +0.000 N 
ATOM     20  C   UNL     1       0.914  10.662  20.856  0.00  0.00    +0.000 C 
ATOM     21  O   UNL     1       1.579  10.541  21.884  0.00  0.00    +0.000 OA
ATOM     22  H   UNL     1       0.635  11.804  19.154  0.00  0.00    +0.000 HD
BRANCH  19  29
ATOM     23  C   UNL     1      -0.270  13.638  22.185  0.00  0.00    +0.000 C 
ATOM     24  C   UNL     1       0.698  14.117  21.098  0.00  0.00    +0.000 C 
ATOM     25  C   UNL     1       1.535  15.291  21.634  0.00  0.00    +0.000 C 
ATOM     26  C   UNL     1       2.550  15.785  20.605  0.00  0.00    +0.000 C 
ATOM     27  C   UNL     1       3.452  14.658  20.116  0.00  0.00    +0.000 C 
ATOM     28  C   UNL     1       2.634  13.490  19.576  0.00  0.00    +0.000 C 
ATOM     29  C   UNL     1       1.636  12.987  20.628  0.00  0.00    +0.000 C 
ENDBRANCH  19  29
ENDBRANCH   1  20
TORSDOF 3
ENDMDL
MODEL 7
REMARK VINA RESULT:      -7.2      4.049      8.246
REMARK  Name = 
REMARK  4 active torsions:
REMARK  status: ('A' for Active; 'I' for Inactive)
REMARK    1  A    between atoms: C_1  and  C_2
REMARK    2  A    between atoms: C_7  and  N_8
REMARK    3  A    between atoms: C_9  and  C_11
REMARK    4  A    between atoms: N_14  and  C_15
REMARK                            x       y       z     vdW  Elec       q    Type
REMARK                         _______ _______ _______ _____ _____    ______ ____
ROOT
ATOM      1  C   UNL     1       6.841   6.443  17.053  0.00  0.00    +0.000 C 
ATOM      2  C   UNL     1       6.931   5.951  18.505  0.00  0.00    +0.000 C 
ATOM      3  C   UNL     1       5.813   4.964  18.828  0.00  0.00    +0.000 C 
ATOM      4  N   UNL     1       4.511   5.562  18.511  0.00  0.00    +0.000 N 
ATOM      5  C   UNL     1       4.342   6.025  17.132  0.00  0.00    +0.000 C 
ATOM      6  C   UNL     1       5.445   7.033  16.799  0.00  0.00    +0.000 C 
ENDROOT
BRANCH   4   7
ATOM      7  C   UNL     1       3.440   5.509  19.410  0.00  0.00    +0.000 A 
ATOM      8  C   UNL     1       3.070   4.402  20.072  0.00  0.00    +0.000 A 
ATOM      9  C   UNL     1       1.910   4.505  20.986  0.00  0.00    +0.000 A 
ATOM     10  N   UNL     1       1.177   5.550  21.194  0.00  0.00    +0.000 NA
ATOM     11  C   UNL     1       1.541   6.664  20.487  0.00  0.00    +0.000 A 
ATOM     12  N   UNL     1       0.964   7.847  20.457  0.00  0.00    +0.000 NA
ATOM     13  C   UNL     1       1.733   8.556  19.589  0.00  0.00    +0.000 A 
ATOM     14  N   UNL     1       2.777   7.918  19.067  0.00  0.00    +0.000 NA
ATOM     15  N   UNL     1       2.657   6.676  19.624  0.00  0.00    +0.000 N 
ATOM     16  C   UNL     1       1.672   3.202  21.682  0.00  0.00    +0.000 C 
ATOM     17  C   UNL     1       2.776   2.280  21.158  0.00  0.00    +0.000 C 
ATOM     18  C   UNL     1       3.635   3.032  20.135  0.00  0.00    +0.000 C 
ENDBRANCH   4   7
BRANCH   1  20
ATOM     19  N   UNL     1       6.442   5.444  14.845  0.00  0.00    +0.000 N 
ATOM     20  C   UNL     1       7.114   5.335  16.042  0.00  0.00    +0.000 C 
ATOM     21  O   UNL     1       7.881   4.402  16.273  0.00  0.00    +0.000 OA
ATOM     22  H   UNL     1       5.600   6.006  14.803  0.00  0.00    +0.000 HD
BRANCH  19  29
ATOM     23  C   UNL     1       8.602   5.886  12.843  0.00  0.00    +0.000 C 
ATOM     24  C   UNL     1       7.305   5.135  12.529  0.00  0.00    +0.000 C 
ATOM     25  C   UNL     1       7.577   4.056  11.468  0.00  0.00    +0.000 C 
ATOM     26  C   UNL     1       6.324   3.244  11.145  0.00  0.00    +0.000 C 
ATOM     27  C   UNL     1       5.712   2.627  12.397  0.00  0.00    +0.000 C 
ATOM     28  C   UNL     1       5.431   3.688  13.454  0.00  0.00    +0.000 C 
ATOM     29  C   UNL     1       6.703   4.479  13.789  0.00  0.00    +0.000 C 
ENDBRANCH  19  29
ENDBRANCH   1  20
TORSDOF 3
ENDMDL
MODEL 8
REMARK VINA RESULT:      -7.2      4.397      9.018
REMARK  Name = 
REMARK  4 active torsions:
REMARK  status: ('A' for Active; 'I' for Inactive)
REMARK    1  A    between atoms: C_1  and  C_2
REMARK    2  A    between atoms: C_7  and  N_8
REMARK    3  A    between atoms: C_9  and  C_11
REMARK    4  A    between atoms: N_14  and  C_15
REMARK                            x       y       z     vdW  Elec       q    Type
REMARK                         _______ _______ _______ _____ _____    ______ ____
ROOT
ATOM      1  C   UNL     1      -0.585  11.708  20.945  0.00  0.00    +0.000 C 
ATOM      2  C   UNL     1      -0.926  12.154  19.516  0.00  0.00    +0.000 C 
ATOM      3  C   UNL     1       0.253  12.868  18.861  0.00  0.00    +0.000 C 
ATOM      4  N   UNL     1       0.701  13.977  19.710  0.00  0.00    +0.000 N 
ATOM      5  C   UNL     1       1.075  13.618  21.079  0.00  0.00    +0.000 C 
ATOM      6  C   UNL     1      -0.107  12.920  21.758  0.00  0.00    +0.000 C 
ENDROOT
BRANCH   4   7
ATOM      7  C   UNL     1       0.946  15.252  19.186  0.00  0.00    +0.000 A 
ATOM      8  C   UNL     1       0.025  16.225  19.120  0.00  0.00    +0.000 A 
ATOM      9  C   UNL     1       0.436  17.520  18.532  0.00  0.00    +0.000 A 
ATOM     10  N   UNL     1       1.593  17.812  18.033  0.00  0.00    +0.000 NA
ATOM     11  C   UNL     1       2.514  16.801  18.073  0.00  0.00    +0.000 A 
ATOM     12  N   UNL     1       3.745  16.786  17.606  0.00  0.00    +0.000 NA
ATOM     13  C   UNL     1       4.189  15.538  17.909  0.00  0.00    +0.000 A 
ATOM     14  N   UNL     1       3.334  14.748  18.554  0.00  0.00    +0.000 NA
ATOM     15  N   UNL     1       2.229  15.545  18.652  0.00  0.00    +0.000 N 
ATOM     16  C   UNL     1      -0.688  18.504  18.588  0.00  0.00    +0.000 C 
ATOM     17  C   UNL     1      -1.829  17.745  19.271  0.00  0.00    +0.000 C 
ATOM     18  C   UNL     1      -1.382  16.312  19.583  0.00  0.00    +0.000 C 
ENDBRANCH   4   7
BRANCH   1  20
ATOM     19  N   UNL     1       0.412   9.686  19.970  0.00  0.00    +0.000 N 
ATOM     20  C   UNL     1       0.483  10.620  20.979  0.00  0.00    +0.000 C 
ATOM     21  O   UNL     1       1.352  10.573  21.847  0.00  0.00    +0.000 OA
ATOM     22  H   UNL     1      -0.467   9.552  19.485  0.00  0.00    +0.000 HD
BRANCH  19  29
ATOM     23  C   UNL     1       2.266   9.565  17.643  0.00  0.00    +0.000 C 
ATOM     24  C   UNL     1       1.798   8.326  18.412  0.00  0.00    +0.000 C 
ATOM     25  C   UNL     1       2.902   7.255  18.387  0.00  0.00    +0.000 C 
ATOM     26  C   UNL     1       2.507   6.008  19.175  0.00  0.00    +0.000 C 
ATOM     27  C   UNL     1       2.117   6.347  20.609  0.00  0.00    +0.000 C 
ATOM     28  C   UNL     1       1.018   7.402  20.648  0.00  0.00    +0.000 C 
ATOM     29  C   UNL     1       1.437   8.659  19.873  0.00  0.00    +0.000 C 
ENDBRANCH  19  29
ENDBRANCH   1  20
TORSDOF 3
ENDMDL
MODEL 9
REMARK VINA RESULT:      -7.1      0.534      1.435
REMARK  Name = 
REMARK  4 active torsions:
REMARK  status: ('A' for Active; 'I' for Inactive)
REMARK    1  A    between atoms: C_1  and  C_2
REMARK    2  A    between atoms: C_7  and  N_8
REMARK    3  A    between atoms: C_9  and  C_11
REMARK    4  A    between atoms: N_14  and  C_15
REMARK                            x       y       z     vdW  Elec       q    Type
REMARK                         _______ _______ _______ _____ _____    ______ ____
ROOT
ATOM      1  C   UNL     1       1.535  10.242  19.265  0.00  0.00    +0.000 C 
ATOM      2  C   UNL     1       2.262   9.648  18.049  0.00  0.00    +0.000 C 
ATOM      3  C   UNL     1       1.884   8.185  17.836  0.00  0.00    +0.000 C 
ATOM      4  N   UNL     1       2.120   7.423  19.067  0.00  0.00    +0.000 N 
ATOM      5  C   UNL     1       1.431   7.914  20.261  0.00  0.00    +0.000 C 
ATOM      6  C   UNL     1       1.817   9.376  20.502  0.00  0.00    +0.000 C 
ENDROOT
BRANCH   4   7
ATOM      7  C   UNL     1       2.796   6.197  19.054  0.00  0.00    +0.000 A 
ATOM      8  C   UNL     1       2.380   5.104  19.712  0.00  0.00    +0.000 A 
ATOM      9  C   UNL     1       3.208   3.882  19.604  0.00  0.00    +0.000 A 
ATOM     10  N   UNL     1       4.326   3.757  18.965  0.00  0.00    +0.000 NA
ATOM     11  C   UNL     1       4.759   4.887  18.326  0.00  0.00    +0.000 A 
ATOM     12  N   UNL     1       5.868   5.076  17.643  0.00  0.00    +0.000 NA
ATOM     13  C   UNL     1       5.785   6.373  17.247  0.00  0.00    +0.000 A 
ATOM     14  N   UNL     1       4.689   7.033  17.614  0.00  0.00    +0.000 NA
ATOM     15  N   UNL     1       4.017   6.088  18.337  0.00  0.00    +0.000 N 
ATOM     16  C   UNL     1       2.575   2.749  20.347  0.00  0.00    +0.000 C 
ATOM     17  C   UNL     1       1.279   3.339  20.912  0.00  0.00    +0.000 C 
ATOM     18  C   UNL     1       1.174   4.819  20.528  0.00  0.00    +0.000 C 
ENDBRANCH   4   7
BRANCH   1  20
ATOM     19  N   UNL     1      -0.377  11.296  18.140  0.00  0.00    +0.000 N 
ATOM     20  C   UNL     1       0.029  10.347  19.052  0.00  0.00    +0.000 C 
ATOM     21  O   UNL     1      -0.775   9.637  19.651  0.00  0.00    +0.000 OA
ATOM     22  H   UNL     1       0.246  12.064  17.919  0.00  0.00    +0.000 HD
BRANCH  19  29
ATOM     23  C   UNL     1      -2.224  12.945  19.795  0.00  0.00    +0.000 C 
ATOM     24  C   UNL     1      -2.662  11.679  19.052  0.00  0.00    +0.000 C 
ATOM     25  C   UNL     1      -4.134  11.814  18.626  0.00  0.00    +0.000 C 
ATOM     26  C   UNL     1      -4.616  10.595  17.841  0.00  0.00    +0.000 C 
ATOM     27  C   UNL     1      -3.728  10.313  16.635  0.00  0.00    +0.000 C 
ATOM     28  C   UNL     1      -2.267  10.170  17.045  0.00  0.00    +0.000 C 
ATOM     29  C   UNL     1      -1.789  11.412  17.810  0.00  0.00    +0.000 C 
ENDBRANCH  19  29
ENDBRANCH   1  20
TORSDOF 3
ENDMDL
