MODEL 1
REMARK VINA RESULT:      -7.4      0.000      0.000
REMARK  Name = 
REMARK  7 active torsions:
REMARK  status: ('A' for Active; 'I' for Inactive)
REMARK    1  A    between atoms: C_1  and  O_2
REMARK    2  A    between atoms: O_2  and  C_3
REMARK    3  A    between atoms: C_12  and  C_13
REMARK    4  A    between atoms: C_13  and  O_14
REMARK    5  A    between atoms: C_16  and  C_17
REMARK    6  A    between atoms: N_22  and  C_23
REMARK    7  A    between atoms: C_23  and  C_24
REMARK                            x       y       z     vdW  Elec       q    Type
REMARK                         _______ _______ _______ _____ _____    ______ ____
ROOT
ATOM      1  C   UNL     1       6.914   5.322  15.023  0.00  0.00    +0.000 A 
ATOM      2  C   UNL     1       6.129   6.455  15.228  0.00  0.00    +0.000 A 
ATOM      3  C   UNL     1       4.969   6.411  16.021  0.00  0.00    +0.000 A 
ATOM      4  C   UNL     1       4.588   5.200  16.630  0.00  0.00    +0.000 A 
ATOM      5  C   UNL     1       3.564   4.772  17.515  0.00  0.00    +0.000 A 
ATOM      6  C   UNL     1       3.726   3.420  17.746  0.00  0.00    +0.000 A 
ATOM      7  N   UNL     1       4.855   3.017  17.093  0.00  0.00    +0.000 N 
ATOM      8  C   UNL     1       5.395   4.077  16.398  0.00  0.00    +0.000 A 
ATOM      9  C   UNL     1       6.561   4.110  15.615  0.00  0.00    +0.000 A 
ATOM     10  C   UNL     1       2.917   2.523  18.639  0.00  0.00    +0.000 C 
ATOM     11  N   UNL     1       2.196   3.405  19.571  0.00  0.00    +0.000 N 
ATOM     12  C   UNL     1       2.275   3.386  20.954  0.00  0.00    +0.000 C 
ATOM     13  C   UNL     1       3.118   2.358  21.665  0.00  0.00    +0.000 C 
ATOM     14  O   UNL     1       1.665   4.201  21.652  0.00  0.00    +0.000 OA
ATOM     15  C   UNL     1       1.461   4.527  18.950  0.00  0.00    +0.000 C 
ATOM     16  C   UNL     1       2.496   5.505  18.337  0.00  0.00    +0.000 C 
ATOM     17  C   UNL     1       3.171   6.467  19.384  0.00  0.00    +0.000 C 
ATOM     18  N   UNL     1       1.914   7.256  19.309  0.00  0.00    +0.000 NA
ATOM     19  C   UNL     1       1.870   6.867  17.862  0.00  0.00    +0.000 C 
ATOM     20  H   UNL     1       5.266   2.094  17.142  0.00  0.00    +0.000 HD
ENDROOT
BRANCH   1  22
ATOM     21  C   UNL     1       7.910   5.216  12.878  0.00  0.00    +0.000 C 
ATOM     22  O   UNL     1       8.037   5.521  14.263  0.00  0.00    +0.000 OA
ENDBRANCH   1  22
BRANCH  10  23
ATOM     23  C   UNL     1       1.953   1.635  17.821  0.00  0.00    +0.000 C 
BRANCH  23  24
ATOM     24  O   UNL     1       0.736   1.401  18.535  0.00  0.00    +0.000 OA
ATOM     25  H   UNL     1       0.485   0.479  18.342  0.00  0.00    +0.000 HD
ENDBRANCH  23  24
ENDBRANCH  10  23
BRANCH  18  26
ATOM     26  C   UNL     1       2.160   8.663  19.580  0.00  0.00    +0.000 C 
BRANCH  26  27
ATOM     27  C   UNL     1       1.152   9.218  20.563  0.00  0.00    +0.000 A 
ATOM     28  C   UNL     1       1.253   8.848  21.923  0.00  0.00    +0.000 A 
ATOM     29  C   UNL     1       0.383   9.366  22.883  0.00  0.00    +0.000 A 
ATOM     30  C   UNL     1      -0.601  10.272  22.504  0.00  0.00    +0.000 A 
ATOM     31  C   UNL     1      -0.716  10.653  21.165  0.00  0.00    +0.000 A 
ATOM     32  C   UNL     1       0.151  10.130  20.201  0.00  0.00    +0.000 A 
ATOM     33 CL   UNL     1      -0.065  10.658  18.570  0.00  0.00    +0.000 Cl
ENDBRANCH  26  27
ENDBRANCH  18  26
TORSDOF 5
ENDMDL
MODEL 2
REMARK VINA RESULT:      -6.9      0.988      1.472
REMARK  Name = 
REMARK  7 active torsions:
REMARK  status: ('A' for Active; 'I' for Inactive)
REMARK    1  A    between atoms: C_1  and  O_2
REMARK    2  A    between atoms: O_2  and  C_3
REMARK    3  A    between atoms: C_12  and  C_13
REMARK    4  A    between atoms: C_13  and  O_14
REMARK    5  A    between atoms: C_16  and  C_17
REMARK    6  A    between atoms: N_22  and  C_23
REMARK    7  A    between atoms: C_23  and  C_24
REMARK                            x       y       z     vdW  Elec       q    Type
REMARK                         _______ _______ _______ _____ _____    ______ ____
ROOT
ATOM      1  C   UNL     1       7.018   5.172  14.942  0.00  0.00    +0.000 A 
ATOM      2  C   UNL     1       6.261   6.331  15.100  0.00  0.00    +0.000 A 
ATOM      3  C   UNL     1       5.091   6.344  15.879  0.00  0.00    +0.000 A 
ATOM      4  C   UNL     1       4.672   5.164  16.523  0.00  0.00    +0.000 A 
ATOM      5  C   UNL     1       3.627   4.792  17.409  0.00  0.00    +0.000 A 
ATOM      6  C   UNL     1       3.751   3.445  17.687  0.00  0.00    +0.000 A 
ATOM      7  N   UNL     1       4.877   2.992  17.062  0.00  0.00    +0.000 N 
ATOM      8  C   UNL     1       5.452   4.014  16.339  0.00  0.00    +0.000 A 
ATOM      9  C   UNL     1       6.627   3.991  15.570  0.00  0.00    +0.000 A 
ATOM     10  C   UNL     1       2.909   2.600  18.600  0.00  0.00    +0.000 C 
ATOM     11  N   UNL     1       2.200   3.531  19.493  0.00  0.00    +0.000 N 
ATOM     12  C   UNL     1       2.262   3.557  20.876  0.00  0.00    +0.000 C 
ATOM     13  C   UNL     1       3.070   2.532  21.632  0.00  0.00    +0.000 C 
ATOM     14  O   UNL     1       1.665   4.410  21.539  0.00  0.00    +0.000 OA
ATOM     15  C   UNL     1       1.502   4.650  18.825  0.00  0.00    +0.000 C 
ATOM     16  C   UNL     1       2.569   5.580  18.193  0.00  0.00    +0.000 C 
ATOM     17  C   UNL     1       3.256   6.559  19.216  0.00  0.00    +0.000 C 
ATOM     18  N   UNL     1       2.021   7.376  19.099  0.00  0.00    +0.000 NA
ATOM     19  C   UNL     1       1.984   6.940  17.664  0.00  0.00    +0.000 C 
ATOM     20  H   UNL     1       5.263   2.061  17.148  0.00  0.00    +0.000 HD
ENDROOT
BRANCH   1  22
ATOM     21  C   UNL     1       7.979   5.240  12.779  0.00  0.00    +0.000 C 
ATOM     22  O   UNL     1       8.155   5.317  14.190  0.00  0.00    +0.000 OA
ENDBRANCH   1  22
BRANCH  10  23
ATOM     23  C   UNL     1       1.932   1.710  17.800  0.00  0.00    +0.000 C 
BRANCH  23  24
ATOM     24  O   UNL     1       0.780   1.377  18.580  0.00  0.00    +0.000 OA
ATOM     25  H   UNL     1       1.092   1.300  19.501  0.00  0.00    +0.000 HD
ENDBRANCH  23  24
ENDBRANCH  10  23
BRANCH  18  26
ATOM     26  C   UNL     1       2.300   8.786  19.325  0.00  0.00    +0.000 C 
BRANCH  26  27
ATOM     27  C   UNL     1       1.021   9.580  19.483  0.00  0.00    +0.000 A 
ATOM     28  C   UNL     1       0.359  10.041  18.323  0.00  0.00    +0.000 A 
ATOM     29  C   UNL     1      -0.849  10.736  18.405  0.00  0.00    +0.000 A 
ATOM     30  C   UNL     1      -1.423  10.977  19.648  0.00  0.00    +0.000 A 
ATOM     31  C   UNL     1      -0.784  10.529  20.807  0.00  0.00    +0.000 A 
ATOM     32  C   UNL     1       0.429   9.838  20.727  0.00  0.00    +0.000 A 
ATOM     33 CL   UNL     1       1.146   9.320  22.212  0.00  0.00    +0.000 Cl
ENDBRANCH  26  27
ENDBRANCH  18  26
TORSDOF 5
ENDMDL
MODEL 3
REMARK VINA RESULT:      -6.9      5.079      9.073
REMARK  Name = 
REMARK  7 active torsions:
REMARK  status: ('A' for Active; 'I' for Inactive)
REMARK    1  A    between atoms: C_1  and  O_2
REMARK    2  A    between atoms: O_2  and  C_3
REMARK    3  A    between atoms: C_12  and  C_13
REMARK    4  A    between atoms: C_13  and  O_14
REMARK    5  A    between atoms: C_16  and  C_17
REMARK    6  A    between atoms: N_22  and  C_23
REMARK    7  A    between atoms: C_23  and  C_24
REMARK                            x       y       z     vdW  Elec       q    Type
REMARK                         _______ _______ _______ _____ _____    ______ ____
ROOT
ATOM      1  C   UNL     1       2.541  15.641  19.537  0.00  0.00    +0.000 A 
ATOM      2  C   UNL     1       3.168  14.433  19.838  0.00  0.00    +0.000 A 
ATOM      3  C   UNL     1       2.482  13.208  19.755  0.00  0.00    +0.000 A 
ATOM      4  C   UNL     1       1.133  13.194  19.353  0.00  0.00    +0.000 A 
ATOM      5  C   UNL     1       0.147  12.204  19.095  0.00  0.00    +0.000 A 
ATOM      6  C   UNL     1      -1.023  12.840  18.728  0.00  0.00    +0.000 A 
ATOM      7  N   UNL     1      -0.771  14.180  18.679  0.00  0.00    +0.000 N 
ATOM      8  C   UNL     1       0.529  14.426  19.063  0.00  0.00    +0.000 A 
ATOM      9  C   UNL     1       1.206  15.655  19.134  0.00  0.00    +0.000 A 
ATOM     10  C   UNL     1      -2.331  12.223  18.323  0.00  0.00    +0.000 C 
ATOM     11  N   UNL     1      -2.038  10.829  17.954  0.00  0.00    +0.000 N 
ATOM     12  C   UNL     1      -2.285  10.229  16.730  0.00  0.00    +0.000 C 
ATOM     13  C   UNL     1      -2.969  10.990  15.623  0.00  0.00    +0.000 C 
ATOM     14  O   UNL     1      -1.959   9.062  16.499  0.00  0.00    +0.000 OA
ATOM     15  C   UNL     1      -1.241  10.062  18.935  0.00  0.00    +0.000 C 
ATOM     16  C   UNL     1       0.182  10.674  18.990  0.00  0.00    +0.000 C 
ATOM     17  C   UNL     1       1.120  10.224  17.809  0.00  0.00    +0.000 C 
ATOM     18  N   UNL     1       1.295   8.961  18.570  0.00  0.00    +0.000 NA
ATOM     19  C   UNL     1       1.208   9.806  19.806  0.00  0.00    +0.000 C 
ATOM     20  H   UNL     1      -1.420  14.890  18.366  0.00  0.00    +0.000 HD
ENDROOT
BRANCH   1  22
ATOM     21  C   UNL     1       4.732  16.499  19.794  0.00  0.00    +0.000 C 
ATOM     22  O   UNL     1       3.341  16.750  19.622  0.00  0.00    +0.000 OA
ENDBRANCH   1  22
BRANCH  10  23
ATOM     23  C   UNL     1      -3.372  12.313  19.461  0.00  0.00    +0.000 C 
BRANCH  23  24
ATOM     24  O   UNL     1      -3.419  13.631  20.015  0.00  0.00    +0.000 OA
ATOM     25  H   UNL     1      -2.670  14.115  19.621  0.00  0.00    +0.000 HD
ENDBRANCH  23  24
ENDBRANCH  10  23
BRANCH  18  26
ATOM     26  C   UNL     1       2.592   8.360  18.303  0.00  0.00    +0.000 C 
BRANCH  26  27
ATOM     27  C   UNL     1       2.671   6.954  18.857  0.00  0.00    +0.000 A 
ATOM     28  C   UNL     1       1.892   6.623  19.988  0.00  0.00    +0.000 A 
ATOM     29  C   UNL     1       1.887   5.330  20.513  0.00  0.00    +0.000 A 
ATOM     30  C   UNL     1       2.655   4.339  19.912  0.00  0.00    +0.000 A 
ATOM     31  C   UNL     1       3.431   4.646  18.792  0.00  0.00    +0.000 A 
ATOM     32  C   UNL     1       3.442   5.942  18.269  0.00  0.00    +0.000 A 
ATOM     33 CL   UNL     1       4.431   6.229  16.881  0.00  0.00    +0.000 Cl
ENDBRANCH  26  27
ENDBRANCH  18  26
TORSDOF 5
ENDMDL
MODEL 4
REMARK VINA RESULT:      -6.9      6.459     10.255
REMARK  Name = 
REMARK  7 active torsions:
REMARK  status: ('A' for Active; 'I' for Inactive)
REMARK    1  A    between atoms: C_1  and  O_2
REMARK    2  A    between atoms: O_2  and  C_3
REMARK    3  A    between atoms: C_12  and  C_13
REMARK    4  A    between atoms: C_13  and  O_14
REMARK    5  A    between atoms: C_16  and  C_17
REMARK    6  A    between atoms: N_22  and  C_23
REMARK    7  A    between atoms: C_23  and  C_24
REMARK                            x       y       z     vdW  Elec       q    Type
REMARK                         _______ _______ _______ _____ _____    ______ ____
ROOT
ATOM      1  C   UNL     1       0.683  10.482  18.798  0.00  0.00    +0.000 A 
ATOM      2  C   UNL     1       0.720  11.535  19.710  0.00  0.00    +0.000 A 
ATOM      3  C   UNL     1      -0.443  12.241  20.065  0.00  0.00    +0.000 A 
ATOM      4  C   UNL     1      -1.678  11.877  19.494  0.00  0.00    +0.000 A 
ATOM      5  C   UNL     1      -3.032  12.281  19.630  0.00  0.00    +0.000 A 
ATOM      6  C   UNL     1      -3.801  11.526  18.767  0.00  0.00    +0.000 A 
ATOM      7  N   UNL     1      -2.979  10.621  18.159  0.00  0.00    +0.000 N 
ATOM      8  C   UNL     1      -1.680  10.817  18.576  0.00  0.00    +0.000 A 
ATOM      9  C   UNL     1      -0.527  10.099  18.220  0.00  0.00    +0.000 A 
ATOM     10  C   UNL     1      -5.290  11.557  18.573  0.00  0.00    +0.000 C 
ATOM     11  N   UNL     1      -5.851  12.211  19.766  0.00  0.00    +0.000 N 
ATOM     12  C   UNL     1      -6.775  11.672  20.647  0.00  0.00    +0.000 C 
ATOM     13  C   UNL     1      -7.360  10.304  20.408  0.00  0.00    +0.000 C 
ATOM     14  O   UNL     1      -7.151  12.283  21.651  0.00  0.00    +0.000 OA
ATOM     15  C   UNL     1      -5.224  13.495  20.146  0.00  0.00    +0.000 C 
ATOM     16  C   UNL     1      -3.770  13.209  20.604  0.00  0.00    +0.000 C 
ATOM     17  C   UNL     1      -3.656  12.667  22.076  0.00  0.00    +0.000 C 
ATOM     18  N   UNL     1      -3.843  14.078  22.498  0.00  0.00    +0.000 NA
ATOM     19  C   UNL     1      -3.066  14.447  21.269  0.00  0.00    +0.000 C 
ATOM     20  H   UNL     1      -3.275   9.885  17.531  0.00  0.00    +0.000 HD
ENDROOT
BRANCH   1  22
ATOM     21  C   UNL     1       1.846   8.726  17.716  0.00  0.00    +0.000 C 
ATOM     22  O   UNL     1       1.884   9.859  18.579  0.00  0.00    +0.000 OA
ENDBRANCH   1  22
BRANCH  10  23
ATOM     23  C   UNL     1      -5.674  12.299  17.274  0.00  0.00    +0.000 C 
BRANCH  23  24
ATOM     24  O   UNL     1      -4.599  12.279  16.331  0.00  0.00    +0.000 OA
ATOM     25  H   UNL     1      -4.750  13.034  15.734  0.00  0.00    +0.000 HD
ENDBRANCH  23  24
ENDBRANCH  10  23
BRANCH  18  26
ATOM     26  C   UNL     1      -3.184  14.341  23.767  0.00  0.00    +0.000 C 
BRANCH  26  27
ATOM     27  C   UNL     1      -3.545  15.710  24.302  0.00  0.00    +0.000 A 
ATOM     28  C   UNL     1      -4.898  16.115  24.276  0.00  0.00    +0.000 A 
ATOM     29  C   UNL     1      -5.297  17.346  24.800  0.00  0.00    +0.000 A 
ATOM     30  C   UNL     1      -4.352  18.193  25.367  0.00  0.00    +0.000 A 
ATOM     31  C   UNL     1      -3.009  17.809  25.404  0.00  0.00    +0.000 A 
ATOM     32  C   UNL     1      -2.607  16.580  24.875  0.00  0.00    +0.000 A 
ATOM     33 CL   UNL     1      -0.926  16.189  24.965  0.00  0.00    +0.000 Cl
ENDBRANCH  26  27
ENDBRANCH  18  26
TORSDOF 5
ENDMDL
MODEL 5
REMARK VINA RESULT:      -6.8      7.047      9.739
REMARK  Name = 
REMARK  7 active torsions:
REMARK  status: ('A' for Active; 'I' for Inactive)
REMARK    1  A    between atoms: C_1  and  O_2
REMARK    2  A    between atoms: O_2  and  C_3
REMARK    3  A    between atoms: C_12  and  C_13
REMARK    4  A    between atoms: C_13  and  O_14
REMARK    5  A    between atoms: C_16  and  C_17
REMARK    6  A    between atoms: N_22  and  C_23
REMARK    7  A    between atoms: C_23  and  C_24
REMARK                            x       y       z     vdW  Elec       q    Type
REMARK                         _______ _______ _______ _____ _____    ______ ____
ROOT
ATOM      1  C   UNL     1      -3.603  10.578  15.991  0.00  0.00    +0.000 A 
ATOM      2  C   UNL     1      -4.434  11.240  16.892  0.00  0.00    +0.000 A 
ATOM      3  C   UNL     1      -3.978  11.627  18.164  0.00  0.00    +0.000 A 
ATOM      4  C   UNL     1      -2.650  11.348  18.541  0.00  0.00    +0.000 A 
ATOM      5  C   UNL     1      -1.822  11.615  19.663  0.00  0.00    +0.000 A 
ATOM      6  C   UNL     1      -0.580  11.057  19.430  0.00  0.00    +0.000 A 
ATOM      7  N   UNL     1      -0.592  10.521  18.174  0.00  0.00    +0.000 N 
ATOM      8  C   UNL     1      -1.841  10.675  17.614  0.00  0.00    +0.000 A 
ATOM      9  C   UNL     1      -2.283  10.291  16.337  0.00  0.00    +0.000 A 
ATOM     10  C   UNL     1       0.642  11.104  20.302  0.00  0.00    +0.000 C 
ATOM     11  N   UNL     1       0.437  12.214  21.246  0.00  0.00    +0.000 N 
ATOM     12  C   UNL     1       1.253  13.323  21.407  0.00  0.00    +0.000 C 
ATOM     13  C   UNL     1       2.528  13.463  20.616  0.00  0.00    +0.000 C 
ATOM     14  O   UNL     1       0.971  14.229  22.195  0.00  0.00    +0.000 OA
ATOM     15  C   UNL     1      -0.861  12.220  21.954  0.00  0.00    +0.000 C 
ATOM     16  C   UNL     1      -1.980  12.487  20.915  0.00  0.00    +0.000 C 
ATOM     17  C   UNL     1      -2.140  14.001  20.517  0.00  0.00    +0.000 C 
ATOM     18  N   UNL     1      -2.866  14.153  21.803  0.00  0.00    +0.000 NA
ATOM     19  C   UNL     1      -3.385  12.766  21.563  0.00  0.00    +0.000 C 
ATOM     20  H   UNL     1       0.203  10.111  17.701  0.00  0.00    +0.000 HD
ENDROOT
BRANCH   1  22
ATOM     21  C   UNL     1      -3.259   9.963  13.730  0.00  0.00    +0.000 C 
ATOM     22  O   UNL     1      -4.168  10.298  14.774  0.00  0.00    +0.000 OA
ENDBRANCH   1  22
BRANCH  10  23
ATOM     23  C   UNL     1       0.865   9.760  21.031  0.00  0.00    +0.000 C 
BRANCH  23  24
ATOM     24  O   UNL     1       1.521   9.957  22.287  0.00  0.00    +0.000 OA
ATOM     25  H   UNL     1       2.104   9.185  22.409  0.00  0.00    +0.000 HD
ENDBRANCH  23  24
ENDBRANCH  10  23
BRANCH  18  26
ATOM     26  C   UNL     1      -3.851  15.220  21.729  0.00  0.00    +0.000 C 
BRANCH  26  27
ATOM     27  C   UNL     1      -3.818  16.087  22.968  0.00  0.00    +0.000 A 
ATOM     28  C   UNL     1      -2.721  16.956  23.161  0.00  0.00    +0.000 A 
ATOM     29  C   UNL     1      -2.659  17.814  24.261  0.00  0.00    +0.000 A 
ATOM     30  C   UNL     1      -3.698  17.827  25.184  0.00  0.00    +0.000 A 
ATOM     31  C   UNL     1      -4.793  16.976  25.010  0.00  0.00    +0.000 A 
ATOM     32  C   UNL     1      -4.853  16.112  23.914  0.00  0.00    +0.000 A 
ATOM     33 CL   UNL     1      -6.246  15.097  23.779  0.00  0.00    +0.000 Cl
ENDBRANCH  26  27
ENDBRANCH  18  26
TORSDOF 5
ENDMDL
MODEL 6
REMARK VINA RESULT:      -6.8      6.451     10.192
REMARK  Name = 
REMARK  7 active torsions:
REMARK  status: ('A' for Active; 'I' for Inactive)
REMARK    1  A    between atoms: C_1  and  O_2
REMARK    2  A    between atoms: O_2  and  C_3
REMARK    3  A    between atoms: C_12  and  C_13
REMARK    4  A    between atoms: C_13  and  O_14
REMARK    5  A    between atoms: C_16  and  C_17
REMARK    6  A    between atoms: N_22  and  C_23
REMARK    7  A    between atoms: C_23  and  C_24
REMARK                            x       y       z     vdW  Elec       q    Type
REMARK                         _______ _______ _______ _____ _____    ______ ____
ROOT
ATOM      1  C   UNL     1       0.704  10.494  18.595  0.00  0.00    +0.000 A 
ATOM      2  C   UNL     1       0.757  11.537  19.517  0.00  0.00    +0.000 A 
ATOM      3  C   UNL     1      -0.401  12.235  19.904  0.00  0.00    +0.000 A 
ATOM      4  C   UNL     1      -1.646  11.871  19.358  0.00  0.00    +0.000 A 
ATOM      5  C   UNL     1      -2.999  12.269  19.528  0.00  0.00    +0.000 A 
ATOM      6  C   UNL     1      -3.784  11.519  18.674  0.00  0.00    +0.000 A 
ATOM      7  N   UNL     1      -2.972  10.624  18.040  0.00  0.00    +0.000 N 
ATOM      8  C   UNL     1      -1.665  10.821  18.429  0.00  0.00    +0.000 A 
ATOM      9  C   UNL     1      -0.517  10.112  18.041  0.00  0.00    +0.000 A 
ATOM     10  C   UNL     1      -5.277  11.546  18.515  0.00  0.00    +0.000 C 
ATOM     11  N   UNL     1      -5.814  12.186  19.727  0.00  0.00    +0.000 N 
ATOM     12  C   UNL     1      -6.715  11.633  20.622  0.00  0.00    +0.000 C 
ATOM     13  C   UNL     1      -7.300  10.265  20.383  0.00  0.00    +0.000 C 
ATOM     14  O   UNL     1      -7.072  12.233  21.640  0.00  0.00    +0.000 OA
ATOM     15  C   UNL     1      -5.183  13.468  20.105  0.00  0.00    +0.000 C 
ATOM     16  C   UNL     1      -3.719  13.184  20.527  0.00  0.00    +0.000 C 
ATOM     17  C   UNL     1      -3.569  12.627  21.992  0.00  0.00    +0.000 C 
ATOM     18  N   UNL     1      -3.753  14.034  22.431  0.00  0.00    +0.000 NA
ATOM     19  C   UNL     1      -3.005  14.418  21.189  0.00  0.00    +0.000 C 
ATOM     20  H   UNL     1      -3.279   9.892  17.411  0.00  0.00    +0.000 HD
ENDROOT
BRANCH   1  22
ATOM     21  C   UNL     1       1.827   8.505  17.972  0.00  0.00    +0.000 C 
ATOM     22  O   UNL     1       1.902   9.878  18.343  0.00  0.00    +0.000 OA
ENDBRANCH   1  22
BRANCH  10  23
ATOM     23  C   UNL     1      -5.693  12.299  17.232  0.00  0.00    +0.000 C 
BRANCH  23  24
ATOM     24  O   UNL     1      -4.627  12.322  16.278  0.00  0.00    +0.000 OA
ATOM     25  H   UNL     1      -4.102  13.118  16.481  0.00  0.00    +0.000 HD
ENDBRANCH  23  24
ENDBRANCH  10  23
BRANCH  18  26
ATOM     26  C   UNL     1      -3.066  14.286  23.688  0.00  0.00    +0.000 C 
BRANCH  26  27
ATOM     27  C   UNL     1      -3.505  15.599  24.300  0.00  0.00    +0.000 A 
ATOM     28  C   UNL     1      -2.518  16.498  24.762  0.00  0.00    +0.000 A 
ATOM     29  C   UNL     1      -2.861  17.744  25.291  0.00  0.00    +0.000 A 
ATOM     30  C   UNL     1      -4.197  18.119  25.360  0.00  0.00    +0.000 A 
ATOM     31  C   UNL     1      -5.188  17.245  24.906  0.00  0.00    +0.000 A 
ATOM     32  C   UNL     1      -4.847  15.995  24.382  0.00  0.00    +0.000 A 
ATOM     33 CL   UNL     1      -6.139  14.981  23.844  0.00  0.00    +0.000 Cl
ENDBRANCH  26  27
ENDBRANCH  18  26
TORSDOF 5
ENDMDL
MODEL 7
REMARK VINA RESULT:      -6.7      6.107      9.117
REMARK  Name = 
REMARK  7 active torsions:
REMARK  status: ('A' for Active; 'I' for Inactive)
REMARK    1  A    between atoms: C_1  and  O_2
REMARK    2  A    between atoms: O_2  and  C_3
REMARK    3  A    between atoms: C_12  and  C_13
REMARK    4  A    between atoms: C_13  and  O_14
REMARK    5  A    between atoms: C_16  and  C_17
REMARK    6  A    between atoms: N_22  and  C_23
REMARK    7  A    between atoms: C_23  and  C_24
REMARK                            x       y       z     vdW  Elec       q    Type
REMARK                         _______ _______ _______ _____ _____    ______ ____
ROOT
ATOM      1  C   UNL     1       2.023  16.186  18.187  0.00  0.00    +0.000 A 
ATOM      2  C   UNL     1       0.690  16.376  18.547  0.00  0.00    +0.000 A 
ATOM      3  C   UNL     1      -0.111  15.309  18.990  0.00  0.00    +0.000 A 
ATOM      4  C   UNL     1       0.442  14.017  19.083  0.00  0.00    +0.000 A 
ATOM      5  C   UNL     1       0.004  12.741  19.525  0.00  0.00    +0.000 A 
ATOM      6  C   UNL     1       1.039  11.842  19.353  0.00  0.00    +0.000 A 
ATOM      7  N   UNL     1       2.120  12.535  18.891  0.00  0.00    +0.000 N 
ATOM      8  C   UNL     1       1.784  13.858  18.709  0.00  0.00    +0.000 A 
ATOM      9  C   UNL     1       2.596  14.918  18.272  0.00  0.00    +0.000 A 
ATOM     10  C   UNL     1       1.074  10.383  19.705  0.00  0.00    +0.000 C 
ATOM     11  N   UNL     1      -0.016  10.161  20.670  0.00  0.00    +0.000 N 
ATOM     12  C   UNL     1       0.108   9.660  21.956  0.00  0.00    +0.000 C 
ATOM     13  C   UNL     1       1.449   9.222  22.486  0.00  0.00    +0.000 C 
ATOM     14  O   UNL     1      -0.863   9.554  22.709  0.00  0.00    +0.000 OA
ATOM     15  C   UNL     1      -1.336  10.696  20.276  0.00  0.00    +0.000 C 
ATOM     16  C   UNL     1      -1.248  12.244  20.260  0.00  0.00    +0.000 C 
ATOM     17  C   UNL     1      -1.352  12.909  21.682  0.00  0.00    +0.000 C 
ATOM     18  N   UNL     1      -2.815  12.679  21.565  0.00  0.00    +0.000 NA
ATOM     19  C   UNL     1      -2.642  12.952  20.100  0.00  0.00    +0.000 C 
ATOM     20  H   UNL     1       3.046  12.152  18.744  0.00  0.00    +0.000 HD
ENDROOT
BRANCH   1  22
ATOM     21  C   UNL     1       2.278  17.910  16.585  0.00  0.00    +0.000 C 
ATOM     22  O   UNL     1       2.693  17.321  17.813  0.00  0.00    +0.000 OA
ENDBRANCH   1  22
BRANCH  10  23
ATOM     23  C   UNL     1       0.923   9.496  18.449  0.00  0.00    +0.000 C 
BRANCH  23  24
ATOM     24  O   UNL     1       1.746   9.970  17.381  0.00  0.00    +0.000 OA
ATOM     25  H   UNL     1       1.628   9.337  16.649  0.00  0.00    +0.000 HD
ENDBRANCH  23  24
ENDBRANCH  10  23
BRANCH  18  26
ATOM     26  C   UNL     1      -3.566  13.676  22.311  0.00  0.00    +0.000 C 
BRANCH  26  27
ATOM     27  C   UNL     1      -4.986  13.220  22.563  0.00  0.00    +0.000 A 
ATOM     28  C   UNL     1      -5.913  13.259  21.497  0.00  0.00    +0.000 A 
ATOM     29  C   UNL     1      -7.223  12.805  21.657  0.00  0.00    +0.000 A 
ATOM     30  C   UNL     1      -7.631  12.295  22.884  0.00  0.00    +0.000 A 
ATOM     31  C   UNL     1      -6.729  12.246  23.950  0.00  0.00    +0.000 A 
ATOM     32  C   UNL     1      -5.419  12.706  23.793  0.00  0.00    +0.000 A 
ATOM     33 CL   UNL     1      -4.373  12.605  25.166  0.00  0.00    +0.000 Cl
ENDBRANCH  26  27
ENDBRANCH  18  26
TORSDOF 5
ENDMDL
MODEL 8
REMARK VINA RESULT:      -6.7      6.995      9.659
REMARK  Name = 
REMARK  7 active torsions:
REMARK  status: ('A' for Active; 'I' for Inactive)
REMARK    1  A    between atoms: C_1  and  O_2
REMARK    2  A    between atoms: O_2  and  C_3
REMARK    3  A    between atoms: C_12  and  C_13
REMARK    4  A    between atoms: C_13  and  O_14
REMARK    5  A    between atoms: C_16  and  C_17
REMARK    6  A    between atoms: N_22  and  C_23
REMARK    7  A    between atoms: C_23  and  C_24
REMARK                            x       y       z     vdW  Elec       q    Type
REMARK                         _______ _______ _______ _____ _____    ______ ____
ROOT
ATOM      1  C   UNL     1      -3.574  10.477  15.966  0.00  0.00    +0.000 A 
ATOM      2  C   UNL     1      -4.405  11.175  16.840  0.00  0.00    +0.000 A 
ATOM      3  C   UNL     1      -3.957  11.590  18.107  0.00  0.00    +0.000 A 
ATOM      4  C   UNL     1      -2.638  11.303  18.505  0.00  0.00    +0.000 A 
ATOM      5  C   UNL     1      -1.818  11.589  19.628  0.00  0.00    +0.000 A 
ATOM      6  C   UNL     1      -0.581  11.009  19.424  0.00  0.00    +0.000 A 
ATOM      7  N   UNL     1      -0.588  10.439  18.183  0.00  0.00    +0.000 N 
ATOM      8  C   UNL     1      -1.829  10.595  17.605  0.00  0.00    +0.000 A 
ATOM      9  C   UNL     1      -2.262  10.182  16.334  0.00  0.00    +0.000 A 
ATOM     10  C   UNL     1       0.631  11.062  20.308  0.00  0.00    +0.000 C 
ATOM     11  N   UNL     1       0.432  12.200  21.220  0.00  0.00    +0.000 N 
ATOM     12  C   UNL     1       1.261  13.301  21.360  0.00  0.00    +0.000 C 
ATOM     13  C   UNL     1       2.547  13.403  20.579  0.00  0.00    +0.000 C 
ATOM     14  O   UNL     1       0.984  14.233  22.121  0.00  0.00    +0.000 OA
ATOM     15  C   UNL     1      -0.873  12.243  21.913  0.00  0.00    +0.000 C 
ATOM     16  C   UNL     1      -1.977  12.496  20.855  0.00  0.00    +0.000 C 
ATOM     17  C   UNL     1      -2.112  14.001  20.414  0.00  0.00    +0.000 C 
ATOM     18  N   UNL     1      -2.849  14.197  21.688  0.00  0.00    +0.000 NA
ATOM     19  C   UNL     1      -3.385  12.812  21.480  0.00  0.00    +0.000 C 
ATOM     20  H   UNL     1       0.206  10.006  17.730  0.00  0.00    +0.000 HD
ENDROOT
BRANCH   1  22
ATOM     21  C   UNL     1      -3.213   9.991  13.677  0.00  0.00    +0.000 C 
ATOM     22  O   UNL     1      -4.130  10.173  14.751  0.00  0.00    +0.000 OA
ENDBRANCH   1  22
BRANCH  10  23
ATOM     23  C   UNL     1       0.828   9.735  21.075  0.00  0.00    +0.000 C 
BRANCH  23  24
ATOM     24  O   UNL     1       1.395   9.966  22.368  0.00  0.00    +0.000 OA
ATOM     25  H   UNL     1       2.335  10.173  22.216  0.00  0.00    +0.000 HD
ENDBRANCH  23  24
ENDBRANCH  10  23
BRANCH  18  26
ATOM     26  C   UNL     1      -3.819  15.275  21.574  0.00  0.00    +0.000 C 
BRANCH  26  27
ATOM     27  C   UNL     1      -3.778  16.182  22.785  0.00  0.00    +0.000 A 
ATOM     28  C   UNL     1      -4.824  16.103  23.731  0.00  0.00    +0.000 A 
ATOM     29  C   UNL     1      -4.814  16.879  24.891  0.00  0.00    +0.000 A 
ATOM     30  C   UNL     1      -3.753  17.745  25.132  0.00  0.00    +0.000 A 
ATOM     31  C   UNL     1      -2.708  17.837  24.210  0.00  0.00    +0.000 A 
ATOM     32  C   UNL     1      -2.719  17.065  23.045  0.00  0.00    +0.000 A 
ATOM     33 CL   UNL     1      -1.384  17.243  21.962  0.00  0.00    +0.000 Cl
ENDBRANCH  26  27
ENDBRANCH  18  26
TORSDOF 5
ENDMDL
MODEL 9
REMARK VINA RESULT:      -6.5      5.869      8.666
REMARK  Name = 
REMARK  7 active torsions:
REMARK  status: ('A' for Active; 'I' for Inactive)
REMARK    1  A    between atoms: C_1  and  O_2
REMARK    2  A    between atoms: O_2  and  C_3
REMARK    3  A    between atoms: C_12  and  C_13
REMARK    4  A    between atoms: C_13  and  O_14
REMARK    5  A    between atoms: C_16  and  C_17
REMARK    6  A    between atoms: N_22  and  C_23
REMARK    7  A    between atoms: C_23  and  C_24
REMARK                            x       y       z     vdW  Elec       q    Type
REMARK                         _______ _______ _______ _____ _____    ______ ____
ROOT
ATOM      1  C   UNL     1       2.967  16.028  18.388  0.00  0.00    +0.000 A 
ATOM      2  C   UNL     1       1.705  16.358  18.877  0.00  0.00    +0.000 A 
ATOM      3  C   UNL     1       0.769  15.367  19.223  0.00  0.00    +0.000 A 
ATOM      4  C   UNL     1       1.112  14.009  19.082  0.00  0.00    +0.000 A 
ATOM      5  C   UNL     1       0.499  12.760  19.367  0.00  0.00    +0.000 A 
ATOM      6  C   UNL     1       1.364  11.753  18.983  0.00  0.00    +0.000 A 
ATOM      7  N   UNL     1       2.515  12.339  18.541  0.00  0.00    +0.000 N 
ATOM      8  C   UNL     1       2.387  13.710  18.582  0.00  0.00    +0.000 A 
ATOM      9  C   UNL     1       3.333  14.691  18.240  0.00  0.00    +0.000 A 
ATOM     10  C   UNL     1       1.184  10.268  19.115  0.00  0.00    +0.000 C 
ATOM     11  N   UNL     1       0.129  10.065  20.121  0.00  0.00    +0.000 N 
ATOM     12  C   UNL     1       0.244   9.356  21.306  0.00  0.00    +0.000 C 
ATOM     13  C   UNL     1       1.525   8.643  21.657  0.00  0.00    +0.000 C 
ATOM     14  O   UNL     1      -0.687   9.280  22.112  0.00  0.00    +0.000 OA
ATOM     15  C   UNL     1      -1.108  10.848  19.918  0.00  0.00    +0.000 C 
ATOM     16  C   UNL     1      -0.772  12.348  20.120  0.00  0.00    +0.000 C 
ATOM     17  C   UNL     1      -0.687  12.790  21.628  0.00  0.00    +0.000 C 
ATOM     18  N   UNL     1      -2.172  12.804  21.597  0.00  0.00    +0.000 NA
ATOM     19  C   UNL     1      -2.042  13.273  20.178  0.00  0.00    +0.000 C 
ATOM     20  H   UNL     1       3.357  11.850  18.266  0.00  0.00    +0.000 HD
ENDROOT
BRANCH   1  22
ATOM     21  C   UNL     1       5.069  17.055  18.754  0.00  0.00    +0.000 C 
ATOM     22  O   UNL     1       3.789  17.094  18.130  0.00  0.00    +0.000 OA
ENDBRANCH   1  22
BRANCH  10  23
ATOM     23  C   UNL     1       0.821   9.622  17.759  0.00  0.00    +0.000 C 
BRANCH  23  24
ATOM     24  O   UNL     1       1.950   8.956  17.187  0.00  0.00    +0.000 OA
ATOM     25  H   UNL     1       2.671   9.042  17.837  0.00  0.00    +0.000 HD
ENDBRANCH  23  24
ENDBRANCH  10  23
BRANCH  18  26
ATOM     26  C   UNL     1      -2.709  13.773  22.538  0.00  0.00    +0.000 C 
BRANCH  26  27
ATOM     27  C   UNL     1      -4.073  13.354  23.042  0.00  0.00    +0.000 A 
ATOM     28  C   UNL     1      -4.163  12.677  24.279  0.00  0.00    +0.000 A 
ATOM     29  C   UNL     1      -5.397  12.310  24.817  0.00  0.00    +0.000 A 
ATOM     30  C   UNL     1      -6.567  12.618  24.133  0.00  0.00    +0.000 A 
ATOM     31  C   UNL     1      -6.500  13.288  22.908  0.00  0.00    +0.000 A 
ATOM     32  C   UNL     1      -5.264  13.652  22.365  0.00  0.00    +0.000 A 
ATOM     33 CL   UNL     1      -5.277  14.479  20.848  0.00  0.00    +0.000 Cl
ENDBRANCH  26  27
ENDBRANCH  18  26
TORSDOF 5
ENDMDL
