MODEL 1
REMARK VINA RESULT:      -8.2      0.000      0.000
REMARK  Name = 
REMARK  13 active torsions:
REMARK  status: ('A' for Active; 'I' for Inactive)
REMARK    1  A    between atoms: C_1  and  O_2
REMARK    2  A    between atoms: O_2  and  C_3
REMARK    3  A    between atoms: C_8  and  N_9
REMARK    4  A    between atoms: N_9  and  N_10
REMARK    5  A    between atoms: C_11  and  C_12
REMARK    6  A    between atoms: C_11  and  C_24
REMARK    7  A    between atoms: C_14  and  O_15
REMARK    8  A    between atoms: O_15  and  C_16
REMARK    9  A    between atoms: C_17  and  O_18
REMARK   10  A    between atoms: O_18  and  C_19
REMARK   11  A    between atoms: C_20  and  O_21
REMARK   12  A    between atoms: O_21  and  C_22
REMARK   13  A    between atoms: C_26  and  C_27
REMARK                            x       y       z     vdW  Elec       q    Type
REMARK                         _______ _______ _______ _____ _____    ______ ____
ROOT
ATOM      1  N   UNL     1       1.679  11.396  18.454  0.00  0.00    +0.000 NA
ATOM      2  C   UNL     1       0.733  10.570  18.795  0.00  0.00    +0.000 C 
ENDROOT
BRANCH   2   3
ATOM      3  C   UNL     1       1.203   9.253  19.415  0.00  0.00    +0.000 A 
ATOM      4  N   UNL     1       2.008   8.530  18.684  0.00  0.00    +0.000 NA
ATOM      5  C   UNL     1       2.425   7.315  19.163  0.00  0.00    +0.000 A 
ATOM      6  N   UNL     1       2.208   6.899  20.375  0.00  0.00    +0.000 NA
ATOM      7  N   UNL     1       1.471   7.680  21.210  0.00  0.00    +0.000 N 
ATOM      8  C   UNL     1       0.795   8.795  20.795  0.00  0.00    +0.000 A 
ATOM      9  O   UNL     1      -0.077   9.346  21.445  0.00  0.00    +0.000 OA
ATOM     10  H   UNL     1       1.241   7.292  22.118  0.00  0.00    +0.000 HD
BRANCH   5  11
ATOM     11  C   UNL     1       3.134   6.430  18.183  0.00  0.00    +0.000 A 
ATOM     12  C   UNL     1       2.831   5.064  18.086  0.00  0.00    +0.000 A 
ATOM     13  C   UNL     1       3.558   4.238  17.223  0.00  0.00    +0.000 A 
ATOM     14  C   UNL     1       4.580   4.771  16.441  0.00  0.00    +0.000 A 
ATOM     15  C   UNL     1       4.883   6.130  16.524  0.00  0.00    +0.000 A 
ATOM     16  C   UNL     1       4.165   6.958  17.392  0.00  0.00    +0.000 A 
ENDBRANCH   5  11
ENDBRANCH   2   3
BRANCH   2  17
ATOM     17  C   UNL     1      -0.734  10.729  18.563  0.00  0.00    +0.000 A 
ATOM     18  C   UNL     1      -1.455  11.627  19.344  0.00  0.00    +0.000 A 
ATOM     19  C   UNL     1      -2.798  11.888  19.083  0.00  0.00    +0.000 A 
ATOM     20  C   UNL     1      -3.425  11.276  17.976  0.00  0.00    +0.000 A 
ATOM     21  C   UNL     1      -2.697  10.377  17.165  0.00  0.00    +0.000 A 
ATOM     22  C   UNL     1      -1.367  10.087  17.494  0.00  0.00    +0.000 A 
BRANCH  19  23
ATOM     23  O   UNL     1      -3.547  12.746  19.854  0.00  0.00    +0.000 OA
ATOM     24  C   UNL     1      -2.820  13.661  20.674  0.00  0.00    +0.000 C 
ENDBRANCH  19  23
BRANCH  20  25
ATOM     25  O   UNL     1      -4.757  11.579  17.813  0.00  0.00    +0.000 OA
ATOM     26  C   UNL     1      -5.685  10.682  18.412  0.00  0.00    +0.000 C 
ENDBRANCH  20  25
BRANCH  21  27
ATOM     27  O   UNL     1      -3.331   9.815  16.087  0.00  0.00    +0.000 OA
ATOM     28  C   UNL     1      -3.042  10.329  14.790  0.00  0.00    +0.000 C 
ENDBRANCH  21  27
ENDBRANCH   2  17
BRANCH   1  29
ATOM     29  N   UNL     1       1.364  12.600  17.891  0.00  0.00    +0.000 N 
ATOM     30  H   UNL     1       0.404  12.742  17.598  0.00  0.00    +0.000 HD
BRANCH  29  36
ATOM     31  C   UNL     1       1.280  14.908  18.838  0.00  0.00    +0.000 A 
ATOM     32  C   UNL     1       1.981  16.074  19.202  0.00  0.00    +0.000 A 
ATOM     33  C   UNL     1       3.371  16.142  19.128  0.00  0.00    +0.000 A 
ATOM     34  C   UNL     1       4.080  15.043  18.670  0.00  0.00    +0.000 A 
ATOM     35  C   UNL     1       3.394  13.881  18.313  0.00  0.00    +0.000 A 
ATOM     36  C   UNL     1       1.988  13.765  18.409  0.00  0.00    +0.000 A 
BRANCH  31  38
ATOM     37  C   UNL     1      -0.569  16.446  18.892  0.00  0.00    +0.000 C 
ATOM     38  O   UNL     1      -0.074  15.120  18.838  0.00  0.00    +0.000 OA
ENDBRANCH  31  38
ENDBRANCH  29  36
ENDBRANCH   1  29
TORSDOF 9
ENDMDL
MODEL 2
REMARK VINA RESULT:      -8.2      0.449      2.173
REMARK  Name = 
REMARK  13 active torsions:
REMARK  status: ('A' for Active; 'I' for Inactive)
REMARK    1  A    between atoms: C_1  and  O_2
REMARK    2  A    between atoms: O_2  and  C_3
REMARK    3  A    between atoms: C_8  and  N_9
REMARK    4  A    between atoms: N_9  and  N_10
REMARK    5  A    between atoms: C_11  and  C_12
REMARK    6  A    between atoms: C_11  and  C_24
REMARK    7  A    between atoms: C_14  and  O_15
REMARK    8  A    between atoms: O_15  and  C_16
REMARK    9  A    between atoms: C_17  and  O_18
REMARK   10  A    between atoms: O_18  and  C_19
REMARK   11  A    between atoms: C_20  and  O_21
REMARK   12  A    between atoms: O_21  and  C_22
REMARK   13  A    between atoms: C_26  and  C_27
REMARK                            x       y       z     vdW  Elec       q    Type
REMARK                         _______ _______ _______ _____ _____    ______ ____
ROOT
ATOM      1  N   UNL     1       1.727  11.561  18.461  0.00  0.00    +0.000 NA
ATOM      2  C   UNL     1       0.755  10.752  18.762  0.00  0.00    +0.000 C 
ENDROOT
BRANCH   2   3
ATOM      3  C   UNL     1       1.174   9.433  19.412  0.00  0.00    +0.000 A 
ATOM      4  N   UNL     1       1.969   8.673  18.708  0.00  0.00    +0.000 NA
ATOM      5  C   UNL     1       2.341   7.455  19.216  0.00  0.00    +0.000 A 
ATOM      6  N   UNL     1       2.092   7.067  20.431  0.00  0.00    +0.000 NA
ATOM      7  N   UNL     1       1.365   7.885  21.240  0.00  0.00    +0.000 N 
ATOM      8  C   UNL     1       0.730   9.012  20.794  0.00  0.00    +0.000 A 
ATOM      9  O   UNL     1      -0.136   9.600  21.419  0.00  0.00    +0.000 OA
ATOM     10  H   UNL     1       1.108   7.520  22.150  0.00  0.00    +0.000 HD
BRANCH   5  11
ATOM     11  C   UNL     1       3.040   6.531  18.263  0.00  0.00    +0.000 A 
ATOM     12  C   UNL     1       2.708   5.170  18.196  0.00  0.00    +0.000 A 
ATOM     13  C   UNL     1       3.423   4.308  17.360  0.00  0.00    +0.000 A 
ATOM     14  C   UNL     1       4.465   4.800  16.575  0.00  0.00    +0.000 A 
ATOM     15  C   UNL     1       4.797   6.154  16.629  0.00  0.00    +0.000 A 
ATOM     16  C   UNL     1       4.089   7.018  17.471  0.00  0.00    +0.000 A 
ENDBRANCH   5  11
ENDBRANCH   2   3
BRANCH   2  17
ATOM     17  C   UNL     1      -0.698  10.930  18.459  0.00  0.00    +0.000 A 
ATOM     18  C   UNL     1      -1.272  10.204  17.420  0.00  0.00    +0.000 A 
ATOM     19  C   UNL     1      -2.643  10.255  17.180  0.00  0.00    +0.000 A 
ATOM     20  C   UNL     1      -3.472  11.009  18.037  0.00  0.00    +0.000 A 
ATOM     21  C   UNL     1      -2.903  11.736  19.106  0.00  0.00    +0.000 A 
ATOM     22  C   UNL     1      -1.513  11.715  19.280  0.00  0.00    +0.000 A 
BRANCH  19  23
ATOM     23  O   UNL     1      -3.238   9.573  16.144  0.00  0.00    +0.000 OA
ATOM     24  C   UNL     1      -2.954  10.048  14.828  0.00  0.00    +0.000 C 
ENDBRANCH  19  23
BRANCH  20  25
ATOM     25  O   UNL     1      -4.808  11.016  17.708  0.00  0.00    +0.000 OA
ATOM     26  C   UNL     1      -5.265  12.132  16.953  0.00  0.00    +0.000 C 
ENDBRANCH  20  25
BRANCH  21  27
ATOM     27  O   UNL     1      -3.739  12.444  19.931  0.00  0.00    +0.000 OA
ATOM     28  C   UNL     1      -3.231  12.893  21.184  0.00  0.00    +0.000 C 
ENDBRANCH  21  27
ENDBRANCH   2  17
BRANCH   1  29
ATOM     29  N   UNL     1       1.458  12.765  17.875  0.00  0.00    +0.000 N 
ATOM     30  H   UNL     1       0.518  12.915  17.528  0.00  0.00    +0.000 HD
BRANCH  29  36
ATOM     31  C   UNL     1       1.347  15.079  18.803  0.00  0.00    +0.000 A 
ATOM     32  C   UNL     1       2.041  16.240  19.199  0.00  0.00    +0.000 A 
ATOM     33  C   UNL     1       3.433  16.292  19.203  0.00  0.00    +0.000 A 
ATOM     34  C   UNL     1       4.154  15.182  18.792  0.00  0.00    +0.000 A 
ATOM     35  C   UNL     1       3.476  14.026  18.404  0.00  0.00    +0.000 A 
ATOM     36  C   UNL     1       2.066  13.926  18.421  0.00  0.00    +0.000 A 
BRANCH  31  38
ATOM     37  C   UNL     1      -0.473  16.631  18.553  0.00  0.00    +0.000 C 
ATOM     38  O   UNL     1      -0.002  15.307  18.725  0.00  0.00    +0.000 OA
ENDBRANCH  31  38
ENDBRANCH  29  36
ENDBRANCH   1  29
TORSDOF 9
ENDMDL
MODEL 3
REMARK VINA RESULT:      -8.1      1.794      5.528
REMARK  Name = 
REMARK  13 active torsions:
REMARK  status: ('A' for Active; 'I' for Inactive)
REMARK    1  A    between atoms: C_1  and  O_2
REMARK    2  A    between atoms: O_2  and  C_3
REMARK    3  A    between atoms: C_8  and  N_9
REMARK    4  A    between atoms: N_9  and  N_10
REMARK    5  A    between atoms: C_11  and  C_12
REMARK    6  A    between atoms: C_11  and  C_24
REMARK    7  A    between atoms: C_14  and  O_15
REMARK    8  A    between atoms: O_15  and  C_16
REMARK    9  A    between atoms: C_17  and  O_18
REMARK   10  A    between atoms: O_18  and  C_19
REMARK   11  A    between atoms: C_20  and  O_21
REMARK   12  A    between atoms: O_21  and  C_22
REMARK   13  A    between atoms: C_26  and  C_27
REMARK                            x       y       z     vdW  Elec       q    Type
REMARK                         _______ _______ _______ _____ _____    ______ ____
ROOT
ATOM      1  N   UNL     1      -0.344  10.136  18.056  0.00  0.00    +0.000 NA
ATOM      2  C   UNL     1       0.670  10.297  18.854  0.00  0.00    +0.000 C 
ENDROOT
BRANCH   2   3
ATOM      3  C   UNL     1       1.298   9.010  19.389  0.00  0.00    +0.000 A 
ATOM      4  N   UNL     1       2.144   8.410  18.595  0.00  0.00    +0.000 NA
ATOM      5  C   UNL     1       2.703   7.226  18.997  0.00  0.00    +0.000 A 
ATOM      6  N   UNL     1       2.578   6.731  20.192  0.00  0.00    +0.000 NA
ATOM      7  N   UNL     1       1.798   7.390  21.092  0.00  0.00    +0.000 N 
ATOM      8  C   UNL     1       0.995   8.446  20.757  0.00  0.00    +0.000 A 
ATOM      9  O   UNL     1       0.097   8.870  21.465  0.00  0.00    +0.000 OA
ATOM     10  H   UNL     1       1.646   6.937  21.986  0.00  0.00    +0.000 HD
BRANCH   5  11
ATOM     11  C   UNL     1       3.461   6.467  17.948  0.00  0.00    +0.000 A 
ATOM     12  C   UNL     1       3.318   5.078  17.810  0.00  0.00    +0.000 A 
ATOM     13  C   UNL     1       4.091   4.377  16.881  0.00  0.00    +0.000 A 
ATOM     14  C   UNL     1       5.001   5.057  16.073  0.00  0.00    +0.000 A 
ATOM     15  C   UNL     1       5.143   6.439  16.197  0.00  0.00    +0.000 A 
ATOM     16  C   UNL     1       4.378   7.143  17.131  0.00  0.00    +0.000 A 
ENDBRANCH   5  11
ENDBRANCH   2   3
BRANCH   2  17
ATOM     17  C   UNL     1       1.219  11.588  19.370  0.00  0.00    +0.000 A 
ATOM     18  C   UNL     1       1.987  12.387  18.528  0.00  0.00    +0.000 A 
ATOM     19  C   UNL     1       2.419  13.648  18.933  0.00  0.00    +0.000 A 
ATOM     20  C   UNL     1       2.027  14.148  20.193  0.00  0.00    +0.000 A 
ATOM     21  C   UNL     1       1.232  13.353  21.047  0.00  0.00    +0.000 A 
ATOM     22  C   UNL     1       0.869  12.064  20.637  0.00  0.00    +0.000 A 
BRANCH  19  23
ATOM     23  O   UNL     1       3.205  14.450  18.138  0.00  0.00    +0.000 OA
ATOM     24  C   UNL     1       4.605  14.170  18.141  0.00  0.00    +0.000 C 
ENDBRANCH  19  23
BRANCH  20  25
ATOM     25  O   UNL     1       2.521  15.392  20.512  0.00  0.00    +0.000 OA
ATOM     26  C   UNL     1       3.594  15.423  21.446  0.00  0.00    +0.000 C 
ENDBRANCH  20  25
BRANCH  21  27
ATOM     27  O   UNL     1       0.853  13.877  22.257  0.00  0.00    +0.000 OA
ATOM     28  C   UNL     1      -0.429  14.491  22.355  0.00  0.00    +0.000 C 
ENDBRANCH  21  27
ENDBRANCH   2  17
BRANCH   1  29
ATOM     29  N   UNL     1      -0.977  11.224  17.525  0.00  0.00    +0.000 N 
ATOM     30  H   UNL     1      -0.578  11.633  16.688  0.00  0.00    +0.000 HD
BRANCH  29  36
ATOM     31  C   UNL     1      -3.217  11.054  16.438  0.00  0.00    +0.000 A 
ATOM     32  C   UNL     1      -4.609  11.251  16.537  0.00  0.00    +0.000 A 
ATOM     33  C   UNL     1      -5.203  11.670  17.725  0.00  0.00    +0.000 A 
ATOM     34  C   UNL     1      -4.406  11.917  18.832  0.00  0.00    +0.000 A 
ATOM     35  C   UNL     1      -3.028  11.718  18.745  0.00  0.00    +0.000 A 
ATOM     36  C   UNL     1      -2.395  11.260  17.568  0.00  0.00    +0.000 A 
BRANCH  31  38
ATOM     37  C   UNL     1      -3.752  10.160  14.270  0.00  0.00    +0.000 C 
ATOM     38  O   UNL     1      -2.840  10.798  15.146  0.00  0.00    +0.000 OA
ENDBRANCH  31  38
ENDBRANCH  29  36
ENDBRANCH   1  29
TORSDOF 9
ENDMDL
MODEL 4
REMARK VINA RESULT:      -8.0      0.945      1.746
REMARK  Name = 
REMARK  13 active torsions:
REMARK  status: ('A' for Active; 'I' for Inactive)
REMARK    1  A    between atoms: C_1  and  O_2
REMARK    2  A    between atoms: O_2  and  C_3
REMARK    3  A    between atoms: C_8  and  N_9
REMARK    4  A    between atoms: N_9  and  N_10
REMARK    5  A    between atoms: C_11  and  C_12
REMARK    6  A    between atoms: C_11  and  C_24
REMARK    7  A    between atoms: C_14  and  O_15
REMARK    8  A    between atoms: O_15  and  C_16
REMARK    9  A    between atoms: C_17  and  O_18
REMARK   10  A    between atoms: O_18  and  C_19
REMARK   11  A    between atoms: C_20  and  O_21
REMARK   12  A    between atoms: O_21  and  C_22
REMARK   13  A    between atoms: C_26  and  C_27
REMARK                            x       y       z     vdW  Elec       q    Type
REMARK                         _______ _______ _______ _____ _____    ______ ____
ROOT
ATOM      1  N   UNL     1       1.685  11.360  18.516  0.00  0.00    +0.000 NA
ATOM      2  C   UNL     1       0.740  10.518  18.816  0.00  0.00    +0.000 C 
ENDROOT
BRANCH   2   3
ATOM      3  C   UNL     1       1.206   9.199  19.434  0.00  0.00    +0.000 A 
ATOM      4  N   UNL     1       2.062   8.507  18.732  0.00  0.00    +0.000 NA
ATOM      5  C   UNL     1       2.480   7.292  19.209  0.00  0.00    +0.000 A 
ATOM      6  N   UNL     1       2.211   6.847  20.400  0.00  0.00    +0.000 NA
ATOM      7  N   UNL     1       1.416   7.597  21.212  0.00  0.00    +0.000 N 
ATOM      8  C   UNL     1       0.739   8.706  20.783  0.00  0.00    +0.000 A 
ATOM      9  O   UNL     1      -0.177   9.226  21.399  0.00  0.00    +0.000 OA
ATOM     10  H   UNL     1       1.150   7.187  22.100  0.00  0.00    +0.000 HD
BRANCH   5  11
ATOM     11  C   UNL     1       3.256   6.440  18.250  0.00  0.00    +0.000 A 
ATOM     12  C   UNL     1       4.212   7.000  17.390  0.00  0.00    +0.000 A 
ATOM     13  C   UNL     1       4.869   6.204  16.448  0.00  0.00    +0.000 A 
ATOM     14  C   UNL     1       4.587   4.842  16.365  0.00  0.00    +0.000 A 
ATOM     15  C   UNL     1       3.644   4.274  17.222  0.00  0.00    +0.000 A 
ATOM     16  C   UNL     1       2.978   5.068  18.160  0.00  0.00    +0.000 A 
ENDBRANCH   5  11
ENDBRANCH   2   3
BRANCH   2  17
ATOM     17  C   UNL     1      -0.722  10.662  18.539  0.00  0.00    +0.000 A 
ATOM     18  C   UNL     1      -1.472  11.563  19.288  0.00  0.00    +0.000 A 
ATOM     19  C   UNL     1      -2.809  11.810  18.984  0.00  0.00    +0.000 A 
ATOM     20  C   UNL     1      -3.397  11.180  17.866  0.00  0.00    +0.000 A 
ATOM     21  C   UNL     1      -2.639  10.279  17.087  0.00  0.00    +0.000 A 
ATOM     22  C   UNL     1      -1.317  10.003  17.459  0.00  0.00    +0.000 A 
BRANCH  19  23
ATOM     23  O   UNL     1      -3.587  12.671  19.722  0.00  0.00    +0.000 OA
ATOM     24  C   UNL     1      -2.959  13.290  20.844  0.00  0.00    +0.000 C 
ENDBRANCH  19  23
BRANCH  20  25
ATOM     25  O   UNL     1      -4.727  11.470  17.659  0.00  0.00    +0.000 OA
ATOM     26  C   UNL     1      -5.665  10.619  18.308  0.00  0.00    +0.000 C 
ENDBRANCH  20  25
BRANCH  21  27
ATOM     27  O   UNL     1      -3.236   9.699  15.998  0.00  0.00    +0.000 OA
ATOM     28  C   UNL     1      -3.077  10.325  14.728  0.00  0.00    +0.000 C 
ENDBRANCH  21  27
ENDBRANCH   2  17
BRANCH   1  29
ATOM     29  N   UNL     1       1.374  12.567  17.958  0.00  0.00    +0.000 N 
ATOM     30  H   UNL     1       0.516  12.625  17.421  0.00  0.00    +0.000 HD
BRANCH  29  36
ATOM     31  C   UNL     1       2.953  14.346  18.713  0.00  0.00    +0.000 A 
ATOM     32  C   UNL     1       3.206  15.425  19.583  0.00  0.00    +0.000 A 
ATOM     33  C   UNL     1       2.229  15.906  20.453  0.00  0.00    +0.000 A 
ATOM     34  C   UNL     1       0.983  15.298  20.475  0.00  0.00    +0.000 A 
ATOM     35  C   UNL     1       0.722  14.233  19.613  0.00  0.00    +0.000 A 
ATOM     36  C   UNL     1       1.677  13.742  18.693  0.00  0.00    +0.000 A 
BRANCH  31  38
ATOM     37  C   UNL     1       5.151  14.870  17.889  0.00  0.00    +0.000 C 
ATOM     38  O   UNL     1       4.095  13.944  18.072  0.00  0.00    +0.000 OA
ENDBRANCH  31  38
ENDBRANCH  29  36
ENDBRANCH   1  29
TORSDOF 9
ENDMDL
MODEL 5
REMARK VINA RESULT:      -8.0      1.785      5.242
REMARK  Name = 
REMARK  13 active torsions:
REMARK  status: ('A' for Active; 'I' for Inactive)
REMARK    1  A    between atoms: C_1  and  O_2
REMARK    2  A    between atoms: O_2  and  C_3
REMARK    3  A    between atoms: C_8  and  N_9
REMARK    4  A    between atoms: N_9  and  N_10
REMARK    5  A    between atoms: C_11  and  C_12
REMARK    6  A    between atoms: C_11  and  C_24
REMARK    7  A    between atoms: C_14  and  O_15
REMARK    8  A    between atoms: O_15  and  C_16
REMARK    9  A    between atoms: C_17  and  O_18
REMARK   10  A    between atoms: O_18  and  C_19
REMARK   11  A    between atoms: C_20  and  O_21
REMARK   12  A    between atoms: O_21  and  C_22
REMARK   13  A    between atoms: C_26  and  C_27
REMARK                            x       y       z     vdW  Elec       q    Type
REMARK                         _______ _______ _______ _____ _____    ______ ____
ROOT
ATOM      1  N   UNL     1      -0.401   9.828  17.957  0.00  0.00    +0.000 NA
ATOM      2  C   UNL     1       0.614  10.057  18.737  0.00  0.00    +0.000 C 
ENDROOT
BRANCH   2   3
ATOM      3  C   UNL     1       1.316   8.814  19.286  0.00  0.00    +0.000 A 
ATOM      4  N   UNL     1       2.164   8.232  18.481  0.00  0.00    +0.000 NA
ATOM      5  C   UNL     1       2.789   7.085  18.897  0.00  0.00    +0.000 A 
ATOM      6  N   UNL     1       2.723   6.619  20.108  0.00  0.00    +0.000 NA
ATOM      7  N   UNL     1       1.942   7.267  21.014  0.00  0.00    +0.000 N 
ATOM      8  C   UNL     1       1.081   8.277  20.677  0.00  0.00    +0.000 A 
ATOM      9  O   UNL     1       0.186   8.680  21.401  0.00  0.00    +0.000 OA
ATOM     10  H   UNL     1       1.838   6.834  21.924  0.00  0.00    +0.000 HD
BRANCH   5  11
ATOM     11  C   UNL     1       3.548   6.332  17.845  0.00  0.00    +0.000 A 
ATOM     12  C   UNL     1       3.445   4.938  17.732  0.00  0.00    +0.000 A 
ATOM     13  C   UNL     1       4.220   4.244  16.799  0.00  0.00    +0.000 A 
ATOM     14  C   UNL     1       5.093   4.937  15.962  0.00  0.00    +0.000 A 
ATOM     15  C   UNL     1       5.196   6.325  16.061  0.00  0.00    +0.000 A 
ATOM     16  C   UNL     1       4.429   7.022  16.999  0.00  0.00    +0.000 A 
ENDBRANCH   5  11
ENDBRANCH   2   3
BRANCH   2  17
ATOM     17  C   UNL     1       1.102  11.384  19.220  0.00  0.00    +0.000 A 
ATOM     18  C   UNL     1       0.667  11.863  20.452  0.00  0.00    +0.000 A 
ATOM     19  C   UNL     1       1.186  13.038  20.990  0.00  0.00    +0.000 A 
ATOM     20  C   UNL     1       2.209  13.726  20.302  0.00  0.00    +0.000 A 
ATOM     21  C   UNL     1       2.671  13.240  19.060  0.00  0.00    +0.000 A 
ATOM     22  C   UNL     1       2.082  12.091  18.517  0.00  0.00    +0.000 A 
BRANCH  19  23
ATOM     23  O   UNL     1       0.757  13.555  22.190  0.00  0.00    +0.000 OA
ATOM     24  C   UNL     1      -0.562  14.101  22.210  0.00  0.00    +0.000 C 
ENDBRANCH  19  23
BRANCH  20  25
ATOM     25  O   UNL     1       2.642  14.887  20.900  0.00  0.00    +0.000 OA
ATOM     26  C   UNL     1       3.842  14.795  21.659  0.00  0.00    +0.000 C 
ENDBRANCH  20  25
BRANCH  21  27
ATOM     27  O   UNL     1       3.678  13.922  18.428  0.00  0.00    +0.000 OA
ATOM     28  C   UNL     1       3.337  15.074  17.663  0.00  0.00    +0.000 C 
ENDBRANCH  21  27
ENDBRANCH   2  17
BRANCH   1  29
ATOM     29  N   UNL     1      -1.097  10.871  17.416  0.00  0.00    +0.000 N 
ATOM     30  H   UNL     1      -0.914  11.101  16.446  0.00  0.00    +0.000 HD
BRANCH  29  36
ATOM     31  C   UNL     1      -3.547  10.530  17.081  0.00  0.00    +0.000 A 
ATOM     32  C   UNL     1      -4.861  10.873  17.457  0.00  0.00    +0.000 A 
ATOM     33  C   UNL     1      -5.114  11.735  18.521  0.00  0.00    +0.000 A 
ATOM     34  C   UNL     1      -4.048  12.283  19.218  0.00  0.00    +0.000 A 
ATOM     35  C   UNL     1      -2.743  11.944  18.857  0.00  0.00    +0.000 A 
ATOM     36  C   UNL     1      -2.451  11.046  17.806  0.00  0.00    +0.000 A 
BRANCH  31  38
ATOM     37  C   UNL     1      -3.389  10.478  14.682  0.00  0.00    +0.000 C 
ATOM     38  O   UNL     1      -3.534   9.804  15.919  0.00  0.00    +0.000 OA
ENDBRANCH  31  38
ENDBRANCH  29  36
ENDBRANCH   1  29
TORSDOF 9
ENDMDL
MODEL 6
REMARK VINA RESULT:      -7.9      1.037      2.690
REMARK  Name = 
REMARK  13 active torsions:
REMARK  status: ('A' for Active; 'I' for Inactive)
REMARK    1  A    between atoms: C_1  and  O_2
REMARK    2  A    between atoms: O_2  and  C_3
REMARK    3  A    between atoms: C_8  and  N_9
REMARK    4  A    between atoms: N_9  and  N_10
REMARK    5  A    between atoms: C_11  and  C_12
REMARK    6  A    between atoms: C_11  and  C_24
REMARK    7  A    between atoms: C_14  and  O_15
REMARK    8  A    between atoms: O_15  and  C_16
REMARK    9  A    between atoms: C_17  and  O_18
REMARK   10  A    between atoms: O_18  and  C_19
REMARK   11  A    between atoms: C_20  and  O_21
REMARK   12  A    between atoms: O_21  and  C_22
REMARK   13  A    between atoms: C_26  and  C_27
REMARK                            x       y       z     vdW  Elec       q    Type
REMARK                         _______ _______ _______ _____ _____    ______ ____
ROOT
ATOM      1  N   UNL     1       1.554  11.742  18.627  0.00  0.00    +0.000 NA
ATOM      2  C   UNL     1       0.594  10.905  18.890  0.00  0.00    +0.000 C 
ENDROOT
BRANCH   2   3
ATOM      3  C   UNL     1       1.022   9.608  19.578  0.00  0.00    +0.000 A 
ATOM      4  N   UNL     1       1.779   8.808  18.876  0.00  0.00    +0.000 NA
ATOM      5  C   UNL     1       2.155   7.608  19.419  0.00  0.00    +0.000 A 
ATOM      6  N   UNL     1       1.949   7.274  20.658  0.00  0.00    +0.000 NA
ATOM      7  N   UNL     1       1.265   8.134  21.460  0.00  0.00    +0.000 N 
ATOM      8  C   UNL     1       0.628   9.251  20.992  0.00  0.00    +0.000 A 
ATOM      9  O   UNL     1      -0.205   9.877  21.626  0.00  0.00    +0.000 OA
ATOM     10  H   UNL     1       1.041   7.812  22.394  0.00  0.00    +0.000 HD
BRANCH   5  11
ATOM     11  C   UNL     1       2.803   6.635  18.479  0.00  0.00    +0.000 A 
ATOM     12  C   UNL     1       2.407   5.290  18.438  0.00  0.00    +0.000 A 
ATOM     13  C   UNL     1       3.075   4.381  17.614  0.00  0.00    +0.000 A 
ATOM     14  C   UNL     1       4.134   4.809  16.814  0.00  0.00    +0.000 A 
ATOM     15  C   UNL     1       4.528   6.147  16.841  0.00  0.00    +0.000 A 
ATOM     16  C   UNL     1       3.868   7.058  17.671  0.00  0.00    +0.000 A 
ENDBRANCH   5  11
ENDBRANCH   2   3
BRANCH   2  17
ATOM     17  C   UNL     1      -0.846  11.033  18.513  0.00  0.00    +0.000 A 
ATOM     18  C   UNL     1      -1.342  10.283  17.451  0.00  0.00    +0.000 A 
ATOM     19  C   UNL     1      -2.700  10.286  17.142  0.00  0.00    +0.000 A 
ATOM     20  C   UNL     1      -3.597  11.016  17.951  0.00  0.00    +0.000 A 
ATOM     21  C   UNL     1      -3.107  11.766  19.043  0.00  0.00    +0.000 A 
ATOM     22  C   UNL     1      -1.729  11.793  19.287  0.00  0.00    +0.000 A 
BRANCH  19  23
ATOM     23  O   UNL     1      -3.218   9.580  16.081  0.00  0.00    +0.000 OA
ATOM     24  C   UNL     1      -2.947  10.101  14.780  0.00  0.00    +0.000 C 
ENDBRANCH  19  23
BRANCH  20  25
ATOM     25  O   UNL     1      -4.914  10.976  17.555  0.00  0.00    +0.000 OA
ATOM     26  C   UNL     1      -5.416  12.145  16.917  0.00  0.00    +0.000 C 
ENDBRANCH  20  25
BRANCH  21  27
ATOM     27  O   UNL     1      -4.008  12.449  19.820  0.00  0.00    +0.000 OA
ATOM     28  C   UNL     1      -3.656  12.732  21.171  0.00  0.00    +0.000 C 
ENDBRANCH  21  27
ENDBRANCH   2  17
BRANCH   1  29
ATOM     29  N   UNL     1       1.277  12.930  18.012  0.00  0.00    +0.000 N 
ATOM     30  H   UNL     1       0.548  12.931  17.308  0.00  0.00    +0.000 HD
BRANCH  29  36
ATOM     31  C   UNL     1       2.529  14.672  19.287  0.00  0.00    +0.000 A 
ATOM     32  C   UNL     1       2.481  15.767  20.173  0.00  0.00    +0.000 A 
ATOM     33  C   UNL     1       1.270  16.309  20.598  0.00  0.00    +0.000 A 
ATOM     34  C   UNL     1       0.083  15.748  20.153  0.00  0.00    +0.000 A 
ATOM     35  C   UNL     1       0.121  14.667  19.271  0.00  0.00    +0.000 A 
ATOM     36  C   UNL     1       1.330  14.115  18.791  0.00  0.00    +0.000 A 
BRANCH  31  38
ATOM     37  C   UNL     1       4.576  14.643  18.025  0.00  0.00    +0.000 C 
ATOM     38  O   UNL     1       3.810  14.210  19.135  0.00  0.00    +0.000 OA
ENDBRANCH  31  38
ENDBRANCH  29  36
ENDBRANCH   1  29
TORSDOF 9
ENDMDL
MODEL 7
REMARK VINA RESULT:      -7.9      1.776      5.218
REMARK  Name = 
REMARK  13 active torsions:
REMARK  status: ('A' for Active; 'I' for Inactive)
REMARK    1  A    between atoms: C_1  and  O_2
REMARK    2  A    between atoms: O_2  and  C_3
REMARK    3  A    between atoms: C_8  and  N_9
REMARK    4  A    between atoms: N_9  and  N_10
REMARK    5  A    between atoms: C_11  and  C_12
REMARK    6  A    between atoms: C_11  and  C_24
REMARK    7  A    between atoms: C_14  and  O_15
REMARK    8  A    between atoms: O_15  and  C_16
REMARK    9  A    between atoms: C_17  and  O_18
REMARK   10  A    between atoms: O_18  and  C_19
REMARK   11  A    between atoms: C_20  and  O_21
REMARK   12  A    between atoms: O_21  and  C_22
REMARK   13  A    between atoms: C_26  and  C_27
REMARK                            x       y       z     vdW  Elec       q    Type
REMARK                         _______ _______ _______ _____ _____    ______ ____
ROOT
ATOM      1  N   UNL     1      -0.488  10.386  18.113  0.00  0.00    +0.000 NA
ATOM      2  C   UNL     1       0.584  10.530  18.835  0.00  0.00    +0.000 C 
ENDROOT
BRANCH   2   3
ATOM      3  C   UNL     1       1.151   9.242  19.434  0.00  0.00    +0.000 A 
ATOM      4  N   UNL     1       1.981   8.574  18.679  0.00  0.00    +0.000 NA
ATOM      5  C   UNL     1       2.485   7.386  19.140  0.00  0.00    +0.000 A 
ATOM      6  N   UNL     1       2.325   6.950  20.353  0.00  0.00    +0.000 NA
ATOM      7  N   UNL     1       1.562   7.679  21.212  0.00  0.00    +0.000 N 
ATOM      8  C   UNL     1       0.807   8.752  20.821  0.00  0.00    +0.000 A 
ATOM      9  O   UNL     1      -0.082   9.243  21.497  0.00  0.00    +0.000 OA
ATOM     10  H   UNL     1       1.380   7.273  22.123  0.00  0.00    +0.000 HD
BRANCH   5  11
ATOM     11  C   UNL     1       3.224   6.552  18.136  0.00  0.00    +0.000 A 
ATOM     12  C   UNL     1       3.001   5.171  18.033  0.00  0.00    +0.000 A 
ATOM     13  C   UNL     1       3.756   4.397  17.148  0.00  0.00    +0.000 A 
ATOM     14  C   UNL     1       4.728   4.996  16.348  0.00  0.00    +0.000 A 
ATOM     15  C   UNL     1       4.950   6.370  16.437  0.00  0.00    +0.000 A 
ATOM     16  C   UNL     1       4.204   7.147  17.328  0.00  0.00    +0.000 A 
ENDBRANCH   5  11
ENDBRANCH   2   3
BRANCH   2  17
ATOM     17  C   UNL     1       1.255  11.810  19.213  0.00  0.00    +0.000 A 
ATOM     18  C   UNL     1       1.016  12.361  20.468  0.00  0.00    +0.000 A 
ATOM     19  C   UNL     1       1.710  13.488  20.901  0.00  0.00    +0.000 A 
ATOM     20  C   UNL     1       2.711  14.049  20.080  0.00  0.00    +0.000 A 
ATOM     21  C   UNL     1       2.975  13.487  18.812  0.00  0.00    +0.000 A 
ATOM     22  C   UNL     1       2.215  12.393  18.380  0.00  0.00    +0.000 A 
BRANCH  19  23
ATOM     23  O   UNL     1       1.476  14.076  22.123  0.00  0.00    +0.000 OA
ATOM     24  C   UNL     1       0.246  14.789  22.259  0.00  0.00    +0.000 C 
ENDBRANCH  19  23
BRANCH  20  25
ATOM     25  O   UNL     1       3.325  15.172  20.583  0.00  0.00    +0.000 OA
ATOM     26  C   UNL     1       4.591  14.974  21.202  0.00  0.00    +0.000 C 
ENDBRANCH  20  25
BRANCH  21  27
ATOM     27  O   UNL     1       3.967  14.044  18.046  0.00  0.00    +0.000 OA
ATOM     28  C   UNL     1       3.720  15.308  17.437  0.00  0.00    +0.000 C 
ENDBRANCH  21  27
ENDBRANCH   2  17
BRANCH   1  29
ATOM     29  N   UNL     1      -1.073  11.476  17.534  0.00  0.00    +0.000 N 
ATOM     30  H   UNL     1      -0.678  11.811  16.663  0.00  0.00    +0.000 HD
BRANCH  29  36
ATOM     31  C   UNL     1      -3.180  11.907  18.801  0.00  0.00    +0.000 A 
ATOM     32  C   UNL     1      -4.588  11.865  18.824  0.00  0.00    +0.000 A 
ATOM     33  C   UNL     1      -5.325  11.498  17.700  0.00  0.00    +0.000 A 
ATOM     34  C   UNL     1      -4.658  11.151  16.536  0.00  0.00    +0.000 A 
ATOM     35  C   UNL     1      -3.264  11.196  16.502  0.00  0.00    +0.000 A 
ATOM     36  C   UNL     1      -2.486  11.597  17.612  0.00  0.00    +0.000 A 
BRANCH  31  38
ATOM     37  C   UNL     1      -2.612  13.462  20.547  0.00  0.00    +0.000 C 
ATOM     38  O   UNL     1      -2.668  12.136  20.051  0.00  0.00    +0.000 OA
ENDBRANCH  31  38
ENDBRANCH  29  36
ENDBRANCH   1  29
TORSDOF 9
ENDMDL
MODEL 8
REMARK VINA RESULT:      -7.8      1.667      5.340
REMARK  Name = 
REMARK  13 active torsions:
REMARK  status: ('A' for Active; 'I' for Inactive)
REMARK    1  A    between atoms: C_1  and  O_2
REMARK    2  A    between atoms: O_2  and  C_3
REMARK    3  A    between atoms: C_8  and  N_9
REMARK    4  A    between atoms: N_9  and  N_10
REMARK    5  A    between atoms: C_11  and  C_12
REMARK    6  A    between atoms: C_11  and  C_24
REMARK    7  A    between atoms: C_14  and  O_15
REMARK    8  A    between atoms: O_15  and  C_16
REMARK    9  A    between atoms: C_17  and  O_18
REMARK   10  A    between atoms: O_18  and  C_19
REMARK   11  A    between atoms: C_20  and  O_21
REMARK   12  A    between atoms: O_21  and  C_22
REMARK   13  A    between atoms: C_26  and  C_27
REMARK                            x       y       z     vdW  Elec       q    Type
REMARK                         _______ _______ _______ _____ _____    ______ ____
ROOT
ATOM      1  N   UNL     1      -0.381  10.141  18.110  0.00  0.00    +0.000 NA
ATOM      2  C   UNL     1       0.516  10.267  19.043  0.00  0.00    +0.000 C 
ENDROOT
BRANCH   2   3
ATOM      3  C   UNL     1       1.117   8.958  19.559  0.00  0.00    +0.000 A 
ATOM      4  N   UNL     1       2.027   8.407  18.802  0.00  0.00    +0.000 NA
ATOM      5  C   UNL     1       2.568   7.208  19.186  0.00  0.00    +0.000 A 
ATOM      6  N   UNL     1       2.360   6.653  20.342  0.00  0.00    +0.000 NA
ATOM      7  N   UNL     1       1.506   7.259  21.212  0.00  0.00    +0.000 N 
ATOM      8  C   UNL     1       0.718   8.324  20.871  0.00  0.00    +0.000 A 
ATOM      9  O   UNL     1      -0.236   8.705  21.528  0.00  0.00    +0.000 OA
ATOM     10  H   UNL     1       1.293   6.760  22.068  0.00  0.00    +0.000 HD
BRANCH   5  11
ATOM     11  C   UNL     1       3.411   6.509  18.161  0.00  0.00    +0.000 A 
ATOM     12  C   UNL     1       4.226   7.230  17.276  0.00  0.00    +0.000 A 
ATOM     13  C   UNL     1       4.943   6.568  16.276  0.00  0.00    +0.000 A 
ATOM     14  C   UNL     1       4.865   5.181  16.161  0.00  0.00    +0.000 A 
ATOM     15  C   UNL     1       4.064   4.454  17.043  0.00  0.00    +0.000 A 
ATOM     16  C   UNL     1       3.338   5.114  18.039  0.00  0.00    +0.000 A 
ENDBRANCH   5  11
ENDBRANCH   2   3
BRANCH   2  17
ATOM     17  C   UNL     1       0.948  11.528  19.719  0.00  0.00    +0.000 A 
ATOM     18  C   UNL     1       1.983  12.277  19.168  0.00  0.00    +0.000 A 
ATOM     19  C   UNL     1       2.336  13.514  19.702  0.00  0.00    +0.000 A 
ATOM     20  C   UNL     1       1.599  14.043  20.783  0.00  0.00    +0.000 A 
ATOM     21  C   UNL     1       0.534  13.300  21.337  0.00  0.00    +0.000 A 
ATOM     22  C   UNL     1       0.246  12.031  20.819  0.00  0.00    +0.000 A 
BRANCH  19  23
ATOM     23  O   UNL     1       3.373  14.265  19.201  0.00  0.00    +0.000 OA
ATOM     24  C   UNL     1       3.177  14.834  17.906  0.00  0.00    +0.000 C 
ENDBRANCH  19  23
BRANCH  20  25
ATOM     25  O   UNL     1       2.036  15.259  21.255  0.00  0.00    +0.000 OA
ATOM     26  C   UNL     1       1.321  16.404  20.803  0.00  0.00    +0.000 C 
ENDBRANCH  20  25
BRANCH  21  27
ATOM     27  O   UNL     1      -0.174  13.851  22.374  0.00  0.00    +0.000 OA
ATOM     28  C   UNL     1      -1.527  14.233  22.141  0.00  0.00    +0.000 C 
ENDBRANCH  21  27
ENDBRANCH   2  17
BRANCH   1  29
ATOM     29  N   UNL     1      -0.979  11.249  17.583  0.00  0.00    +0.000 N 
ATOM     30  H   UNL     1      -0.605  11.613  16.714  0.00  0.00    +0.000 HD
BRANCH  29  36
ATOM     31  C   UNL     1      -3.274  11.304  16.601  0.00  0.00    +0.000 A 
ATOM     32  C   UNL     1      -4.644  11.577  16.786  0.00  0.00    +0.000 A 
ATOM     33  C   UNL     1      -5.155  11.936  18.031  0.00  0.00    +0.000 A 
ATOM     34  C   UNL     1      -4.293  12.043  19.112  0.00  0.00    +0.000 A 
ATOM     35  C   UNL     1      -2.936  11.768  18.940  0.00  0.00    +0.000 A 
ATOM     36  C   UNL     1      -2.389  11.368  17.700  0.00  0.00    +0.000 A 
BRANCH  31  38
ATOM     37  C   UNL     1      -3.152   9.857  14.684  0.00  0.00    +0.000 C 
ATOM     38  O   UNL     1      -2.974  11.132  15.275  0.00  0.00    +0.000 OA
ENDBRANCH  31  38
ENDBRANCH  29  36
ENDBRANCH   1  29
TORSDOF 9
ENDMDL
MODEL 9
REMARK VINA RESULT:      -7.8      1.631      5.331
REMARK  Name = 
REMARK  13 active torsions:
REMARK  status: ('A' for Active; 'I' for Inactive)
REMARK    1  A    between atoms: C_1  and  O_2
REMARK    2  A    between atoms: O_2  and  C_3
REMARK    3  A    between atoms: C_8  and  N_9
REMARK    4  A    between atoms: N_9  and  N_10
REMARK    5  A    between atoms: C_11  and  C_12
REMARK    6  A    between atoms: C_11  and  C_24
REMARK    7  A    between atoms: C_14  and  O_15
REMARK    8  A    between atoms: O_15  and  C_16
REMARK    9  A    between atoms: C_17  and  O_18
REMARK   10  A    between atoms: O_18  and  C_19
REMARK   11  A    between atoms: C_20  and  O_21
REMARK   12  A    between atoms: O_21  and  C_22
REMARK   13  A    between atoms: C_26  and  C_27
REMARK                            x       y       z     vdW  Elec       q    Type
REMARK                         _______ _______ _______ _____ _____    ______ ____
ROOT
ATOM      1  N   UNL     1      -0.439  10.354  18.132  0.00  0.00    +0.000 NA
ATOM      2  C   UNL     1       0.609  10.481  18.891  0.00  0.00    +0.000 C 
ENDROOT
BRANCH   2   3
ATOM      3  C   UNL     1       1.175   9.177  19.456  0.00  0.00    +0.000 A 
ATOM      4  N   UNL     1       2.020   8.539  18.690  0.00  0.00    +0.000 NA
ATOM      5  C   UNL     1       2.524   7.339  19.119  0.00  0.00    +0.000 A 
ATOM      6  N   UNL     1       2.350   6.863  20.315  0.00  0.00    +0.000 NA
ATOM      7  N   UNL     1       1.570   7.559  21.187  0.00  0.00    +0.000 N 
ATOM      8  C   UNL     1       0.815   8.640  20.821  0.00  0.00    +0.000 A 
ATOM      9  O   UNL     1      -0.086   9.103  21.499  0.00  0.00    +0.000 OA
ATOM     10  H   UNL     1       1.378   7.121  22.081  0.00  0.00    +0.000 HD
BRANCH   5  11
ATOM     11  C   UNL     1       3.282   6.543  18.099  0.00  0.00    +0.000 A 
ATOM     12  C   UNL     1       3.119   5.154  17.994  0.00  0.00    +0.000 A 
ATOM     13  C   UNL     1       3.892   4.417  17.092  0.00  0.00    +0.000 A 
ATOM     14  C   UNL     1       4.822   5.062  16.278  0.00  0.00    +0.000 A 
ATOM     15  C   UNL     1       4.984   6.445  16.369  0.00  0.00    +0.000 A 
ATOM     16  C   UNL     1       4.220   7.184  17.276  0.00  0.00    +0.000 A 
ENDBRANCH   5  11
ENDBRANCH   2   3
BRANCH   2  17
ATOM     17  C   UNL     1       1.253  11.753  19.340  0.00  0.00    +0.000 A 
ATOM     18  C   UNL     1       2.018  12.486  18.438  0.00  0.00    +0.000 A 
ATOM     19  C   UNL     1       2.537  13.732  18.783  0.00  0.00    +0.000 A 
ATOM     20  C   UNL     1       2.237  14.286  20.045  0.00  0.00    +0.000 A 
ATOM     21  C   UNL     1       1.446  13.559  20.962  0.00  0.00    +0.000 A 
ATOM     22  C   UNL     1       0.994  12.282  20.608  0.00  0.00    +0.000 A 
BRANCH  19  23
ATOM     23  O   UNL     1       3.321  14.468  17.926  0.00  0.00    +0.000 OA
ATOM     24  C   UNL     1       4.734  14.316  18.071  0.00  0.00    +0.000 C 
ENDBRANCH  19  23
BRANCH  20  25
ATOM     25  O   UNL     1       2.812  15.509  20.303  0.00  0.00    +0.000 OA
ATOM     26  C   UNL     1       1.991  16.650  20.081  0.00  0.00    +0.000 C 
ENDBRANCH  20  25
BRANCH  21  27
ATOM     27  O   UNL     1       1.158  14.135  22.173  0.00  0.00    +0.000 OA
ATOM     28  C   UNL     1      -0.190  14.509  22.440  0.00  0.00    +0.000 C 
ENDBRANCH  21  27
ENDBRANCH   2  17
BRANCH   1  29
ATOM     29  N   UNL     1      -1.021  11.459  17.579  0.00  0.00    +0.000 N 
ATOM     30  H   UNL     1      -0.661  11.780  16.688  0.00  0.00    +0.000 HD
BRANCH  29  36
ATOM     31  C   UNL     1      -3.042  12.013  18.936  0.00  0.00    +0.000 A 
ATOM     32  C   UNL     1      -4.447  12.008  19.039  0.00  0.00    +0.000 A 
ATOM     33  C   UNL     1      -5.255  11.602  17.979  0.00  0.00    +0.000 A 
ATOM     34  C   UNL     1      -4.663  11.176  16.800  0.00  0.00    +0.000 A 
ATOM     35  C   UNL     1      -3.272  11.182  16.687  0.00  0.00    +0.000 A 
ATOM     36  C   UNL     1      -2.423  11.621  17.728  0.00  0.00    +0.000 A 
BRANCH  31  38
ATOM     37  C   UNL     1      -3.259  12.737  21.219  0.00  0.00    +0.000 C 
ATOM     38  O   UNL     1      -2.454  12.293  20.141  0.00  0.00    +0.000 OA
ENDBRANCH  31  38
ENDBRANCH  29  36
ENDBRANCH   1  29
TORSDOF 9
ENDMDL
