MODEL 1
REMARK VINA RESULT:      -7.2      0.000      0.000
REMARK  Name = 
REMARK  7 active torsions:
REMARK  status: ('A' for Active; 'I' for Inactive)
REMARK    1  A    between atoms: C_1  and  O_2
REMARK    2  A    between atoms: O_2  and  C_3
REMARK    3  A    between atoms: C_6  and  C_7
REMARK    4  A    between atoms: C_7  and  N_8
REMARK    5  A    between atoms: C_11  and  N_12
REMARK    6  A    between atoms: C_18  and  C_19
REMARK    7  A    between atoms: N_20  and  O_21
REMARK                            x       y       z     vdW  Elec       q    Type
REMARK                         _______ _______ _______ _____ _____    ______ ____
ROOT
ATOM      1  N   UNL     1       2.149   7.086  18.716  0.00  0.00    +0.000 N 
ATOM      2  N   UNL     1       2.050   7.948  17.651  0.00  0.00    +0.000 NA
ATOM      3  C   UNL     1       1.609   9.137  17.905  0.00  0.00    +0.000 A 
ATOM      4  C   UNL     1       1.143   9.669  19.217  0.00  0.00    +0.000 A 
ATOM      5  C   UNL     1       1.249   8.783  20.225  0.00  0.00    +0.000 A 
ATOM      6  C   UNL     1       1.861   7.443  20.029  0.00  0.00    +0.000 A 
ATOM      7  O   UNL     1       2.067   6.690  20.980  0.00  0.00    +0.000 OA
ENDROOT
BRANCH   4   8
ATOM      8  N   UNL     1       0.694  10.992  19.235  0.00  0.00    +0.000 N 
ATOM      9  C   UNL     1      -0.738  11.350  19.230  0.00  0.00    +0.000 C 
ATOM     10  C   UNL     1      -0.970  12.540  18.288  0.00  0.00    +0.000 C 
ATOM     11  O   UNL     1      -0.158  13.666  18.660  0.00  0.00    +0.000 OA
ATOM     12  C   UNL     1       1.236  13.320  18.619  0.00  0.00    +0.000 C 
ATOM     13  C   UNL     1       1.556  12.150  19.566  0.00  0.00    +0.000 C 
ENDBRANCH   4   8
BRANCH   5  14
ATOM     14  C   UNL     1       0.609   9.146  21.508  0.00  0.00    +0.000 C 
ATOM     15  N   UNL     1       1.219   9.669  22.521  0.00  0.00    +0.000 NA
BRANCH  15  16
ATOM     16  O   UNL     1       0.308   9.835  23.569  0.00  0.00    +0.000 OA
ATOM     17  H   UNL     1      -0.312  10.490  23.195  0.00  0.00    +0.000 HD
ENDBRANCH  15  16
ENDBRANCH   5  14
BRANCH   1  18
ATOM     18  C   UNL     1       2.586   5.723  18.428  0.00  0.00    +0.000 C 
BRANCH  18  22
ATOM     19  C   UNL     1       6.247   5.642  16.113  0.00  0.00    +0.000 A 
ATOM     20  C   UNL     1       5.325   4.599  16.013  0.00  0.00    +0.000 A 
ATOM     21  C   UNL     1       4.138   4.624  16.752  0.00  0.00    +0.000 A 
ATOM     22  C   UNL     1       3.861   5.693  17.614  0.00  0.00    +0.000 A 
ATOM     23  C   UNL     1       4.807   6.722  17.732  0.00  0.00    +0.000 A 
ATOM     24  C   UNL     1       5.989   6.699  16.985  0.00  0.00    +0.000 A 
BRANCH  19  26
ATOM     25  C   UNL     1       7.192   4.879  14.088  0.00  0.00    +0.000 C 
ATOM     26  O   UNL     1       7.377   5.505  15.353  0.00  0.00    +0.000 OA
ENDBRANCH  19  26
ENDBRANCH  18  22
ENDBRANCH   1  18
TORSDOF 6
ENDMDL
MODEL 2
REMARK VINA RESULT:      -7.1      0.527      1.130
REMARK  Name = 
REMARK  7 active torsions:
REMARK  status: ('A' for Active; 'I' for Inactive)
REMARK    1  A    between atoms: C_1  and  O_2
REMARK    2  A    between atoms: O_2  and  C_3
REMARK    3  A    between atoms: C_6  and  C_7
REMARK    4  A    between atoms: C_7  and  N_8
REMARK    5  A    between atoms: C_11  and  N_12
REMARK    6  A    between atoms: C_18  and  C_19
REMARK    7  A    between atoms: N_20  and  O_21
REMARK                            x       y       z     vdW  Elec       q    Type
REMARK                         _______ _______ _______ _____ _____    ______ ____
ROOT
ATOM      1  N   UNL     1       2.146   7.002  18.720  0.00  0.00    +0.000 N 
ATOM      2  N   UNL     1       2.029   7.886  17.675  0.00  0.00    +0.000 NA
ATOM      3  C   UNL     1       1.599   9.072  17.962  0.00  0.00    +0.000 A 
ATOM      4  C   UNL     1       1.164   9.579  19.296  0.00  0.00    +0.000 A 
ATOM      5  C   UNL     1       1.288   8.672  20.282  0.00  0.00    +0.000 A 
ATOM      6  C   UNL     1       1.889   7.333  20.046  0.00  0.00    +0.000 A 
ATOM      7  O   UNL     1       2.111   6.560  20.977  0.00  0.00    +0.000 OA
ENDROOT
BRANCH   4   8
ATOM      8  N   UNL     1       0.722  10.903  19.350  0.00  0.00    +0.000 N 
ATOM      9  C   UNL     1       1.643  12.056  19.290  0.00  0.00    +0.000 C 
ATOM     10  C   UNL     1       1.205  13.122  20.303  0.00  0.00    +0.000 C 
ATOM     11  O   UNL     1      -0.153  13.534  20.073  0.00  0.00    +0.000 OA
ATOM     12  C   UNL     1      -1.047  12.413  20.178  0.00  0.00    +0.000 C 
ATOM     13  C   UNL     1      -0.690  11.309  19.167  0.00  0.00    +0.000 C 
ENDBRANCH   4   8
BRANCH   5  14
ATOM     14  C   UNL     1       0.677   9.011  21.586  0.00  0.00    +0.000 C 
ATOM     15  N   UNL     1       1.286   9.604  22.560  0.00  0.00    +0.000 NA
BRANCH  15  16
ATOM     16  O   UNL     1       0.411   9.720  23.645  0.00  0.00    +0.000 OA
ATOM     17  H   UNL     1      -0.281  10.307  23.284  0.00  0.00    +0.000 HD
ENDBRANCH  15  16
ENDBRANCH   5  14
BRANCH   1  18
ATOM     18  C   UNL     1       2.571   5.644  18.395  0.00  0.00    +0.000 C 
BRANCH  18  22
ATOM     19  C   UNL     1       6.245   5.593  16.099  0.00  0.00    +0.000 A 
ATOM     20  C   UNL     1       5.375   4.501  16.065  0.00  0.00    +0.000 A 
ATOM     21  C   UNL     1       4.183   4.516  16.797  0.00  0.00    +0.000 A 
ATOM     22  C   UNL     1       3.851   5.624  17.588  0.00  0.00    +0.000 A 
ATOM     23  C   UNL     1       4.745   6.702  17.642  0.00  0.00    +0.000 A 
ATOM     24  C   UNL     1       5.931   6.689  16.902  0.00  0.00    +0.000 A 
BRANCH  19  26
ATOM     25  C   UNL     1       7.214   4.857  14.076  0.00  0.00    +0.000 C 
ATOM     26  O   UNL     1       7.384   5.462  15.353  0.00  0.00    +0.000 OA
ENDBRANCH  19  26
ENDBRANCH  18  22
ENDBRANCH   1  18
TORSDOF 6
ENDMDL
MODEL 3
REMARK VINA RESULT:      -6.9      2.750      7.715
REMARK  Name = 
REMARK  7 active torsions:
REMARK  status: ('A' for Active; 'I' for Inactive)
REMARK    1  A    between atoms: C_1  and  O_2
REMARK    2  A    between atoms: O_2  and  C_3
REMARK    3  A    between atoms: C_6  and  C_7
REMARK    4  A    between atoms: C_7  and  N_8
REMARK    5  A    between atoms: C_11  and  N_12
REMARK    6  A    between atoms: C_18  and  C_19
REMARK    7  A    between atoms: N_20  and  O_21
REMARK                            x       y       z     vdW  Elec       q    Type
REMARK                         _______ _______ _______ _____ _____    ______ ____
ROOT
ATOM      1  N   UNL     1       1.889   8.407  19.280  0.00  0.00    +0.000 N 
ATOM      2  N   UNL     1       2.463   8.117  18.066  0.00  0.00    +0.000 NA
ATOM      3  C   UNL     1       2.798   6.884  17.861  0.00  0.00    +0.000 A 
ATOM      4  C   UNL     1       2.681   5.744  18.816  0.00  0.00    +0.000 A 
ATOM      5  C   UNL     1       2.125   6.083  19.993  0.00  0.00    +0.000 A 
ATOM      6  C   UNL     1       1.605   7.452  20.250  0.00  0.00    +0.000 A 
ATOM      7  O   UNL     1       0.987   7.717  21.280  0.00  0.00    +0.000 OA
ENDROOT
BRANCH   4   8
ATOM      8  N   UNL     1       3.128   4.499  18.365  0.00  0.00    +0.000 N 
ATOM      9  C   UNL     1       2.420   3.725  17.326  0.00  0.00    +0.000 C 
ATOM     10  C   UNL     1       2.395   2.240  17.716  0.00  0.00    +0.000 C 
ATOM     11  O   UNL     1       3.724   1.732  17.922  0.00  0.00    +0.000 OA
ATOM     12  C   UNL     1       4.389   2.464  18.966  0.00  0.00    +0.000 C 
ATOM     13  C   UNL     1       4.482   3.963  18.633  0.00  0.00    +0.000 C 
ENDBRANCH   4   8
BRANCH   5  14
ATOM     14  C   UNL     1       2.172   5.074  21.074  0.00  0.00    +0.000 C 
ATOM     15  N   UNL     1       1.586   3.922  21.040  0.00  0.00    +0.000 NA
BRANCH  15  16
ATOM     16  O   UNL     1       1.815   3.256  22.250  0.00  0.00    +0.000 OA
ATOM     17  H   UNL     1       2.672   3.634  22.528  0.00  0.00    +0.000 HD
ENDBRANCH  15  16
ENDBRANCH   5  14
BRANCH   1  18
ATOM     18  C   UNL     1       1.565   9.806  19.542  0.00  0.00    +0.000 C 
BRANCH  18  22
ATOM     19  C   UNL     1      -2.394  10.876  18.148  0.00  0.00    +0.000 A 
ATOM     20  C   UNL     1      -1.592  10.010  17.402  0.00  0.00    +0.000 A 
ATOM     21  C   UNL     1      -0.317   9.655  17.851  0.00  0.00    +0.000 A 
ATOM     22  C   UNL     1       0.182  10.174  19.054  0.00  0.00    +0.000 A 
ATOM     23  C   UNL     1      -0.617  11.067  19.782  0.00  0.00    +0.000 A 
ATOM     24  C   UNL     1      -1.896  11.414  19.335  0.00  0.00    +0.000 A 
BRANCH  19  26
ATOM     25  C   UNL     1      -3.699  11.056  16.189  0.00  0.00    +0.000 C 
ATOM     26  O   UNL     1      -3.618  11.161  17.605  0.00  0.00    +0.000 OA
ENDBRANCH  19  26
ENDBRANCH  18  22
ENDBRANCH   1  18
TORSDOF 6
ENDMDL
MODEL 4
REMARK VINA RESULT:      -6.8      2.176      7.673
REMARK  Name = 
REMARK  7 active torsions:
REMARK  status: ('A' for Active; 'I' for Inactive)
REMARK    1  A    between atoms: C_1  and  O_2
REMARK    2  A    between atoms: O_2  and  C_3
REMARK    3  A    between atoms: C_6  and  C_7
REMARK    4  A    between atoms: C_7  and  N_8
REMARK    5  A    between atoms: C_11  and  N_12
REMARK    6  A    between atoms: C_18  and  C_19
REMARK    7  A    between atoms: N_20  and  O_21
REMARK                            x       y       z     vdW  Elec       q    Type
REMARK                         _______ _______ _______ _____ _____    ______ ____
ROOT
ATOM      1  N   UNL     1       1.519   9.188  19.436  0.00  0.00    +0.000 N 
ATOM      2  N   UNL     1       2.045   9.199  18.167  0.00  0.00    +0.000 NA
ATOM      3  C   UNL     1       2.557   8.090  17.741  0.00  0.00    +0.000 A 
ATOM      4  C   UNL     1       2.690   6.807  18.489  0.00  0.00    +0.000 A 
ATOM      5  C   UNL     1       2.170   6.853  19.730  0.00  0.00    +0.000 A 
ATOM      6  C   UNL     1       1.458   8.054  20.239  0.00  0.00    +0.000 A 
ATOM      7  O   UNL     1       0.880   8.041  21.324  0.00  0.00    +0.000 OA
ENDROOT
BRANCH   4   8
ATOM      8  N   UNL     1       3.297   5.746  17.814  0.00  0.00    +0.000 N 
ATOM      9  C   UNL     1       2.573   4.511  17.451  0.00  0.00    +0.000 C 
ATOM     10  C   UNL     1       3.467   3.292  17.713  0.00  0.00    +0.000 C 
ATOM     11  O   UNL     1       4.708   3.391  16.995  0.00  0.00    +0.000 OA
ATOM     12  C   UNL     1       5.426   4.573  17.388  0.00  0.00    +0.000 C 
ATOM     13  C   UNL     1       4.605   5.847  17.126  0.00  0.00    +0.000 C 
ENDBRANCH   4   8
BRANCH   5  14
ATOM     14  C   UNL     1       2.453   5.704  20.619  0.00  0.00    +0.000 C 
ATOM     15  N   UNL     1       1.647   4.718  20.837  0.00  0.00    +0.000 NA
BRANCH  15  16
ATOM     16  O   UNL     1       2.231   3.844  21.761  0.00  0.00    +0.000 OA
ATOM     17  H   UNL     1       2.139   4.343  22.595  0.00  0.00    +0.000 HD
ENDBRANCH  15  16
ENDBRANCH   5  14
BRANCH   1  18
ATOM     18  C   UNL     1       0.995  10.452  19.947  0.00  0.00    +0.000 C 
BRANCH  18  22
ATOM     19  C   UNL     1      -2.940  11.363  18.381  0.00  0.00    +0.000 A 
ATOM     20  C   UNL     1      -2.196  10.306  17.852  0.00  0.00    +0.000 A 
ATOM     21  C   UNL     1      -0.928  10.002  18.360  0.00  0.00    +0.000 A 
ATOM     22  C   UNL     1      -0.380  10.763  19.400  0.00  0.00    +0.000 A 
ATOM     23  C   UNL     1      -1.120  11.842  19.905  0.00  0.00    +0.000 A 
ATOM     24  C   UNL     1      -2.391  12.138  19.402  0.00  0.00    +0.000 A 
BRANCH  19  26
ATOM     25  C   UNL     1      -4.217  11.344  16.395  0.00  0.00    +0.000 C 
ATOM     26  O   UNL     1      -4.160  11.574  17.799  0.00  0.00    +0.000 OA
ENDBRANCH  19  26
ENDBRANCH  18  22
ENDBRANCH   1  18
TORSDOF 6
ENDMDL
MODEL 5
REMARK VINA RESULT:      -6.8      1.392      1.765
REMARK  Name = 
REMARK  7 active torsions:
REMARK  status: ('A' for Active; 'I' for Inactive)
REMARK    1  A    between atoms: C_1  and  O_2
REMARK    2  A    between atoms: O_2  and  C_3
REMARK    3  A    between atoms: C_6  and  C_7
REMARK    4  A    between atoms: C_7  and  N_8
REMARK    5  A    between atoms: C_11  and  N_12
REMARK    6  A    between atoms: C_18  and  C_19
REMARK    7  A    between atoms: N_20  and  O_21
REMARK                            x       y       z     vdW  Elec       q    Type
REMARK                         _______ _______ _______ _____ _____    ______ ____
ROOT
ATOM      1  N   UNL     1       1.966   7.813  18.538  0.00  0.00    +0.000 N 
ATOM      2  N   UNL     1       2.035   8.827  17.613  0.00  0.00    +0.000 NA
ATOM      3  C   UNL     1       1.687  10.006  18.016  0.00  0.00    +0.000 A 
ATOM      4  C   UNL     1       1.165  10.386  19.360  0.00  0.00    +0.000 A 
ATOM      5  C   UNL     1       1.105   9.356  20.224  0.00  0.00    +0.000 A 
ATOM      6  C   UNL     1       1.605   8.003  19.868  0.00  0.00    +0.000 A 
ATOM      7  O   UNL     1       1.661   7.102  20.704  0.00  0.00    +0.000 OA
ENDROOT
BRANCH   4   8
ATOM      8  N   UNL     1       0.840  11.731  19.550  0.00  0.00    +0.000 N 
ATOM      9  C   UNL     1      -0.491  12.284  19.232  0.00  0.00    +0.000 C 
ATOM     10  C   UNL     1      -0.334  13.653  18.554  0.00  0.00    +0.000 C 
ATOM     11  O   UNL     1       0.418  14.560  19.377  0.00  0.00    +0.000 OA
ATOM     12  C   UNL     1       1.728  14.032  19.644  0.00  0.00    +0.000 C 
ATOM     13  C   UNL     1       1.655  12.670  20.355  0.00  0.00    +0.000 C 
ENDBRANCH   4   8
BRANCH   5  14
ATOM     14  C   UNL     1       0.397   9.592  21.501  0.00  0.00    +0.000 C 
ATOM     15  N   UNL     1       0.970   9.846  22.632  0.00  0.00    +0.000 NA
BRANCH  15  16
ATOM     16  O   UNL     1      -0.010   9.969  23.624  0.00  0.00    +0.000 OA
ATOM     17  H   UNL     1       0.148  10.875  23.951  0.00  0.00    +0.000 HD
ENDBRANCH  15  16
ENDBRANCH   5  14
BRANCH   1  18
ATOM     18  C   UNL     1       2.299   6.469  18.074  0.00  0.00    +0.000 C 
BRANCH  18  22
ATOM     19  C   UNL     1       6.563   5.716  18.214  0.00  0.00    +0.000 A 
ATOM     20  C   UNL     1       5.719   5.190  19.195  0.00  0.00    +0.000 A 
ATOM     21  C   UNL     1       4.341   5.423  19.150  0.00  0.00    +0.000 A 
ATOM     22  C   UNL     1       3.786   6.200  18.125  0.00  0.00    +0.000 A 
ATOM     23  C   UNL     1       4.643   6.751  17.161  0.00  0.00    +0.000 A 
ATOM     24  C   UNL     1       6.020   6.509  17.203  0.00  0.00    +0.000 A 
BRANCH  19  26
ATOM     25  C   UNL     1       8.377   5.467  19.704  0.00  0.00    +0.000 C 
ATOM     26  O   UNL     1       7.893   5.432  18.366  0.00  0.00    +0.000 OA
ENDBRANCH  19  26
ENDBRANCH  18  22
ENDBRANCH   1  18
TORSDOF 6
ENDMDL
MODEL 6
REMARK VINA RESULT:      -6.7      2.280      7.450
REMARK  Name = 
REMARK  7 active torsions:
REMARK  status: ('A' for Active; 'I' for Inactive)
REMARK    1  A    between atoms: C_1  and  O_2
REMARK    2  A    between atoms: O_2  and  C_3
REMARK    3  A    between atoms: C_6  and  C_7
REMARK    4  A    between atoms: C_7  and  N_8
REMARK    5  A    between atoms: C_11  and  N_12
REMARK    6  A    between atoms: C_18  and  C_19
REMARK    7  A    between atoms: N_20  and  O_21
REMARK                            x       y       z     vdW  Elec       q    Type
REMARK                         _______ _______ _______ _____ _____    ______ ____
ROOT
ATOM      1  N   UNL     1       1.487   8.908  19.490  0.00  0.00    +0.000 N 
ATOM      2  N   UNL     1       2.242   8.919  18.342  0.00  0.00    +0.000 NA
ATOM      3  C   UNL     1       2.891   7.835  18.064  0.00  0.00    +0.000 A 
ATOM      4  C   UNL     1       2.957   6.585  18.875  0.00  0.00    +0.000 A 
ATOM      5  C   UNL     1       2.210   6.630  19.994  0.00  0.00    +0.000 A 
ATOM      6  C   UNL     1       1.344   7.796  20.312  0.00  0.00    +0.000 A 
ATOM      7  O   UNL     1       0.572   7.775  21.270  0.00  0.00    +0.000 OA
ENDROOT
BRANCH   4   8
ATOM      8  N   UNL     1       3.743   5.548  18.367  0.00  0.00    +0.000 N 
ATOM      9  C   UNL     1       5.101   5.256  18.867  0.00  0.00    +0.000 C 
ATOM     10  C   UNL     1       6.029   4.936  17.687  0.00  0.00    +0.000 C 
ATOM     11  O   UNL     1       5.520   3.841  16.907  0.00  0.00    +0.000 OA
ATOM     12  C   UNL     1       4.217   4.152  16.387  0.00  0.00    +0.000 C 
ATOM     13  C   UNL     1       3.217   4.456  17.516  0.00  0.00    +0.000 C 
ENDBRANCH   4   8
BRANCH   5  14
ATOM     14  C   UNL     1       2.388   5.528  20.964  0.00  0.00    +0.000 C 
ATOM     15  N   UNL     1       1.771   4.394  20.921  0.00  0.00    +0.000 NA
BRANCH  15  16
ATOM     16  O   UNL     1       2.157   3.620  22.021  0.00  0.00    +0.000 OA
ATOM     17  H   UNL     1       2.072   4.257  22.755  0.00  0.00    +0.000 HD
ENDBRANCH  15  16
ENDBRANCH   5  14
BRANCH   1  18
ATOM     18  C   UNL     1       0.802  10.148  19.844  0.00  0.00    +0.000 C 
BRANCH  18  22
ATOM     19  C   UNL     1      -2.468  11.050  17.149  0.00  0.00    +0.000 A 
ATOM     20  C   UNL     1      -1.740   9.867  17.006  0.00  0.00    +0.000 A 
ATOM     21  C   UNL     1      -0.689   9.567  17.878  0.00  0.00    +0.000 A 
ATOM     22  C   UNL     1      -0.342  10.457  18.903  0.00  0.00    +0.000 A 
ATOM     23  C   UNL     1      -1.057  11.657  19.021  0.00  0.00    +0.000 A 
ATOM     24  C   UNL     1      -2.114  11.950  18.153  0.00  0.00    +0.000 A 
BRANCH  19  26
ATOM     25  C   UNL     1      -3.309  10.546  15.001  0.00  0.00    +0.000 C 
ATOM     26  O   UNL     1      -3.466  11.243  16.232  0.00  0.00    +0.000 OA
ENDBRANCH  19  26
ENDBRANCH  18  22
ENDBRANCH   1  18
TORSDOF 6
ENDMDL
MODEL 7
REMARK VINA RESULT:      -6.7      5.216      6.730
REMARK  Name = 
REMARK  7 active torsions:
REMARK  status: ('A' for Active; 'I' for Inactive)
REMARK    1  A    between atoms: C_1  and  O_2
REMARK    2  A    between atoms: O_2  and  C_3
REMARK    3  A    between atoms: C_6  and  C_7
REMARK    4  A    between atoms: C_7  and  N_8
REMARK    5  A    between atoms: C_11  and  N_12
REMARK    6  A    between atoms: C_18  and  C_19
REMARK    7  A    between atoms: N_20  and  O_21
REMARK                            x       y       z     vdW  Elec       q    Type
REMARK                         _______ _______ _______ _____ _____    ______ ____
ROOT
ATOM      1  N   UNL     1       5.874   5.403  16.923  0.00  0.00    +0.000 N 
ATOM      2  N   UNL     1       4.576   5.739  16.625  0.00  0.00    +0.000 NA
ATOM      3  C   UNL     1       3.668   5.344  17.458  0.00  0.00    +0.000 A 
ATOM      4  C   UNL     1       3.861   4.517  18.684  0.00  0.00    +0.000 A 
ATOM      5  C   UNL     1       5.149   4.205  18.924  0.00  0.00    +0.000 A 
ATOM      6  C   UNL     1       6.253   4.729  18.079  0.00  0.00    +0.000 A 
ATOM      7  O   UNL     1       7.431   4.541  18.380  0.00  0.00    +0.000 OA
ENDROOT
BRANCH   4   8
ATOM      8  N   UNL     1       2.715   4.204  19.418  0.00  0.00    +0.000 N 
ATOM      9  C   UNL     1       2.509   4.655  20.809  0.00  0.00    +0.000 C 
ATOM     10  C   UNL     1       1.903   3.514  21.638  0.00  0.00    +0.000 C 
ATOM     11  O   UNL     1       0.672   3.046  21.060  0.00  0.00    +0.000 OA
ATOM     12  C   UNL     1       0.892   2.568  19.722  0.00  0.00    +0.000 C 
ATOM     13  C   UNL     1       1.472   3.668  18.817  0.00  0.00    +0.000 C 
ENDBRANCH   4   8
BRANCH   5  14
ATOM     14  C   UNL     1       5.411   3.210  19.987  0.00  0.00    +0.000 C 
ATOM     15  N   UNL     1       4.885   2.031  20.045  0.00  0.00    +0.000 NA
BRANCH  15  16
ATOM     16  O   UNL     1       5.329   1.388  21.207  0.00  0.00    +0.000 OA
ATOM     17  H   UNL     1       6.136   1.895  21.420  0.00  0.00    +0.000 HD
ENDBRANCH  15  16
ENDBRANCH   5  14
BRANCH   1  18
ATOM     18  C   UNL     1       6.898   5.792  15.957  0.00  0.00    +0.000 C 
BRANCH  18  22
ATOM     19  C   UNL     1       6.579   3.588  12.241  0.00  0.00    +0.000 A 
ATOM     20  C   UNL     1       5.735   3.291  13.314  0.00  0.00    +0.000 A 
ATOM     21  C   UNL     1       5.829   4.005  14.513  0.00  0.00    +0.000 A 
ATOM     22  C   UNL     1       6.780   5.023  14.660  0.00  0.00    +0.000 A 
ATOM     23  C   UNL     1       7.644   5.294  13.590  0.00  0.00    +0.000 A 
ATOM     24  C   UNL     1       7.543   4.585  12.389  0.00  0.00    +0.000 A 
BRANCH  19  26
ATOM     25  C   UNL     1       7.133   1.595  11.104  0.00  0.00    +0.000 C 
ATOM     26  O   UNL     1       6.405   2.817  11.124  0.00  0.00    +0.000 OA
ENDBRANCH  19  26
ENDBRANCH  18  22
ENDBRANCH   1  18
TORSDOF 6
ENDMDL
MODEL 8
REMARK VINA RESULT:      -6.6      2.213      7.793
REMARK  Name = 
REMARK  7 active torsions:
REMARK  status: ('A' for Active; 'I' for Inactive)
REMARK    1  A    between atoms: C_1  and  O_2
REMARK    2  A    between atoms: O_2  and  C_3
REMARK    3  A    between atoms: C_6  and  C_7
REMARK    4  A    between atoms: C_7  and  N_8
REMARK    5  A    between atoms: C_11  and  N_12
REMARK    6  A    between atoms: C_18  and  C_19
REMARK    7  A    between atoms: N_20  and  O_21
REMARK                            x       y       z     vdW  Elec       q    Type
REMARK                         _______ _______ _______ _____ _____    ______ ____
ROOT
ATOM      1  N   UNL     1       1.508   9.153  19.552  0.00  0.00    +0.000 N 
ATOM      2  N   UNL     1       2.020   9.159  18.277  0.00  0.00    +0.000 NA
ATOM      3  C   UNL     1       2.494   8.039  17.836  0.00  0.00    +0.000 A 
ATOM      4  C   UNL     1       2.599   6.747  18.574  0.00  0.00    +0.000 A 
ATOM      5  C   UNL     1       2.094   6.797  19.821  0.00  0.00    +0.000 A 
ATOM      6  C   UNL     1       1.423   8.015  20.347  0.00  0.00    +0.000 A 
ATOM      7  O   UNL     1       0.857   8.011  21.439  0.00  0.00    +0.000 OA
ENDROOT
BRANCH   4   8
ATOM      8  N   UNL     1       3.166   5.673  17.883  0.00  0.00    +0.000 N 
ATOM      9  C   UNL     1       2.396   4.474  17.498  0.00  0.00    +0.000 C 
ATOM     10  C   UNL     1       3.240   3.216  17.743  0.00  0.00    +0.000 C 
ATOM     11  O   UNL     1       4.488   3.279  17.032  0.00  0.00    +0.000 OA
ATOM     12  C   UNL     1       5.250   4.424  17.447  0.00  0.00    +0.000 C 
ATOM     13  C   UNL     1       4.480   5.734  17.202  0.00  0.00    +0.000 C 
ENDBRANCH   4   8
BRANCH   5  14
ATOM     14  C   UNL     1       2.353   5.634  20.697  0.00  0.00    +0.000 C 
ATOM     15  N   UNL     1       1.538   4.648  20.883  0.00  0.00    +0.000 NA
BRANCH  15  16
ATOM     16  O   UNL     1       2.099   3.758  21.806  0.00  0.00    +0.000 OA
ATOM     17  H   UNL     1       1.541   3.906  22.593  0.00  0.00    +0.000 HD
ENDBRANCH  15  16
ENDBRANCH   5  14
BRANCH   1  18
ATOM     18  C   UNL     1       1.028  10.427  20.079  0.00  0.00    +0.000 C 
BRANCH  18  22
ATOM     19  C   UNL     1      -2.862  11.476  18.486  0.00  0.00    +0.000 A 
ATOM     20  C   UNL     1      -2.342  12.159  19.588  0.00  0.00    +0.000 A 
ATOM     21  C   UNL     1      -1.083  11.830  20.101  0.00  0.00    +0.000 A 
ATOM     22  C   UNL     1      -0.329  10.800  19.523  0.00  0.00    +0.000 A 
ATOM     23  C   UNL     1      -0.872  10.098  18.438  0.00  0.00    +0.000 A 
ATOM     24  C   UNL     1      -2.127  10.435  17.921  0.00  0.00    +0.000 A 
BRANCH  19  26
ATOM     25  C   UNL     1      -4.955  10.840  17.597  0.00  0.00    +0.000 C 
ATOM     26  O   UNL     1      -4.106  11.876  18.079  0.00  0.00    +0.000 OA
ENDBRANCH  19  26
ENDBRANCH  18  22
ENDBRANCH   1  18
TORSDOF 6
ENDMDL
MODEL 9
REMARK VINA RESULT:      -6.5      1.585      1.970
REMARK  Name = 
REMARK  7 active torsions:
REMARK  status: ('A' for Active; 'I' for Inactive)
REMARK    1  A    between atoms: C_1  and  O_2
REMARK    2  A    between atoms: O_2  and  C_3
REMARK    3  A    between atoms: C_6  and  C_7
REMARK    4  A    between atoms: C_7  and  N_8
REMARK    5  A    between atoms: C_11  and  N_12
REMARK    6  A    between atoms: C_18  and  C_19
REMARK    7  A    between atoms: N_20  and  O_21
REMARK                            x       y       z     vdW  Elec       q    Type
REMARK                         _______ _______ _______ _____ _____    ______ ____
ROOT
ATOM      1  N   UNL     1       1.888   7.980  18.428  0.00  0.00    +0.000 N 
ATOM      2  N   UNL     1       1.994   9.055  17.579  0.00  0.00    +0.000 NA
ATOM      3  C   UNL     1       1.729  10.219  18.079  0.00  0.00    +0.000 A 
ATOM      4  C   UNL     1       1.267  10.526  19.463  0.00  0.00    +0.000 A 
ATOM      5  C   UNL     1       1.168   9.438  20.251  0.00  0.00    +0.000 A 
ATOM      6  C   UNL     1       1.575   8.089  19.779  0.00  0.00    +0.000 A 
ATOM      7  O   UNL     1       1.599   7.126  20.544  0.00  0.00    +0.000 OA
ENDROOT
BRANCH   4   8
ATOM      8  N   UNL     1       1.030  11.870  19.763  0.00  0.00    +0.000 N 
ATOM      9  C   UNL     1      -0.304  12.491  19.645  0.00  0.00    +0.000 C 
ATOM     10  C   UNL     1      -0.171  13.888  19.025  0.00  0.00    +0.000 C 
ATOM     11  O   UNL     1       0.719  14.717  19.792  0.00  0.00    +0.000 OA
ATOM     12  C   UNL     1       2.027  14.126  19.861  0.00  0.00    +0.000 C 
ATOM     13  C   UNL     1       1.982  12.729  20.505  0.00  0.00    +0.000 C 
ENDBRANCH   4   8
BRANCH   5  14
ATOM     14  C   UNL     1       0.511   9.618  21.564  0.00  0.00    +0.000 C 
ATOM     15  N   UNL     1       1.127   9.721  22.695  0.00  0.00    +0.000 NA
BRANCH  15  16
ATOM     16  O   UNL     1       0.184   9.837  23.722  0.00  0.00    +0.000 OA
ATOM     17  H   UNL     1       0.029  10.800  23.745  0.00  0.00    +0.000 HD
ENDBRANCH  15  16
ENDBRANCH   5  14
BRANCH   1  18
ATOM     18  C   UNL     1       2.125   6.658  17.856  0.00  0.00    +0.000 C 
BRANCH  18  22
ATOM     19  C   UNL     1       6.149   5.234  18.602  0.00  0.00    +0.000 A 
ATOM     20  C   UNL     1       5.926   6.293  17.719  0.00  0.00    +0.000 A 
ATOM     21  C   UNL     1       4.630   6.762  17.481  0.00  0.00    +0.000 A 
ATOM     22  C   UNL     1       3.532   6.167  18.117  0.00  0.00    +0.000 A 
ATOM     23  C   UNL     1       3.761   5.084  18.978  0.00  0.00    +0.000 A 
ATOM     24  C   UNL     1       5.059   4.623  19.222  0.00  0.00    +0.000 A 
BRANCH  19  26
ATOM     25  C   UNL     1       8.296   5.790  19.411  0.00  0.00    +0.000 C 
ATOM     26  O   UNL     1       7.455   4.853  18.748  0.00  0.00    +0.000 OA
ENDBRANCH  19  26
ENDBRANCH  18  22
ENDBRANCH   1  18
TORSDOF 6
ENDMDL
