MODEL 1
REMARK VINA RESULT:      -8.3      0.000      0.000
REMARK  Name = 
REMARK  10 active torsions:
REMARK  status: ('A' for Active; 'I' for Inactive)
REMARK    1  A    between atoms: C_1  and  C_2
REMARK    2  A    between atoms: C_2  and  N_3
REMARK    3  A    between atoms: N_3  and  C_4
REMARK    4  A    between atoms: N_3  and  C_12
REMARK    5  A    between atoms: C_4  and  C_5
REMARK    6  A    between atoms: C_5  and  C_6
REMARK    7  A    between atoms: C_15  and  C_16
REMARK    8  A    between atoms: C_16  and  O_17
REMARK    9  A    between atoms: C_16  and  C_18
REMARK   10  A    between atoms: C_16  and  C_22
REMARK                            x       y       z     vdW  Elec       q    Type
REMARK                         _______ _______ _______ _____ _____    ______ ____
ROOT
ATOM      1  C   UNL     1       5.475   5.399  18.176  0.00  0.00    +0.000 A 
ATOM      2  C   UNL     1       5.462   4.119  18.770  0.00  0.00    +0.000 A 
ATOM      3  C   UNL     1       4.330   3.545  19.370  0.00  0.00    +0.000 A 
ATOM      4  C   UNL     1       3.127   4.246  19.440  0.00  0.00    +0.000 A 
ATOM      5  C   UNL     1       3.105   5.522  18.862  0.00  0.00    +0.000 A 
ATOM      6  C   UNL     1       4.230   6.080  18.220  0.00  0.00    +0.000 A 
ATOM      7 CL   UNL     1       3.901   7.580  17.412  0.00  0.00    +0.000 Cl
ENDROOT
BRANCH   1   8
ATOM      8  N   UNL     1       6.657   5.888  17.615  0.00  0.00    +0.000 N 
BRANCH   8  10
ATOM      9  C   UNL     1       7.823   8.104  17.659  0.00  0.00    +0.000 C 
ATOM     10  C   UNL     1       7.596   6.759  18.341  0.00  0.00    +0.000 C 
ENDBRANCH   8  10
BRANCH   8  11
ATOM     11  C   UNL     1       7.067   5.467  16.252  0.00  0.00    +0.000 C 
BRANCH  11  12
ATOM     12  C   UNL     1       5.860   5.323  15.306  0.00  0.00    +0.000 C 
BRANCH  12  13
ATOM     13  C   UNL     1       6.191   4.647  13.992  0.00  0.00    +0.000 A 
ATOM     14  C   UNL     1       5.329   3.683  13.453  0.00  0.00    +0.000 A 
ATOM     15  C   UNL     1       5.604   3.092  12.219  0.00  0.00    +0.000 A 
ATOM     16  C   UNL     1       6.746   3.453  11.510  0.00  0.00    +0.000 A 
ATOM     17  C   UNL     1       7.613   4.408  12.036  0.00  0.00    +0.000 A 
ATOM     18  C   UNL     1       7.338   5.006  13.269  0.00  0.00    +0.000 A 
ENDBRANCH  12  13
ENDBRANCH  11  12
ENDBRANCH   8  11
ENDBRANCH   1   8
BRANCH   4  19
ATOM     19  C   UNL     1       1.880   3.622  20.099  0.00  0.00    +0.000 C 
BRANCH  19  20
ATOM     20  C   UNL     1       1.280   2.490  19.222  0.00  0.00    +0.000 C 
ATOM     21  F   UNL     1       1.467   2.707  17.895  0.00  0.00    +0.000 F 
ATOM     22  F   UNL     1       1.706   1.241  19.464  0.00  0.00    +0.000 F 
ATOM     23  F   UNL     1      -0.075   2.476  19.387  0.00  0.00    +0.000 F 
ENDBRANCH  19  20
BRANCH  19  24
ATOM     24  C   UNL     1       2.179   3.100  21.534  0.00  0.00    +0.000 C 
ATOM     25  F   UNL     1       2.500   4.102  22.394  0.00  0.00    +0.000 F 
ATOM     26  F   UNL     1       1.092   2.492  22.078  0.00  0.00    +0.000 F 
ATOM     27  F   UNL     1       3.186   2.210  21.625  0.00  0.00    +0.000 F 
ENDBRANCH  19  24
BRANCH  19  28
ATOM     28  O   UNL     1       0.894   4.719  20.195  0.00  0.00    +0.000 OA
ATOM     29  H   UNL     1       1.394   5.552  20.306  0.00  0.00    +0.000 HD
ENDBRANCH  19  28
ENDBRANCH   4  19
TORSDOF 9
ENDMDL
MODEL 2
REMARK VINA RESULT:      -8.2      0.216      1.155
REMARK  Name = 
REMARK  10 active torsions:
REMARK  status: ('A' for Active; 'I' for Inactive)
REMARK    1  A    between atoms: C_1  and  C_2
REMARK    2  A    between atoms: C_2  and  N_3
REMARK    3  A    between atoms: N_3  and  C_4
REMARK    4  A    between atoms: N_3  and  C_12
REMARK    5  A    between atoms: C_4  and  C_5
REMARK    6  A    between atoms: C_5  and  C_6
REMARK    7  A    between atoms: C_15  and  C_16
REMARK    8  A    between atoms: C_16  and  O_17
REMARK    9  A    between atoms: C_16  and  C_18
REMARK   10  A    between atoms: C_16  and  C_22
REMARK                            x       y       z     vdW  Elec       q    Type
REMARK                         _______ _______ _______ _____ _____    ______ ____
ROOT
ATOM      1  C   UNL     1       5.431   5.446  18.254  0.00  0.00    +0.000 A 
ATOM      2  C   UNL     1       5.426   4.178  18.875  0.00  0.00    +0.000 A 
ATOM      3  C   UNL     1       4.289   3.597  19.459  0.00  0.00    +0.000 A 
ATOM      4  C   UNL     1       3.074   4.279  19.487  0.00  0.00    +0.000 A 
ATOM      5  C   UNL     1       3.045   5.543  18.883  0.00  0.00    +0.000 A 
ATOM      6  C   UNL     1       4.175   6.106  18.256  0.00  0.00    +0.000 A 
ATOM      7 CL   UNL     1       3.841   7.585  17.410  0.00  0.00    +0.000 Cl
ENDROOT
BRANCH   1   8
ATOM      8  N   UNL     1       6.618   5.943  17.711  0.00  0.00    +0.000 N 
BRANCH   8  10
ATOM      9  C   UNL     1       8.046   7.976  18.031  0.00  0.00    +0.000 C 
ATOM     10  C   UNL     1       7.671   6.581  18.519  0.00  0.00    +0.000 C 
ENDBRANCH   8  10
BRANCH   8  11
ATOM     11  C   UNL     1       6.910   5.769  16.267  0.00  0.00    +0.000 C 
BRANCH  11  12
ATOM     12  C   UNL     1       5.841   4.912  15.563  0.00  0.00    +0.000 C 
BRANCH  12  13
ATOM     13  C   UNL     1       6.205   4.525  14.145  0.00  0.00    +0.000 A 
ATOM     14  C   UNL     1       7.330   5.083  13.524  0.00  0.00    +0.000 A 
ATOM     15  C   UNL     1       7.699   4.693  12.235  0.00  0.00    +0.000 A 
ATOM     16  C   UNL     1       6.945   3.745  11.549  0.00  0.00    +0.000 A 
ATOM     17  C   UNL     1       5.822   3.186  12.153  0.00  0.00    +0.000 A 
ATOM     18  C   UNL     1       5.453   3.569  13.446  0.00  0.00    +0.000 A 
ENDBRANCH  12  13
ENDBRANCH  11  12
ENDBRANCH   8  11
ENDBRANCH   1   8
BRANCH   4  19
ATOM     19  C   UNL     1       1.823   3.647  20.129  0.00  0.00    +0.000 C 
BRANCH  19  20
ATOM     20  C   UNL     1       1.205   2.554  19.217  0.00  0.00    +0.000 C 
ATOM     21  F   UNL     1       1.817   1.351  19.359  0.00  0.00    +0.000 F 
ATOM     22  F   UNL     1      -0.111   2.325  19.345  0.00  0.00    +0.000 F 
ATOM     23  F   UNL     1       1.412   2.900  17.912  0.00  0.00    +0.000 F 
ENDBRANCH  19  20
BRANCH  19  24
ATOM     24  C   UNL     1       2.121   3.071  21.544  0.00  0.00    +0.000 C 
ATOM     25  F   UNL     1       2.479   4.036  22.432  0.00  0.00    +0.000 F 
ATOM     26  F   UNL     1       1.023   2.476  22.080  0.00  0.00    +0.000 F 
ATOM     27  F   UNL     1       3.103   2.151  21.596  0.00  0.00    +0.000 F 
ENDBRANCH  19  24
BRANCH  19  28
ATOM     28  O   UNL     1       0.850   4.751  20.269  0.00  0.00    +0.000 OA
ATOM     29  H   UNL     1       1.174   5.496  19.723  0.00  0.00    +0.000 HD
ENDBRANCH  19  28
ENDBRANCH   4  19
TORSDOF 9
ENDMDL
MODEL 3
REMARK VINA RESULT:      -8.1      0.283      1.006
REMARK  Name = 
REMARK  10 active torsions:
REMARK  status: ('A' for Active; 'I' for Inactive)
REMARK    1  A    between atoms: C_1  and  C_2
REMARK    2  A    between atoms: C_2  and  N_3
REMARK    3  A    between atoms: N_3  and  C_4
REMARK    4  A    between atoms: N_3  and  C_12
REMARK    5  A    between atoms: C_4  and  C_5
REMARK    6  A    between atoms: C_5  and  C_6
REMARK    7  A    between atoms: C_15  and  C_16
REMARK    8  A    between atoms: C_16  and  O_17
REMARK    9  A    between atoms: C_16  and  C_18
REMARK   10  A    between atoms: C_16  and  C_22
REMARK                            x       y       z     vdW  Elec       q    Type
REMARK                         _______ _______ _______ _____ _____    ______ ____
ROOT
ATOM      1  C   UNL     1       5.325   5.522  18.262  0.00  0.00    +0.000 A 
ATOM      2  C   UNL     1       5.345   4.231  18.835  0.00  0.00    +0.000 A 
ATOM      3  C   UNL     1       4.226   3.620  19.423  0.00  0.00    +0.000 A 
ATOM      4  C   UNL     1       3.006   4.288  19.504  0.00  0.00    +0.000 A 
ATOM      5  C   UNL     1       2.953   5.574  18.948  0.00  0.00    +0.000 A 
ATOM      6  C   UNL     1       4.064   6.170  18.317  0.00  0.00    +0.000 A 
ATOM      7 CL   UNL     1       3.699   7.676  17.534  0.00  0.00    +0.000 Cl
ENDROOT
BRANCH   1   8
ATOM      8  N   UNL     1       6.496   6.049  17.712  0.00  0.00    +0.000 N 
BRANCH   8  10
ATOM      9  C   UNL     1       8.081   7.951  18.089  0.00  0.00    +0.000 C 
ATOM     10  C   UNL     1       7.608   6.568  18.524  0.00  0.00    +0.000 C 
ENDBRANCH   8  10
BRANCH   8  11
ATOM     11  C   UNL     1       6.705   6.030  16.243  0.00  0.00    +0.000 C 
BRANCH  11  12
ATOM     12  C   UNL     1       5.721   5.081  15.533  0.00  0.00    +0.000 C 
BRANCH  12  13
ATOM     13  C   UNL     1       6.202   4.604  14.179  0.00  0.00    +0.000 A 
ATOM     14  C   UNL     1       5.465   3.654  13.458  0.00  0.00    +0.000 A 
ATOM     15  C   UNL     1       5.877   3.247  12.188  0.00  0.00    +0.000 A 
ATOM     16  C   UNL     1       7.032   3.781  11.624  0.00  0.00    +0.000 A 
ATOM     17  C   UNL     1       7.775   4.723  12.330  0.00  0.00    +0.000 A 
ATOM     18  C   UNL     1       7.363   5.137  13.600  0.00  0.00    +0.000 A 
ENDBRANCH  12  13
ENDBRANCH  11  12
ENDBRANCH   8  11
ENDBRANCH   1   8
BRANCH   4  19
ATOM     19  C   UNL     1       1.775   3.623  20.150  0.00  0.00    +0.000 C 
BRANCH  19  20
ATOM     20  C   UNL     1       1.162   2.540  19.223  0.00  0.00    +0.000 C 
ATOM     21  F   UNL     1       1.806   1.349  19.317  0.00  0.00    +0.000 F 
ATOM     22  F   UNL     1      -0.145   2.275  19.377  0.00  0.00    +0.000 F 
ATOM     23  F   UNL     1       1.329   2.926  17.923  0.00  0.00    +0.000 F 
ENDBRANCH  19  20
BRANCH  19  24
ATOM     24  C   UNL     1       2.104   3.022  21.547  0.00  0.00    +0.000 C 
ATOM     25  F   UNL     1       3.187   2.201  21.518  0.00  0.00    +0.000 F 
ATOM     26  F   UNL     1       2.412   3.994  22.447  0.00  0.00    +0.000 F 
ATOM     27  F   UNL     1       1.117   2.296  22.109  0.00  0.00    +0.000 F 
ENDBRANCH  19  24
BRANCH  19  28
ATOM     28  O   UNL     1       0.787   4.708  20.328  0.00  0.00    +0.000 OA
ATOM     29  H   UNL     1       0.395   4.892  19.450  0.00  0.00    +0.000 HD
ENDBRANCH  19  28
ENDBRANCH   4  19
TORSDOF 9
ENDMDL
MODEL 4
REMARK VINA RESULT:      -7.9      0.924      2.045
REMARK  Name = 
REMARK  10 active torsions:
REMARK  status: ('A' for Active; 'I' for Inactive)
REMARK    1  A    between atoms: C_1  and  C_2
REMARK    2  A    between atoms: C_2  and  N_3
REMARK    3  A    between atoms: N_3  and  C_4
REMARK    4  A    between atoms: N_3  and  C_12
REMARK    5  A    between atoms: C_4  and  C_5
REMARK    6  A    between atoms: C_5  and  C_6
REMARK    7  A    between atoms: C_15  and  C_16
REMARK    8  A    between atoms: C_16  and  O_17
REMARK    9  A    between atoms: C_16  and  C_18
REMARK   10  A    between atoms: C_16  and  C_22
REMARK                            x       y       z     vdW  Elec       q    Type
REMARK                         _______ _______ _______ _____ _____    ______ ____
ROOT
ATOM      1  C   UNL     1       5.589   5.216  18.082  0.00  0.00    +0.000 A 
ATOM      2  C   UNL     1       5.689   3.869  18.496  0.00  0.00    +0.000 A 
ATOM      3  C   UNL     1       4.623   3.139  19.045  0.00  0.00    +0.000 A 
ATOM      4  C   UNL     1       3.379   3.733  19.247  0.00  0.00    +0.000 A 
ATOM      5  C   UNL     1       3.247   5.071  18.850  0.00  0.00    +0.000 A 
ATOM      6  C   UNL     1       4.303   5.791  18.256  0.00  0.00    +0.000 A 
ATOM      7 CL   UNL     1       3.840   7.358  17.672  0.00  0.00    +0.000 Cl
ENDROOT
BRANCH   1   8
ATOM      8  N   UNL     1       6.712   5.861  17.558  0.00  0.00    +0.000 N 
BRANCH   8  10
ATOM      9  C   UNL     1       7.816   8.105  17.692  0.00  0.00    +0.000 C 
ATOM     10  C   UNL     1       7.575   6.752  18.351  0.00  0.00    +0.000 C 
ENDBRANCH   8  10
BRANCH   8  11
ATOM     11  C   UNL     1       7.139   5.601  16.161  0.00  0.00    +0.000 C 
BRANCH  11  12
ATOM     12  C   UNL     1       5.940   5.515  15.198  0.00  0.00    +0.000 C 
BRANCH  12  13
ATOM     13  C   UNL     1       6.226   4.733  13.934  0.00  0.00    +0.000 A 
ATOM     14  C   UNL     1       5.331   3.752  13.488  0.00  0.00    +0.000 A 
ATOM     15  C   UNL     1       5.565   3.062  12.297  0.00  0.00    +0.000 A 
ATOM     16  C   UNL     1       6.699   3.341  11.539  0.00  0.00    +0.000 A 
ATOM     17  C   UNL     1       7.598   4.311  11.973  0.00  0.00    +0.000 A 
ATOM     18  C   UNL     1       7.364   5.008  13.161  0.00  0.00    +0.000 A 
ENDBRANCH  12  13
ENDBRANCH  11  12
ENDBRANCH   8  11
ENDBRANCH   1   8
BRANCH   4  19
ATOM     19  C   UNL     1       2.206   2.936  19.851  0.00  0.00    +0.000 C 
BRANCH  19  20
ATOM     20  C   UNL     1       2.262   2.929  21.402  0.00  0.00    +0.000 C 
ATOM     21  F   UNL     1       1.095   2.520  21.962  0.00  0.00    +0.000 F 
ATOM     22  F   UNL     1       3.231   2.197  21.973  0.00  0.00    +0.000 F 
ATOM     23  F   UNL     1       2.432   4.210  21.844  0.00  0.00    +0.000 F 
ENDBRANCH  19  20
BRANCH  19  24
ATOM     24  C   UNL     1       0.828   3.465  19.358  0.00  0.00    +0.000 C 
ATOM     25  F   UNL     1      -0.117   2.489  19.311  0.00  0.00    +0.000 F 
ATOM     26  F   UNL     1       0.328   4.410  20.199  0.00  0.00    +0.000 F 
ATOM     27  F   UNL     1       0.830   4.025  18.132  0.00  0.00    +0.000 F 
ENDBRANCH  19  24
BRANCH  19  28
ATOM     28  O   UNL     1       2.377   1.551  19.365  0.00  0.00    +0.000 OA
ATOM     29  H   UNL     1       1.484   1.167  19.257  0.00  0.00    +0.000 HD
ENDBRANCH  19  28
ENDBRANCH   4  19
TORSDOF 9
ENDMDL
MODEL 5
REMARK VINA RESULT:      -7.9      0.474      1.420
REMARK  Name = 
REMARK  10 active torsions:
REMARK  status: ('A' for Active; 'I' for Inactive)
REMARK    1  A    between atoms: C_1  and  C_2
REMARK    2  A    between atoms: C_2  and  N_3
REMARK    3  A    between atoms: N_3  and  C_4
REMARK    4  A    between atoms: N_3  and  C_12
REMARK    5  A    between atoms: C_4  and  C_5
REMARK    6  A    between atoms: C_5  and  C_6
REMARK    7  A    between atoms: C_15  and  C_16
REMARK    8  A    between atoms: C_16  and  O_17
REMARK    9  A    between atoms: C_16  and  C_18
REMARK   10  A    between atoms: C_16  and  C_22
REMARK                            x       y       z     vdW  Elec       q    Type
REMARK                         _______ _______ _______ _____ _____    ______ ____
ROOT
ATOM      1  C   UNL     1       5.362   5.612  18.138  0.00  0.00    +0.000 A 
ATOM      2  C   UNL     1       5.419   4.324  18.714  0.00  0.00    +0.000 A 
ATOM      3  C   UNL     1       4.318   3.681  19.302  0.00  0.00    +0.000 A 
ATOM      4  C   UNL     1       3.079   4.314  19.381  0.00  0.00    +0.000 A 
ATOM      5  C   UNL     1       2.989   5.596  18.822  0.00  0.00    +0.000 A 
ATOM      6  C   UNL     1       4.082   6.223  18.190  0.00  0.00    +0.000 A 
ATOM      7 CL   UNL     1       3.674   7.716  17.403  0.00  0.00    +0.000 Cl
ENDROOT
BRANCH   1   8
ATOM      8  N   UNL     1       6.517   6.172  17.587  0.00  0.00    +0.000 N 
BRANCH   8  10
ATOM      9  C   UNL     1       8.062   8.098  18.009  0.00  0.00    +0.000 C 
ATOM     10  C   UNL     1       7.631   6.689  18.400  0.00  0.00    +0.000 C 
ENDBRANCH   8  10
BRANCH   8  11
ATOM     11  C   UNL     1       6.708   6.194  16.116  0.00  0.00    +0.000 C 
BRANCH  11  12
ATOM     12  C   UNL     1       7.304   4.874  15.593  0.00  0.00    +0.000 C 
BRANCH  12  13
ATOM     13  C   UNL     1       6.743   4.438  14.255  0.00  0.00    +0.000 A 
ATOM     14  C   UNL     1       7.517   4.547  13.092  0.00  0.00    +0.000 A 
ATOM     15  C   UNL     1       7.024   4.102  11.864  0.00  0.00    +0.000 A 
ATOM     16  C   UNL     1       5.750   3.547  11.783  0.00  0.00    +0.000 A 
ATOM     17  C   UNL     1       4.969   3.437  12.931  0.00  0.00    +0.000 A 
ATOM     18  C   UNL     1       5.462   3.876  14.162  0.00  0.00    +0.000 A 
ENDBRANCH  12  13
ENDBRANCH  11  12
ENDBRANCH   8  11
ENDBRANCH   1   8
BRANCH   4  19
ATOM     19  C   UNL     1       1.868   3.614  20.027  0.00  0.00    +0.000 C 
BRANCH  19  20
ATOM     20  C   UNL     1       1.339   2.456  19.139  0.00  0.00    +0.000 C 
ATOM     21  F   UNL     1      -0.002   2.280  19.258  0.00  0.00    +0.000 F 
ATOM     22  F   UNL     1       1.593   2.532  17.824  0.00  0.00    +0.000 F 
ATOM     23  F   UNL     1       1.886   1.282  19.572  0.00  0.00    +0.000 F 
ENDBRANCH  19  20
BRANCH  19  24
ATOM     24  C   UNL     1       2.189   3.099  21.460  0.00  0.00    +0.000 C 
ATOM     25  F   UNL     1       1.153   2.411  22.009  0.00  0.00    +0.000 F 
ATOM     26  F   UNL     1       3.235   2.231  21.453  0.00  0.00    +0.000 F 
ATOM     27  F   UNL     1       2.505   4.052  22.358  0.00  0.00    +0.000 F 
ENDBRANCH  19  24
BRANCH  19  28
ATOM     28  O   UNL     1       0.819   4.651  20.126  0.00  0.00    +0.000 OA
ATOM     29  H   UNL     1       0.040   4.327  19.630  0.00  0.00    +0.000 HD
ENDBRANCH  19  28
ENDBRANCH   4  19
TORSDOF 9
ENDMDL
MODEL 6
REMARK VINA RESULT:      -7.8      1.045      2.169
REMARK  Name = 
REMARK  10 active torsions:
REMARK  status: ('A' for Active; 'I' for Inactive)
REMARK    1  A    between atoms: C_1  and  C_2
REMARK    2  A    between atoms: C_2  and  N_3
REMARK    3  A    between atoms: N_3  and  C_4
REMARK    4  A    between atoms: N_3  and  C_12
REMARK    5  A    between atoms: C_4  and  C_5
REMARK    6  A    between atoms: C_5  and  C_6
REMARK    7  A    between atoms: C_15  and  C_16
REMARK    8  A    between atoms: C_16  and  O_17
REMARK    9  A    between atoms: C_16  and  C_18
REMARK   10  A    between atoms: C_16  and  C_22
REMARK                            x       y       z     vdW  Elec       q    Type
REMARK                         _______ _______ _______ _____ _____    ______ ____
ROOT
ATOM      1  C   UNL     1       5.626   5.578  18.046  0.00  0.00    +0.000 A 
ATOM      2  C   UNL     1       5.782   4.285  18.591  0.00  0.00    +0.000 A 
ATOM      3  C   UNL     1       4.728   3.534  19.134  0.00  0.00    +0.000 A 
ATOM      4  C   UNL     1       3.437   4.054  19.196  0.00  0.00    +0.000 A 
ATOM      5  C   UNL     1       3.248   5.338  18.667  0.00  0.00    +0.000 A 
ATOM      6  C   UNL     1       4.297   6.075  18.080  0.00  0.00    +0.000 A 
ATOM      7 CL   UNL     1       3.778   7.547  17.320  0.00  0.00    +0.000 Cl
ENDROOT
BRANCH   1   8
ATOM      8  N   UNL     1       6.741   6.251  17.540  0.00  0.00    +0.000 N 
BRANCH   8  10
ATOM      9  C   UNL     1       7.960   8.425  17.788  0.00  0.00    +0.000 C 
ATOM     10  C   UNL     1       7.650   7.053  18.376  0.00  0.00    +0.000 C 
ENDBRANCH   8  10
BRANCH   8  11
ATOM     11  C   UNL     1       7.111   6.113  16.109  0.00  0.00    +0.000 C 
BRANCH  11  12
ATOM     12  C   UNL     1       7.213   4.638  15.681  0.00  0.00    +0.000 C 
BRANCH  12  13
ATOM     13  C   UNL     1       6.984   4.414  14.201  0.00  0.00    +0.000 A 
ATOM     14  C   UNL     1       5.948   3.579  13.761  0.00  0.00    +0.000 A 
ATOM     15  C   UNL     1       5.700   3.408  12.398  0.00  0.00    +0.000 A 
ATOM     16  C   UNL     1       6.489   4.064  11.457  0.00  0.00    +0.000 A 
ATOM     17  C   UNL     1       7.524   4.893  11.880  0.00  0.00    +0.000 A 
ATOM     18  C   UNL     1       7.771   5.072  13.244  0.00  0.00    +0.000 A 
ENDBRANCH  12  13
ENDBRANCH  11  12
ENDBRANCH   8  11
ENDBRANCH   1   8
BRANCH   4  19
ATOM     19  C   UNL     1       2.276   3.234  19.793  0.00  0.00    +0.000 C 
BRANCH  19  20
ATOM     20  C   UNL     1       1.575   3.998  20.948  0.00  0.00    +0.000 C 
ATOM     21  F   UNL     1       2.453   4.677  21.730  0.00  0.00    +0.000 F 
ATOM     22  F   UNL     1       0.618   4.874  20.607  0.00  0.00    +0.000 F 
ATOM     23  F   UNL     1       0.990   3.092  21.786  0.00  0.00    +0.000 F 
ENDBRANCH  19  20
BRANCH  19  24
ATOM     24  C   UNL     1       1.241   2.816  18.709  0.00  0.00    +0.000 C 
ATOM     25  F   UNL     1       0.890   3.849  17.900  0.00  0.00    +0.000 F 
ATOM     26  F   UNL     1       1.747   1.864  17.881  0.00  0.00    +0.000 F 
ATOM     27  F   UNL     1       0.081   2.317  19.182  0.00  0.00    +0.000 F 
ENDBRANCH  19  24
BRANCH  19  28
ATOM     28  O   UNL     1       2.898   2.012  20.344  0.00  0.00    +0.000 OA
ATOM     29  H   UNL     1       3.086   1.416  19.592  0.00  0.00    +0.000 HD
ENDBRANCH  19  28
ENDBRANCH   4  19
TORSDOF 9
ENDMDL
MODEL 7
REMARK VINA RESULT:      -7.8      0.305      1.444
REMARK  Name = 
REMARK  10 active torsions:
REMARK  status: ('A' for Active; 'I' for Inactive)
REMARK    1  A    between atoms: C_1  and  C_2
REMARK    2  A    between atoms: C_2  and  N_3
REMARK    3  A    between atoms: N_3  and  C_4
REMARK    4  A    between atoms: N_3  and  C_12
REMARK    5  A    between atoms: C_4  and  C_5
REMARK    6  A    between atoms: C_5  and  C_6
REMARK    7  A    between atoms: C_15  and  C_16
REMARK    8  A    between atoms: C_16  and  O_17
REMARK    9  A    between atoms: C_16  and  C_18
REMARK   10  A    between atoms: C_16  and  C_22
REMARK                            x       y       z     vdW  Elec       q    Type
REMARK                         _______ _______ _______ _____ _____    ______ ____
ROOT
ATOM      1  C   UNL     1       5.380   5.384  18.083  0.00  0.00    +0.000 A 
ATOM      2  C   UNL     1       5.364   4.084  18.636  0.00  0.00    +0.000 A 
ATOM      3  C   UNL     1       4.242   3.514  19.258  0.00  0.00    +0.000 A 
ATOM      4  C   UNL     1       3.058   4.234  19.396  0.00  0.00    +0.000 A 
ATOM      5  C   UNL     1       3.041   5.529  18.861  0.00  0.00    +0.000 A 
ATOM      6  C   UNL     1       4.152   6.086  18.196  0.00  0.00    +0.000 A 
ATOM      7 CL   UNL     1       3.825   7.619  17.449  0.00  0.00    +0.000 Cl
ENDROOT
BRANCH   1   8
ATOM      8  N   UNL     1       6.551   5.868  17.495  0.00  0.00    +0.000 N 
BRANCH   8  10
ATOM      9  C   UNL     1       8.173   6.133  19.385  0.00  0.00    +0.000 C 
ATOM     10  C   UNL     1       7.487   6.772  18.183  0.00  0.00    +0.000 C 
ENDBRANCH   8  10
BRANCH   8  11
ATOM     11  C   UNL     1       6.952   5.409  16.142  0.00  0.00    +0.000 C 
BRANCH  11  12
ATOM     12  C   UNL     1       5.740   5.246  15.206  0.00  0.00    +0.000 C 
BRANCH  12  13
ATOM     13  C   UNL     1       6.076   4.602  13.878  0.00  0.00    +0.000 A 
ATOM     14  C   UNL     1       7.266   4.926  13.213  0.00  0.00    +0.000 A 
ATOM     15  C   UNL     1       7.605   4.299  12.012  0.00  0.00    +0.000 A 
ATOM     16  C   UNL     1       6.757   3.345  11.459  0.00  0.00    +0.000 A 
ATOM     17  C   UNL     1       5.569   3.016  12.107  0.00  0.00    +0.000 A 
ATOM     18  C   UNL     1       5.230   3.637  13.312  0.00  0.00    +0.000 A 
ENDBRANCH  12  13
ENDBRANCH  11  12
ENDBRANCH   8  11
ENDBRANCH   1   8
BRANCH   4  19
ATOM     19  C   UNL     1       1.824   3.613  20.080  0.00  0.00    +0.000 C 
BRANCH  19  20
ATOM     20  C   UNL     1       1.196   2.491  19.211  0.00  0.00    +0.000 C 
ATOM     21  F   UNL     1      -0.139   2.359  19.418  0.00  0.00    +0.000 F 
ATOM     22  F   UNL     1       1.364   2.583  17.883  0.00  0.00    +0.000 F 
ATOM     23  F   UNL     1       1.729   1.291  19.586  0.00  0.00    +0.000 F 
ENDBRANCH  19  20
BRANCH  19  24
ATOM     24  C   UNL     1       2.154   3.079  21.504  0.00  0.00    +0.000 C 
ATOM     25  F   UNL     1       3.224   2.241  21.509  0.00  0.00    +0.000 F 
ATOM     26  F   UNL     1       2.483   4.091  22.350  0.00  0.00    +0.000 F 
ATOM     27  F   UNL     1       1.160   2.399  22.109  0.00  0.00    +0.000 F 
ENDBRANCH  19  24
BRANCH  19  28
ATOM     28  O   UNL     1       0.846   4.714  20.208  0.00  0.00    +0.000 OA
ATOM     29  H   UNL     1       1.299   5.456  20.657  0.00  0.00    +0.000 HD
ENDBRANCH  19  28
ENDBRANCH   4  19
TORSDOF 9
ENDMDL
MODEL 8
REMARK VINA RESULT:      -7.7      5.633      7.725
REMARK  Name = 
REMARK  10 active torsions:
REMARK  status: ('A' for Active; 'I' for Inactive)
REMARK    1  A    between atoms: C_1  and  C_2
REMARK    2  A    between atoms: C_2  and  N_3
REMARK    3  A    between atoms: N_3  and  C_4
REMARK    4  A    between atoms: N_3  and  C_12
REMARK    5  A    between atoms: C_4  and  C_5
REMARK    6  A    between atoms: C_5  and  C_6
REMARK    7  A    between atoms: C_15  and  C_16
REMARK    8  A    between atoms: C_16  and  O_17
REMARK    9  A    between atoms: C_16  and  C_18
REMARK   10  A    between atoms: C_16  and  C_22
REMARK                            x       y       z     vdW  Elec       q    Type
REMARK                         _______ _______ _______ _____ _____    ______ ____
ROOT
ATOM      1  C   UNL     1       1.284   9.605  19.521  0.00  0.00    +0.000 A 
ATOM      2  C   UNL     1       1.819   9.133  18.302  0.00  0.00    +0.000 A 
ATOM      3  C   UNL     1       2.337   7.841  18.124  0.00  0.00    +0.000 A 
ATOM      4  C   UNL     1       2.384   6.938  19.184  0.00  0.00    +0.000 A 
ATOM      5  C   UNL     1       1.865   7.375  20.410  0.00  0.00    +0.000 A 
ATOM      6  C   UNL     1       1.302   8.657  20.577  0.00  0.00    +0.000 A 
ATOM      7 CL   UNL     1       0.549   8.894  22.123  0.00  0.00    +0.000 Cl
ENDROOT
BRANCH   1   8
ATOM      8  N   UNL     1       0.802  10.914  19.602  0.00  0.00    +0.000 N 
BRANCH   8  10
ATOM      9  C   UNL     1       0.339  12.771  21.217  0.00  0.00    +0.000 C 
ATOM     10  C   UNL     1       1.385  11.936  20.487  0.00  0.00    +0.000 C 
ENDBRANCH   8  10
BRANCH   8  11
ATOM     11  C   UNL     1      -0.297  11.362  18.711  0.00  0.00    +0.000 C 
BRANCH  11  12
ATOM     12  C   UNL     1      -1.533  10.450  18.820  0.00  0.00    +0.000 C 
BRANCH  12  13
ATOM     13  C   UNL     1      -2.425  10.481  17.596  0.00  0.00    +0.000 A 
ATOM     14  C   UNL     1      -3.583  11.269  17.582  0.00  0.00    +0.000 A 
ATOM     15  C   UNL     1      -4.383  11.341  16.440  0.00  0.00    +0.000 A 
ATOM     16  C   UNL     1      -4.037  10.622  15.299  0.00  0.00    +0.000 A 
ATOM     17  C   UNL     1      -2.890   9.832  15.301  0.00  0.00    +0.000 A 
ATOM     18  C   UNL     1      -2.084   9.763  16.441  0.00  0.00    +0.000 A 
ENDBRANCH  12  13
ENDBRANCH  11  12
ENDBRANCH   8  11
ENDBRANCH   1   8
BRANCH   4  19
ATOM     19  C   UNL     1       2.954   5.518  18.994  0.00  0.00    +0.000 C 
BRANCH  19  20
ATOM     20  C   UNL     1       1.882   4.544  18.437  0.00  0.00    +0.000 C 
ATOM     21  F   UNL     1       0.952   4.208  19.367  0.00  0.00    +0.000 F 
ATOM     22  F   UNL     1       1.203   4.942  17.351  0.00  0.00    +0.000 F 
ATOM     23  F   UNL     1       2.487   3.365  18.105  0.00  0.00    +0.000 F 
ENDBRANCH  19  20
BRANCH  19  24
ATOM     24  C   UNL     1       4.219   5.514  18.087  0.00  0.00    +0.000 C 
ATOM     25  F   UNL     1       5.038   4.461  18.343  0.00  0.00    +0.000 F 
ATOM     26  F   UNL     1       3.887   5.402  16.773  0.00  0.00    +0.000 F 
ATOM     27  F   UNL     1       4.998   6.609  18.180  0.00  0.00    +0.000 F 
ENDBRANCH  19  24
BRANCH  19  28
ATOM     28  O   UNL     1       3.346   5.066  20.346  0.00  0.00    +0.000 OA
ATOM     29  H   UNL     1       2.596   5.253  20.945  0.00  0.00    +0.000 HD
ENDBRANCH  19  28
ENDBRANCH   4  19
TORSDOF 9
ENDMDL
MODEL 9
REMARK VINA RESULT:      -7.7      5.514      7.574
REMARK  Name = 
REMARK  10 active torsions:
REMARK  status: ('A' for Active; 'I' for Inactive)
REMARK    1  A    between atoms: C_1  and  C_2
REMARK    2  A    between atoms: C_2  and  N_3
REMARK    3  A    between atoms: N_3  and  C_4
REMARK    4  A    between atoms: N_3  and  C_12
REMARK    5  A    between atoms: C_4  and  C_5
REMARK    6  A    between atoms: C_5  and  C_6
REMARK    7  A    between atoms: C_15  and  C_16
REMARK    8  A    between atoms: C_16  and  O_17
REMARK    9  A    between atoms: C_16  and  C_18
REMARK   10  A    between atoms: C_16  and  C_22
REMARK                            x       y       z     vdW  Elec       q    Type
REMARK                         _______ _______ _______ _____ _____    ______ ____
ROOT
ATOM      1  C   UNL     1       1.398   9.636  19.059  0.00  0.00    +0.000 A 
ATOM      2  C   UNL     1       1.869   9.008  17.885  0.00  0.00    +0.000 A 
ATOM      3  C   UNL     1       2.353   7.691  17.843  0.00  0.00    +0.000 A 
ATOM      4  C   UNL     1       2.428   6.920  19.001  0.00  0.00    +0.000 A 
ATOM      5  C   UNL     1       1.972   7.514  20.186  0.00  0.00    +0.000 A 
ATOM      6  C   UNL     1       1.442   8.821  20.220  0.00  0.00    +0.000 A 
ATOM      7 CL   UNL     1       0.762   9.260  21.755  0.00  0.00    +0.000 Cl
ENDROOT
BRANCH   1   8
ATOM      8  N   UNL     1       0.946  10.956  19.000  0.00  0.00    +0.000 N 
BRANCH   8  10
ATOM      9  C   UNL     1       2.030  13.069  19.799  0.00  0.00    +0.000 C 
ATOM     10  C   UNL     1       1.814  12.092  18.648  0.00  0.00    +0.000 C 
ENDBRANCH   8  10
BRANCH   8  11
ATOM     11  C   UNL     1      -0.489  11.266  19.217  0.00  0.00    +0.000 C 
BRANCH  11  12
ATOM     12  C   UNL     1      -1.394  10.068  18.872  0.00  0.00    +0.000 C 
BRANCH  12  13
ATOM     13  C   UNL     1      -2.321  10.321  17.701  0.00  0.00    +0.000 A 
ATOM     14  C   UNL     1      -3.432  11.163  17.844  0.00  0.00    +0.000 A 
ATOM     15  C   UNL     1      -4.262  11.438  16.756  0.00  0.00    +0.000 A 
ATOM     16  C   UNL     1      -3.994  10.872  15.512  0.00  0.00    +0.000 A 
ATOM     17  C   UNL     1      -2.895  10.031  15.358  0.00  0.00    +0.000 A 
ATOM     18  C   UNL     1      -2.059   9.758  16.444  0.00  0.00    +0.000 A 
ENDBRANCH  12  13
ENDBRANCH  11  12
ENDBRANCH   8  11
ENDBRANCH   1   8
BRANCH   4  19
ATOM     19  C   UNL     1       2.961   5.474  18.962  0.00  0.00    +0.000 C 
BRANCH  19  20
ATOM     20  C   UNL     1       1.875   4.481  18.468  0.00  0.00    +0.000 C 
ATOM     21  F   UNL     1       1.184   4.955  17.400  0.00  0.00    +0.000 F 
ATOM     22  F   UNL     1       2.284   3.247  18.135  0.00  0.00    +0.000 F 
ATOM     23  F   UNL     1       0.938   4.326  19.450  0.00  0.00    +0.000 F 
ENDBRANCH  19  20
BRANCH  19  24
ATOM     24  C   UNL     1       4.247   5.351  18.095  0.00  0.00    +0.000 C 
ATOM     25  F   UNL     1       3.972   5.273  16.766  0.00  0.00    +0.000 F 
ATOM     26  F   UNL     1       5.047   6.441  18.234  0.00  0.00    +0.000 F 
ATOM     27  F   UNL     1       5.025   4.284  18.366  0.00  0.00    +0.000 F 
ENDBRANCH  19  24
BRANCH  19  28
ATOM     28  O   UNL     1       3.305   5.141  20.360  0.00  0.00    +0.000 OA
ATOM     29  H   UNL     1       2.534   4.680  20.749  0.00  0.00    +0.000 HD
ENDBRANCH  19  28
ENDBRANCH   4  19
TORSDOF 9
ENDMDL
