MODEL 1
REMARK VINA RESULT:      -7.6      0.000      0.000
REMARK  Name = 
REMARK  7 active torsions:
REMARK  status: ('A' for Active; 'I' for Inactive)
REMARK    1  A    between atoms: C_1  and  O_2
REMARK    2  A    between atoms: O_2  and  C_3
REMARK    3  A    between atoms: C_7  and  O_8
REMARK    4  A    between atoms: O_8  and  C_9
REMARK    5  A    between atoms: C_10  and  C_11
REMARK    6  A    between atoms: C_14  and  C_15
REMARK    7  A    between atoms: C_15  and  N_17
REMARK                            x       y       z     vdW  Elec       q    Type
REMARK                         _______ _______ _______ _____ _____    ______ ____
ROOT
ATOM      1  C   UNL     1       4.021   3.885  18.007  0.00  0.00    +0.000 A 
ATOM      2  C   UNL     1       3.860   3.715  16.640  0.00  0.00    +0.000 A 
ATOM      3  C   UNL     1       5.081   4.093  16.028  0.00  0.00    +0.000 A 
ATOM      4  C   UNL     1       5.947   4.434  17.048  0.00  0.00    +0.000 A 
ATOM      5  O   UNL     1       5.299   4.313  18.251  0.00  0.00    +0.000 OA
ENDROOT
BRANCH   1  11
ATOM      6  C   UNL     1       3.242   2.639  20.037  0.00  0.00    +0.000 A 
ATOM      7  C   UNL     1       2.422   2.526  21.173  0.00  0.00    +0.000 A 
ATOM      8  C   UNL     1       1.434   3.463  21.425  0.00  0.00    +0.000 A 
ATOM      9  C   UNL     1       1.277   4.545  20.568  0.00  0.00    +0.000 A 
ATOM     10  C   UNL     1       2.123   4.722  19.461  0.00  0.00    +0.000 A 
ATOM     11  C   UNL     1       3.124   3.757  19.171  0.00  0.00    +0.000 A 
BRANCH   6  13
ATOM     12  C   UNL     1       5.141   1.457  20.804  0.00  0.00    +0.000 C 
ATOM     13  O   UNL     1       4.193   1.683  19.761  0.00  0.00    +0.000 OA
ENDBRANCH   6  13
BRANCH  10  14
ATOM     14  O   UNL     1       2.006   5.810  18.628  0.00  0.00    +0.000 OA
ATOM     15  C   UNL     1       2.515   7.052  19.101  0.00  0.00    +0.000 C 
ENDBRANCH  10  14
ENDBRANCH   1  11
BRANCH   4  16
ATOM     16  C   UNL     1       7.313   4.918  17.004  0.00  0.00    +0.000 C 
ATOM     17  O   UNL     1       8.292   4.219  17.251  0.00  0.00    +0.000 OA
BRANCH  16  18
ATOM     18  N   UNL     1       7.356   6.262  16.734  0.00  0.00    +0.000 NA
ATOM     19  C   UNL     1       7.737   7.070  17.656  0.00  0.00    +0.000 C 
ATOM     20  N   UNL     1       8.173   6.824  18.912  0.00  0.00    +0.000 N 
ATOM     21  N   UNL     1       7.745   8.401  17.416  0.00  0.00    +0.000 N 
ATOM     22  H   UNL     1       7.948   5.879  19.225  0.00  0.00    +0.000 HD
ATOM     23  H   UNL     1       7.836   7.504  19.583  0.00  0.00    +0.000 HD
ATOM     24  H   UNL     1       7.599   8.582  16.427  0.00  0.00    +0.000 HD
ATOM     25  H   UNL     1       8.586   8.856  17.748  0.00  0.00    +0.000 HD
ENDBRANCH  16  18
ENDBRANCH   4  16
TORSDOF 5
ENDMDL
MODEL 2
REMARK VINA RESULT:      -7.4      0.596      2.710
REMARK  Name = 
REMARK  7 active torsions:
REMARK  status: ('A' for Active; 'I' for Inactive)
REMARK    1  A    between atoms: C_1  and  O_2
REMARK    2  A    between atoms: O_2  and  C_3
REMARK    3  A    between atoms: C_7  and  O_8
REMARK    4  A    between atoms: O_8  and  C_9
REMARK    5  A    between atoms: C_10  and  C_11
REMARK    6  A    between atoms: C_14  and  C_15
REMARK    7  A    between atoms: C_15  and  N_17
REMARK                            x       y       z     vdW  Elec       q    Type
REMARK                         _______ _______ _______ _____ _____    ______ ____
ROOT
ATOM      1  C   UNL     1       4.064   4.118  18.035  0.00  0.00    +0.000 A 
ATOM      2  C   UNL     1       3.788   4.072  16.677  0.00  0.00    +0.000 A 
ATOM      3  C   UNL     1       4.979   4.432  15.999  0.00  0.00    +0.000 A 
ATOM      4  C   UNL     1       5.941   4.639  16.968  0.00  0.00    +0.000 A 
ATOM      5  O   UNL     1       5.381   4.453  18.207  0.00  0.00    +0.000 OA
ENDROOT
BRANCH   1  11
ATOM      6  C   UNL     1       2.356   4.966  19.663  0.00  0.00    +0.000 A 
ATOM      7  C   UNL     1       1.549   4.794  20.800  0.00  0.00    +0.000 A 
ATOM      8  C   UNL     1       1.667   3.659  21.585  0.00  0.00    +0.000 A 
ATOM      9  C   UNL     1       2.566   2.664  21.225  0.00  0.00    +0.000 A 
ATOM     10  C   UNL     1       3.341   2.775  20.058  0.00  0.00    +0.000 A 
ATOM     11  C   UNL     1       3.253   3.943  19.256  0.00  0.00    +0.000 A 
BRANCH   6  13
ATOM     12  C   UNL     1       2.194   7.324  19.660  0.00  0.00    +0.000 C 
ATOM     13  O   UNL     1       2.272   6.114  18.909  0.00  0.00    +0.000 OA
ENDBRANCH   6  13
BRANCH  10  14
ATOM     14  O   UNL     1       4.206   1.779  19.666  0.00  0.00    +0.000 OA
ATOM     15  C   UNL     1       3.797   0.949  18.585  0.00  0.00    +0.000 C 
ENDBRANCH  10  14
ENDBRANCH   1  11
BRANCH   4  16
ATOM     16  C   UNL     1       7.326   5.050  16.851  0.00  0.00    +0.000 C 
ATOM     17  O   UNL     1       8.277   4.285  16.992  0.00  0.00    +0.000 OA
BRANCH  16  18
ATOM     18  N   UNL     1       7.429   6.401  16.646  0.00  0.00    +0.000 NA
ATOM     19  C   UNL     1       7.785   7.154  17.624  0.00  0.00    +0.000 C 
ATOM     20  N   UNL     1       8.142   6.837  18.889  0.00  0.00    +0.000 N 
ATOM     21  N   UNL     1       7.851   8.494  17.446  0.00  0.00    +0.000 N 
ATOM     22  H   UNL     1       7.869   5.888  19.144  0.00  0.00    +0.000 HD
ATOM     23  H   UNL     1       7.792   7.498  19.571  0.00  0.00    +0.000 HD
ATOM     24  H   UNL     1       7.766   8.723  16.460  0.00  0.00    +0.000 HD
ATOM     25  H   UNL     1       8.687   8.903  17.843  0.00  0.00    +0.000 HD
ENDBRANCH  16  18
ENDBRANCH   4  16
TORSDOF 5
ENDMDL
MODEL 3
REMARK VINA RESULT:      -7.3      2.304      3.831
REMARK  Name = 
REMARK  7 active torsions:
REMARK  status: ('A' for Active; 'I' for Inactive)
REMARK    1  A    between atoms: C_1  and  O_2
REMARK    2  A    between atoms: O_2  and  C_3
REMARK    3  A    between atoms: C_7  and  O_8
REMARK    4  A    between atoms: O_8  and  C_9
REMARK    5  A    between atoms: C_10  and  C_11
REMARK    6  A    between atoms: C_14  and  C_15
REMARK    7  A    between atoms: C_15  and  N_17
REMARK                            x       y       z     vdW  Elec       q    Type
REMARK                         _______ _______ _______ _____ _____    ______ ____
ROOT
ATOM      1  C   UNL     1       4.386   4.870  18.821  0.00  0.00    +0.000 A 
ATOM      2  C   UNL     1       5.706   5.178  19.109  0.00  0.00    +0.000 A 
ATOM      3  C   UNL     1       6.308   5.601  17.898  0.00  0.00    +0.000 A 
ATOM      4  C   UNL     1       5.319   5.576  16.934  0.00  0.00    +0.000 A 
ATOM      5  O   UNL     1       4.151   5.126  17.496  0.00  0.00    +0.000 OA
ENDROOT
BRANCH   1  11
ATOM      6  C   UNL     1       2.227   5.149  20.064  0.00  0.00    +0.000 A 
ATOM      7  C   UNL     1       1.137   4.617  20.772  0.00  0.00    +0.000 A 
ATOM      8  C   UNL     1       1.095   3.270  21.096  0.00  0.00    +0.000 A 
ATOM      9  C   UNL     1       2.124   2.432  20.685  0.00  0.00    +0.000 A 
ATOM     10  C   UNL     1       3.195   2.921  19.919  0.00  0.00    +0.000 A 
ATOM     11  C   UNL     1       3.268   4.303  19.601  0.00  0.00    +0.000 A 
BRANCH   6  13
ATOM     12  C   UNL     1       1.640   7.341  20.729  0.00  0.00    +0.000 C 
ATOM     13  O   UNL     1       2.291   6.495  19.782  0.00  0.00    +0.000 OA
ENDBRANCH   6  13
BRANCH  10  14
ATOM     14  O   UNL     1       4.199   2.095  19.469  0.00  0.00    +0.000 OA
ATOM     15  C   UNL     1       3.880   1.195  18.415  0.00  0.00    +0.000 C 
ENDBRANCH  10  14
ENDBRANCH   1  11
BRANCH   4  16
ATOM     16  C   UNL     1       5.374   5.882  15.518  0.00  0.00    +0.000 C 
ATOM     17  O   UNL     1       5.270   7.018  15.062  0.00  0.00    +0.000 OA
BRANCH  16  18
ATOM     18  N   UNL     1       5.471   4.740  14.766  0.00  0.00    +0.000 NA
ATOM     19  C   UNL     1       6.524   4.551  14.056  0.00  0.00    +0.000 C 
ATOM     20  N   UNL     1       7.646   5.296  13.935  0.00  0.00    +0.000 N 
ATOM     21  N   UNL     1       6.615   3.447  13.278  0.00  0.00    +0.000 N 
ATOM     22  H   UNL     1       7.525   6.243  14.293  0.00  0.00    +0.000 HD
ATOM     23  H   UNL     1       7.998   5.321  12.986  0.00  0.00    +0.000 HD
ATOM     24  H   UNL     1       5.868   2.796  13.501  0.00  0.00    +0.000 HD
ATOM     25  H   UNL     1       7.520   2.997  13.338  0.00  0.00    +0.000 HD
ENDBRANCH  16  18
ENDBRANCH   4  16
TORSDOF 5
ENDMDL
MODEL 4
REMARK VINA RESULT:      -7.3      1.732      1.982
REMARK  Name = 
REMARK  7 active torsions:
REMARK  status: ('A' for Active; 'I' for Inactive)
REMARK    1  A    between atoms: C_1  and  O_2
REMARK    2  A    between atoms: O_2  and  C_3
REMARK    3  A    between atoms: C_7  and  O_8
REMARK    4  A    between atoms: O_8  and  C_9
REMARK    5  A    between atoms: C_10  and  C_11
REMARK    6  A    between atoms: C_14  and  C_15
REMARK    7  A    between atoms: C_15  and  N_17
REMARK                            x       y       z     vdW  Elec       q    Type
REMARK                         _______ _______ _______ _____ _____    ______ ____
ROOT
ATOM      1  C   UNL     1       3.798   5.158  17.948  0.00  0.00    +0.000 A 
ATOM      2  C   UNL     1       3.900   6.207  17.048  0.00  0.00    +0.000 A 
ATOM      3  C   UNL     1       5.245   6.245  16.604  0.00  0.00    +0.000 A 
ATOM      4  C   UNL     1       5.895   5.192  17.217  0.00  0.00    +0.000 A 
ATOM      5  O   UNL     1       5.015   4.534  18.039  0.00  0.00    +0.000 OA
ENDROOT
BRANCH   1  11
ATOM      6  C   UNL     1       2.183   3.352  18.592  0.00  0.00    +0.000 A 
ATOM      7  C   UNL     1       1.184   2.838  19.436  0.00  0.00    +0.000 A 
ATOM      8  C   UNL     1       0.651   3.614  20.453  0.00  0.00    +0.000 A 
ATOM      9  C   UNL     1       1.136   4.898  20.664  0.00  0.00    +0.000 A 
ATOM     10  C   UNL     1       2.179   5.418  19.880  0.00  0.00    +0.000 A 
ATOM     11  C   UNL     1       2.719   4.648  18.816  0.00  0.00    +0.000 A 
BRANCH   6  13
ATOM     12  C   UNL     1       3.469   1.476  17.946  0.00  0.00    +0.000 C 
ATOM     13  O   UNL     1       2.680   2.599  17.553  0.00  0.00    +0.000 OA
ENDBRANCH   6  13
BRANCH  10  14
ATOM     14  O   UNL     1       2.697   6.672  20.104  0.00  0.00    +0.000 OA
ATOM     15  C   UNL     1       1.828   7.781  19.906  0.00  0.00    +0.000 C 
ENDBRANCH  10  14
ENDBRANCH   1  11
BRANCH   4  16
ATOM     16  C   UNL     1       7.280   4.771  17.150  0.00  0.00    +0.000 C 
ATOM     17  O   UNL     1       7.897   4.624  16.098  0.00  0.00    +0.000 OA
BRANCH  16  18
ATOM     18  N   UNL     1       7.773   4.485  18.396  0.00  0.00    +0.000 NA
ATOM     19  C   UNL     1       8.171   5.449  19.145  0.00  0.00    +0.000 C 
ATOM     20  N   UNL     1       8.154   6.785  18.937  0.00  0.00    +0.000 N 
ATOM     21  N   UNL     1       8.698   5.176  20.362  0.00  0.00    +0.000 N 
ATOM     22  H   UNL     1       8.009   7.024  17.957  0.00  0.00    +0.000 HD
ATOM     23  H   UNL     1       8.984   7.245  19.292  0.00  0.00    +0.000 HD
ATOM     24  H   UNL     1       8.545   4.201  20.601  0.00  0.00    +0.000 HD
ATOM     25  H   UNL     1       8.347   5.788  21.088  0.00  0.00    +0.000 HD
ENDBRANCH  16  18
ENDBRANCH   4  16
TORSDOF 5
ENDMDL
MODEL 5
REMARK VINA RESULT:      -7.2      0.690      2.880
REMARK  Name = 
REMARK  7 active torsions:
REMARK  status: ('A' for Active; 'I' for Inactive)
REMARK    1  A    between atoms: C_1  and  O_2
REMARK    2  A    between atoms: O_2  and  C_3
REMARK    3  A    between atoms: C_7  and  O_8
REMARK    4  A    between atoms: O_8  and  C_9
REMARK    5  A    between atoms: C_10  and  C_11
REMARK    6  A    between atoms: C_14  and  C_15
REMARK    7  A    between atoms: C_15  and  N_17
REMARK                            x       y       z     vdW  Elec       q    Type
REMARK                         _______ _______ _______ _____ _____    ______ ____
ROOT
ATOM      1  C   UNL     1       4.107   3.977  17.906  0.00  0.00    +0.000 A 
ATOM      2  C   UNL     1       3.940   3.536  16.603  0.00  0.00    +0.000 A 
ATOM      3  C   UNL     1       5.028   4.042  15.850  0.00  0.00    +0.000 A 
ATOM      4  C   UNL     1       5.835   4.731  16.734  0.00  0.00    +0.000 A 
ATOM      5  O   UNL     1       5.270   4.695  17.984  0.00  0.00    +0.000 OA
ENDROOT
BRANCH   1  11
ATOM      6  C   UNL     1       2.337   4.877  19.437  0.00  0.00    +0.000 A 
ATOM      7  C   UNL     1       1.533   4.773  20.584  0.00  0.00    +0.000 A 
ATOM      8  C   UNL     1       1.715   3.733  21.481  0.00  0.00    +0.000 A 
ATOM      9  C   UNL     1       2.676   2.764  21.225  0.00  0.00    +0.000 A 
ATOM     10  C   UNL     1       3.452   2.804  20.055  0.00  0.00    +0.000 A 
ATOM     11  C   UNL     1       3.299   3.877  19.137  0.00  0.00    +0.000 A 
BRANCH   6  13
ATOM     12  C   UNL     1       2.440   7.220  19.136  0.00  0.00    +0.000 C 
ATOM     13  O   UNL     1       2.188   5.935  18.569  0.00  0.00    +0.000 OA
ENDBRANCH   6  13
BRANCH  10  14
ATOM     14  O   UNL     1       4.379   1.829  19.768  0.00  0.00    +0.000 OA
ATOM     15  C   UNL     1       5.174   1.348  20.845  0.00  0.00    +0.000 C 
ENDBRANCH  10  14
ENDBRANCH   1  11
BRANCH   4  16
ATOM     16  C   UNL     1       7.062   5.470  16.512  0.00  0.00    +0.000 C 
ATOM     17  O   UNL     1       7.527   5.700  15.399  0.00  0.00    +0.000 OA
BRANCH  16  18
ATOM     18  N   UNL     1       7.665   5.801  17.698  0.00  0.00    +0.000 NA
ATOM     19  C   UNL     1       7.876   7.039  17.965  0.00  0.00    +0.000 C 
ATOM     20  N   UNL     1       7.557   8.153  17.268  0.00  0.00    +0.000 N 
ATOM     21  N   UNL     1       8.507   7.376  19.114  0.00  0.00    +0.000 N 
ATOM     22  H   UNL     1       7.316   7.950  16.298  0.00  0.00    +0.000 HD
ATOM     23  H   UNL     1       8.281   8.860  17.309  0.00  0.00    +0.000 HD
ATOM     24  H   UNL     1       8.583   6.568  19.724  0.00  0.00    +0.000 HD
ATOM     25  H   UNL     1       8.066   8.152  19.591  0.00  0.00    +0.000 HD
ENDBRANCH  16  18
ENDBRANCH   4  16
TORSDOF 5
ENDMDL
MODEL 6
REMARK VINA RESULT:      -7.2      2.205      2.761
REMARK  Name = 
REMARK  7 active torsions:
REMARK  status: ('A' for Active; 'I' for Inactive)
REMARK    1  A    between atoms: C_1  and  O_2
REMARK    2  A    between atoms: O_2  and  C_3
REMARK    3  A    between atoms: C_7  and  O_8
REMARK    4  A    between atoms: O_8  and  C_9
REMARK    5  A    between atoms: C_10  and  C_11
REMARK    6  A    between atoms: C_14  and  C_15
REMARK    7  A    between atoms: C_15  and  N_17
REMARK                            x       y       z     vdW  Elec       q    Type
REMARK                         _______ _______ _______ _____ _____    ______ ____
ROOT
ATOM      1  C   UNL     1       4.493   4.908  18.910  0.00  0.00    +0.000 A 
ATOM      2  C   UNL     1       5.801   5.285  19.175  0.00  0.00    +0.000 A 
ATOM      3  C   UNL     1       6.365   5.718  17.950  0.00  0.00    +0.000 A 
ATOM      4  C   UNL     1       5.367   5.630  17.000  0.00  0.00    +0.000 A 
ATOM      5  O   UNL     1       4.230   5.131  17.585  0.00  0.00    +0.000 OA
ENDROOT
BRANCH   1  11
ATOM      6  C   UNL     1       3.564   2.979  20.214  0.00  0.00    +0.000 A 
ATOM      7  C   UNL     1       2.564   2.402  21.015  0.00  0.00    +0.000 A 
ATOM      8  C   UNL     1       1.383   3.082  21.266  0.00  0.00    +0.000 A 
ATOM      9  C   UNL     1       1.202   4.360  20.754  0.00  0.00    +0.000 A 
ATOM     10  C   UNL     1       2.210   4.990  20.005  0.00  0.00    +0.000 A 
ATOM     11  C   UNL     1       3.416   4.299  19.713  0.00  0.00    +0.000 A 
BRANCH   6  13
ATOM     12  C   UNL     1       5.152   1.387  20.945  0.00  0.00    +0.000 C 
ATOM     13  O   UNL     1       4.718   2.286  19.925  0.00  0.00    +0.000 OA
ENDBRANCH   6  13
BRANCH  10  14
ATOM     14  O   UNL     1       2.061   6.271  19.526  0.00  0.00    +0.000 OA
ATOM     15  C   UNL     1       1.827   7.300  20.479  0.00  0.00    +0.000 C 
ENDBRANCH  10  14
ENDBRANCH   1  11
BRANCH   4  16
ATOM     16  C   UNL     1       5.388   5.916  15.579  0.00  0.00    +0.000 C 
ATOM     17  O   UNL     1       5.275   7.045  15.110  0.00  0.00    +0.000 OA
BRANCH  16  18
ATOM     18  N   UNL     1       5.467   4.763  14.841  0.00  0.00    +0.000 NA
ATOM     19  C   UNL     1       6.509   4.555  14.121  0.00  0.00    +0.000 C 
ATOM     20  N   UNL     1       7.636   5.288  13.978  0.00  0.00    +0.000 N 
ATOM     21  N   UNL     1       6.581   3.441  13.356  0.00  0.00    +0.000 N 
ATOM     22  H   UNL     1       7.528   6.241  14.324  0.00  0.00    +0.000 HD
ATOM     23  H   UNL     1       7.977   5.299  13.024  0.00  0.00    +0.000 HD
ATOM     24  H   UNL     1       5.830   2.800  13.597  0.00  0.00    +0.000 HD
ATOM     25  H   UNL     1       7.482   2.983  13.412  0.00  0.00    +0.000 HD
ENDBRANCH  16  18
ENDBRANCH   4  16
TORSDOF 5
ENDMDL
MODEL 7
REMARK VINA RESULT:      -7.1      1.988      2.586
REMARK  Name = 
REMARK  7 active torsions:
REMARK  status: ('A' for Active; 'I' for Inactive)
REMARK    1  A    between atoms: C_1  and  O_2
REMARK    2  A    between atoms: O_2  and  C_3
REMARK    3  A    between atoms: C_7  and  O_8
REMARK    4  A    between atoms: O_8  and  C_9
REMARK    5  A    between atoms: C_10  and  C_11
REMARK    6  A    between atoms: C_14  and  C_15
REMARK    7  A    between atoms: C_15  and  N_17
REMARK                            x       y       z     vdW  Elec       q    Type
REMARK                         _______ _______ _______ _____ _____    ______ ____
ROOT
ATOM      1  C   UNL     1       3.826   5.482  17.866  0.00  0.00    +0.000 A 
ATOM      2  C   UNL     1       3.876   6.660  17.136  0.00  0.00    +0.000 A 
ATOM      3  C   UNL     1       5.145   6.705  16.507  0.00  0.00    +0.000 A 
ATOM      4  C   UNL     1       5.796   5.535  16.843  0.00  0.00    +0.000 A 
ATOM      5  O   UNL     1       4.995   4.794  17.675  0.00  0.00    +0.000 OA
ENDROOT
BRANCH   1  11
ATOM      6  C   UNL     1       2.465   3.529  18.651  0.00  0.00    +0.000 A 
ATOM      7  C   UNL     1       1.564   2.941  19.553  0.00  0.00    +0.000 A 
ATOM      8  C   UNL     1       0.970   3.696  20.551  0.00  0.00    +0.000 A 
ATOM      9  C   UNL     1       1.298   5.039  20.684  0.00  0.00    +0.000 A 
ATOM     10  C   UNL     1       2.246   5.641  19.840  0.00  0.00    +0.000 A 
ATOM     11  C   UNL     1       2.844   4.890  18.794  0.00  0.00    +0.000 A 
BRANCH   6  13
ATOM     12  C   UNL     1       3.623   1.561  18.037  0.00  0.00    +0.000 C 
ATOM     13  O   UNL     1       3.020   2.789  17.631  0.00  0.00    +0.000 OA
ENDBRANCH   6  13
BRANCH  10  14
ATOM     14  O   UNL     1       2.611   6.959  19.986  0.00  0.00    +0.000 OA
ATOM     15  C   UNL     1       1.638   7.851  20.515  0.00  0.00    +0.000 C 
ENDBRANCH  10  14
ENDBRANCH   1  11
BRANCH   4  16
ATOM     16  C   UNL     1       7.125   5.063  16.505  0.00  0.00    +0.000 C 
ATOM     17  O   UNL     1       7.827   4.402  17.266  0.00  0.00    +0.000 OA
BRANCH  16  18
ATOM     18  N   UNL     1       7.516   5.519  15.273  0.00  0.00    +0.000 NA
ATOM     19  C   UNL     1       7.196   4.843  14.229  0.00  0.00    +0.000 C 
ATOM     20  N   UNL     1       6.462   3.715  14.106  0.00  0.00    +0.000 N 
ATOM     21  N   UNL     1       7.611   5.261  13.011  0.00  0.00    +0.000 N 
ATOM     22  H   UNL     1       6.344   3.228  14.995  0.00  0.00    +0.000 HD
ATOM     23  H   UNL     1       6.831   3.083  13.406  0.00  0.00    +0.000 HD
ATOM     24  H   UNL     1       8.000   6.197  13.073  0.00  0.00    +0.000 HD
ATOM     25  H   UNL     1       6.881   5.217  12.310  0.00  0.00    +0.000 HD
ENDBRANCH  16  18
ENDBRANCH   4  16
TORSDOF 5
ENDMDL
MODEL 8
REMARK VINA RESULT:      -7.1      1.978      3.542
REMARK  Name = 
REMARK  7 active torsions:
REMARK  status: ('A' for Active; 'I' for Inactive)
REMARK    1  A    between atoms: C_1  and  O_2
REMARK    2  A    between atoms: O_2  and  C_3
REMARK    3  A    between atoms: C_7  and  O_8
REMARK    4  A    between atoms: O_8  and  C_9
REMARK    5  A    between atoms: C_10  and  C_11
REMARK    6  A    between atoms: C_14  and  C_15
REMARK    7  A    between atoms: C_15  and  N_17
REMARK                            x       y       z     vdW  Elec       q    Type
REMARK                         _______ _______ _______ _____ _____    ______ ____
ROOT
ATOM      1  C   UNL     1       3.904   5.483  17.893  0.00  0.00    +0.000 A 
ATOM      2  C   UNL     1       3.993   6.707  17.249  0.00  0.00    +0.000 A 
ATOM      3  C   UNL     1       5.250   6.742  16.596  0.00  0.00    +0.000 A 
ATOM      4  C   UNL     1       5.854   5.523  16.832  0.00  0.00    +0.000 A 
ATOM      5  O   UNL     1       5.036   4.759  17.626  0.00  0.00    +0.000 OA
ENDROOT
BRANCH   1  11
ATOM      6  C   UNL     1       2.264   5.658  19.781  0.00  0.00    +0.000 A 
ATOM      7  C   UNL     1       1.291   5.094  20.622  0.00  0.00    +0.000 A 
ATOM      8  C   UNL     1       1.003   3.740  20.559  0.00  0.00    +0.000 A 
ATOM      9  C   UNL     1       1.657   2.941  19.630  0.00  0.00    +0.000 A 
ATOM     10  C   UNL     1       2.587   3.487  18.731  0.00  0.00    +0.000 A 
ATOM     11  C   UNL     1       2.915   4.867  18.799  0.00  0.00    +0.000 A 
BRANCH   6  13
ATOM     12  C   UNL     1       1.647   7.788  20.602  0.00  0.00    +0.000 C 
ATOM     13  O   UNL     1       2.583   6.994  19.875  0.00  0.00    +0.000 OA
ENDBRANCH   6  13
BRANCH  10  14
ATOM     14  O   UNL     1       3.211   2.715  17.778  0.00  0.00    +0.000 OA
ATOM     15  C   UNL     1       3.688   1.437  18.184  0.00  0.00    +0.000 C 
ENDBRANCH  10  14
ENDBRANCH   1  11
BRANCH   4  16
ATOM     16  C   UNL     1       7.153   5.020  16.430  0.00  0.00    +0.000 C 
ATOM     17  O   UNL     1       7.851   4.296  17.135  0.00  0.00    +0.000 OA
BRANCH  16  18
ATOM     18  N   UNL     1       7.525   5.521  15.209  0.00  0.00    +0.000 NA
ATOM     19  C   UNL     1       7.223   4.864  14.148  0.00  0.00    +0.000 C 
ATOM     20  N   UNL     1       6.525   3.716  13.997  0.00  0.00    +0.000 N 
ATOM     21  N   UNL     1       7.620   5.327  12.940  0.00  0.00    +0.000 N 
ATOM     22  H   UNL     1       6.426   3.202  14.872  0.00  0.00    +0.000 HD
ATOM     23  H   UNL     1       6.912   3.115  13.279  0.00  0.00    +0.000 HD
ATOM     24  H   UNL     1       7.979   6.274  13.027  0.00  0.00    +0.000 HD
ATOM     25  H   UNL     1       6.889   5.278  12.241  0.00  0.00    +0.000 HD
ENDBRANCH  16  18
ENDBRANCH   4  16
TORSDOF 5
ENDMDL
MODEL 9
REMARK VINA RESULT:      -7.1      2.022      2.677
REMARK  Name = 
REMARK  7 active torsions:
REMARK  status: ('A' for Active; 'I' for Inactive)
REMARK    1  A    between atoms: C_1  and  O_2
REMARK    2  A    between atoms: O_2  and  C_3
REMARK    3  A    between atoms: C_7  and  O_8
REMARK    4  A    between atoms: O_8  and  C_9
REMARK    5  A    between atoms: C_10  and  C_11
REMARK    6  A    between atoms: C_14  and  C_15
REMARK    7  A    between atoms: C_15  and  N_17
REMARK                            x       y       z     vdW  Elec       q    Type
REMARK                         _______ _______ _______ _____ _____    ______ ____
ROOT
ATOM      1  C   UNL     1       4.987   4.787  18.665  0.00  0.00    +0.000 A 
ATOM      2  C   UNL     1       6.243   5.276  18.993  0.00  0.00    +0.000 A 
ATOM      3  C   UNL     1       7.045   5.174  17.830  0.00  0.00    +0.000 A 
ATOM      4  C   UNL     1       6.234   4.670  16.832  0.00  0.00    +0.000 A 
ATOM      5  O   UNL     1       4.984   4.430  17.343  0.00  0.00    +0.000 OA
ENDROOT
BRANCH   1  11
ATOM      6  C   UNL     1       3.423   3.222  19.845  0.00  0.00    +0.000 A 
ATOM      7  C   UNL     1       2.269   2.979  20.607  0.00  0.00    +0.000 A 
ATOM      8  C   UNL     1       1.388   4.008  20.902  0.00  0.00    +0.000 A 
ATOM      9  C   UNL     1       1.669   5.298  20.471  0.00  0.00    +0.000 A 
ATOM     10  C   UNL     1       2.848   5.586  19.763  0.00  0.00    +0.000 A 
ATOM     11  C   UNL     1       3.749   4.540  19.429  0.00  0.00    +0.000 A 
BRANCH   6  13
ATOM     12  C   UNL     1       3.758   1.268  18.558  0.00  0.00    +0.000 C 
ATOM     13  O   UNL     1       4.275   2.193  19.513  0.00  0.00    +0.000 OA
ENDBRANCH   6  13
BRANCH  10  14
ATOM     14  O   UNL     1       3.159   6.866  19.366  0.00  0.00    +0.000 OA
ATOM     15  C   UNL     1       2.445   7.396  18.256  0.00  0.00    +0.000 C 
ENDBRANCH  10  14
ENDBRANCH   1  11
BRANCH   4  16
ATOM     16  C   UNL     1       6.531   4.337  15.452  0.00  0.00    +0.000 C 
ATOM     17  O   UNL     1       6.036   3.382  14.860  0.00  0.00    +0.000 OA
BRANCH  16  18
ATOM     18  N   UNL     1       7.487   5.172  14.934  0.00  0.00    +0.000 NA
ATOM     19  C   UNL     1       7.699   5.166  13.668  0.00  0.00    +0.000 C 
ATOM     20  N   UNL     1       7.088   4.474  12.681  0.00  0.00    +0.000 N 
ATOM     21  N   UNL     1       8.668   5.955  13.150  0.00  0.00    +0.000 N 
ATOM     22  H   UNL     1       6.538   3.692  13.035  0.00  0.00    +0.000 HD
ATOM     23  H   UNL     1       7.735   4.154  11.970  0.00  0.00    +0.000 HD
ATOM     24  H   UNL     1       9.003   6.609  13.851  0.00  0.00    +0.000 HD
ATOM     25  H   UNL     1       8.373   6.441  12.312  0.00  0.00    +0.000 HD
ENDBRANCH  16  18
ENDBRANCH   4  16
TORSDOF 5
ENDMDL
