MODEL 1
REMARK VINA RESULT:      -8.7      0.000      0.000
REMARK  Name = 
REMARK  7 active torsions:
REMARK  status: ('A' for Active; 'I' for Inactive)
REMARK    1  A    between atoms: C_1  and  C_2
REMARK    2  A    between atoms: C_2  and  O_3
REMARK    3  A    between atoms: C_2  and  C_19
REMARK    4  A    between atoms: O_3  and  C_4
REMARK    5  A    between atoms: C_4  and  C_6
REMARK    6  A    between atoms: C_6  and  N_7
REMARK    7  A    between atoms: C_19  and  C_21
REMARK                            x       y       z     vdW  Elec       q    Type
REMARK                         _______ _______ _______ _____ _____    ______ ____
ROOT
ATOM      1  C   UNL     1       6.691   5.860  18.608  0.00  0.00    +0.000 C 
ENDROOT
BRANCH   1   2
ATOM      2  N   UNL     1       5.567   4.929  18.564  0.00  0.00    +0.000 N 
ATOM      3  N   UNL     1       5.798   3.674  19.153  0.00  0.00    +0.000 N 
ATOM      4  C   UNL     1       4.770   2.857  19.567  0.00  0.00    +0.000 A 
ATOM      5  O   UNL     1       4.974   1.874  20.271  0.00  0.00    +0.000 OA
ATOM      6  C   UNL     1       3.416   3.204  19.106  0.00  0.00    +0.000 A 
ATOM      7  C   UNL     1       2.346   2.332  19.346  0.00  0.00    +0.000 A 
ATOM      8  C   UNL     1       1.071   2.644  18.870  0.00  0.00    +0.000 A 
ATOM      9  C   UNL     1       0.863   3.818  18.146  0.00  0.00    +0.000 A 
ATOM     10  C   UNL     1       1.922   4.703  17.933  0.00  0.00    +0.000 A 
ATOM     11  C   UNL     1       3.197   4.401  18.432  0.00  0.00    +0.000 A 
ATOM     12  C   UNL     1       4.288   5.378  18.284  0.00  0.00    +0.000 A 
ATOM     13  O   UNL     1       4.039   6.533  17.950  0.00  0.00    +0.000 OA
ATOM     14  H   UNL     1       6.686   3.517  19.628  0.00  0.00    +0.000 HD
ENDBRANCH   1   2
BRANCH   1  15
ATOM     15  C   UNL     1       7.170   6.121  17.192  0.00  0.00    +0.000 C 
ATOM     16  O   UNL     1       7.324   7.245  16.728  0.00  0.00    +0.000 OA
BRANCH  15  17
ATOM     17  O   UNL     1       7.308   4.967  16.487  0.00  0.00    +0.000 OA
BRANCH  17  19
ATOM     18  C   UNL     1       5.695   3.365  15.752  0.00  0.00    +0.000 C 
ATOM     19  C   UNL     1       6.298   4.747  15.492  0.00  0.00    +0.000 C 
BRANCH  19  20
ATOM     20  C   UNL     1       6.903   4.811  14.086  0.00  0.00    +0.000 C 
ATOM     21  O   UNL     1       7.876   5.519  13.824  0.00  0.00    +0.000 OA
BRANCH  20  22
ATOM     22  C   UNL     1       6.339   3.947  13.002  0.00  0.00    +0.000 A 
ATOM     23  C   UNL     1       4.978   3.932  12.667  0.00  0.00    +0.000 A 
ATOM     24  C   UNL     1       4.515   3.087  11.652  0.00  0.00    +0.000 A 
ATOM     25  C   UNL     1       5.400   2.252  10.972  0.00  0.00    +0.000 A 
ATOM     26  C   UNL     1       6.753   2.257  11.304  0.00  0.00    +0.000 A 
ATOM     27  C   UNL     1       7.218   3.101  12.312  0.00  0.00    +0.000 A 
ENDBRANCH  20  22
ENDBRANCH  19  20
ENDBRANCH  17  19
ENDBRANCH  15  17
ENDBRANCH   1  15
TORSDOF 6
ENDMDL
MODEL 2
REMARK VINA RESULT:      -8.5      0.914      1.408
REMARK  Name = 
REMARK  7 active torsions:
REMARK  status: ('A' for Active; 'I' for Inactive)
REMARK    1  A    between atoms: C_1  and  C_2
REMARK    2  A    between atoms: C_2  and  O_3
REMARK    3  A    between atoms: C_2  and  C_19
REMARK    4  A    between atoms: O_3  and  C_4
REMARK    5  A    between atoms: C_4  and  C_6
REMARK    6  A    between atoms: C_6  and  N_7
REMARK    7  A    between atoms: C_19  and  C_21
REMARK                            x       y       z     vdW  Elec       q    Type
REMARK                         _______ _______ _______ _____ _____    ______ ____
ROOT
ATOM      1  C   UNL     1       6.468   5.736  18.243  0.00  0.00    +0.000 C 
ENDROOT
BRANCH   1   2
ATOM      2  N   UNL     1       5.346   4.889  18.640  0.00  0.00    +0.000 N 
ATOM      3  N   UNL     1       5.690   3.609  19.106  0.00  0.00    +0.000 N 
ATOM      4  C   UNL     1       4.840   2.859  19.888  0.00  0.00    +0.000 A 
ATOM      5  O   UNL     1       5.223   1.850  20.469  0.00  0.00    +0.000 OA
ATOM      6  C   UNL     1       3.442   3.313  19.976  0.00  0.00    +0.000 A 
ATOM      7  C   UNL     1       2.484   2.515  20.615  0.00  0.00    +0.000 A 
ATOM      8  C   UNL     1       1.150   2.928  20.659  0.00  0.00    +0.000 A 
ATOM      9  C   UNL     1       0.770   4.129  20.059  0.00  0.00    +0.000 A 
ATOM     10  C   UNL     1       1.730   4.939  19.451  0.00  0.00    +0.000 A 
ATOM     11  C   UNL     1       3.072   4.536  19.427  0.00  0.00    +0.000 A 
ATOM     12  C   UNL     1       4.094   5.435  18.865  0.00  0.00    +0.000 A 
ATOM     13  O   UNL     1       3.823   6.612  18.643  0.00  0.00    +0.000 OA
ATOM     14  H   UNL     1       6.678   3.378  19.207  0.00  0.00    +0.000 HD
ENDBRANCH   1   2
BRANCH   1  15
ATOM     15  C   UNL     1       7.049   5.207  16.945  0.00  0.00    +0.000 C 
ATOM     16  O   UNL     1       7.910   4.335  16.896  0.00  0.00    +0.000 OA
BRANCH  15  17
ATOM     17  O   UNL     1       6.571   5.883  15.867  0.00  0.00    +0.000 OA
BRANCH  17  19
ATOM     18  C   UNL     1       5.566   3.737  15.561  0.00  0.00    +0.000 C 
ATOM     19  C   UNL     1       5.917   5.065  14.887  0.00  0.00    +0.000 C 
BRANCH  19  20
ATOM     20  C   UNL     1       6.835   4.828  13.683  0.00  0.00    +0.000 C 
ATOM     21  O   UNL     1       7.879   5.462  13.521  0.00  0.00    +0.000 OA
BRANCH  20  22
ATOM     22  C   UNL     1       6.495   3.754  12.698  0.00  0.00    +0.000 A 
ATOM     23  C   UNL     1       7.460   2.931  12.100  0.00  0.00    +0.000 A 
ATOM     24  C   UNL     1       7.073   1.957  11.173  0.00  0.00    +0.000 A 
ATOM     25  C   UNL     1       5.731   1.801  10.833  0.00  0.00    +0.000 A 
ATOM     26  C   UNL     1       4.767   2.620  11.418  0.00  0.00    +0.000 A 
ATOM     27  C   UNL     1       5.148   3.589  12.345  0.00  0.00    +0.000 A 
ENDBRANCH  20  22
ENDBRANCH  19  20
ENDBRANCH  17  19
ENDBRANCH  15  17
ENDBRANCH   1  15
TORSDOF 6
ENDMDL
MODEL 3
REMARK VINA RESULT:      -8.3      4.713      6.805
REMARK  Name = 
REMARK  7 active torsions:
REMARK  status: ('A' for Active; 'I' for Inactive)
REMARK    1  A    between atoms: C_1  and  C_2
REMARK    2  A    between atoms: C_2  and  O_3
REMARK    3  A    between atoms: C_2  and  C_19
REMARK    4  A    between atoms: O_3  and  C_4
REMARK    5  A    between atoms: C_4  and  C_6
REMARK    6  A    between atoms: C_6  and  N_7
REMARK    7  A    between atoms: C_19  and  C_21
REMARK                            x       y       z     vdW  Elec       q    Type
REMARK                         _______ _______ _______ _____ _____    ______ ____
ROOT
ATOM      1  C   UNL     1       2.660   7.250  19.597  0.00  0.00    +0.000 C 
ENDROOT
BRANCH   1   2
ATOM      2  N   UNL     1       1.644   8.148  20.139  0.00  0.00    +0.000 N 
ATOM      3  N   UNL     1       1.614   8.254  21.540  0.00  0.00    +0.000 N 
ATOM      4  C   UNL     1       1.035   9.324  22.184  0.00  0.00    +0.000 A 
ATOM      5  O   UNL     1       1.203   9.521  23.382  0.00  0.00    +0.000 OA
ATOM      6  C   UNL     1       0.185  10.210  21.371  0.00  0.00    +0.000 A 
ATOM      7  C   UNL     1      -0.567  11.219  21.985  0.00  0.00    +0.000 A 
ATOM      8  C   UNL     1      -1.405  12.031  21.217  0.00  0.00    +0.000 A 
ATOM      9  C   UNL     1      -1.501  11.830  19.840  0.00  0.00    +0.000 A 
ATOM     10  C   UNL     1      -0.728  10.845  19.223  0.00  0.00    +0.000 A 
ATOM     11  C   UNL     1       0.131  10.047  19.991  0.00  0.00    +0.000 A 
ATOM     12  C   UNL     1       1.011   9.073  19.325  0.00  0.00    +0.000 A 
ATOM     13  O   UNL     1       1.174   9.121  18.109  0.00  0.00    +0.000 OA
ATOM     14  H   UNL     1       2.330   7.768  22.078  0.00  0.00    +0.000 HD
ENDBRANCH   1   2
BRANCH   1  15
ATOM     15  C   UNL     1       2.325   5.827  20.002  0.00  0.00    +0.000 C 
ATOM     16  O   UNL     1       1.443   5.543  20.805  0.00  0.00    +0.000 OA
BRANCH  15  17
ATOM     17  O   UNL     1       3.181   4.930  19.444  0.00  0.00    +0.000 OA
BRANCH  17  19
ATOM     18  C   UNL     1       2.120   3.902  17.567  0.00  0.00    +0.000 C 
ATOM     19  C   UNL     1       3.181   4.912  18.010  0.00  0.00    +0.000 C 
BRANCH  19  20
ATOM     20  C   UNL     1       4.559   4.509  17.475  0.00  0.00    +0.000 C 
ATOM     21  O   UNL     1       4.718   3.529  16.747  0.00  0.00    +0.000 OA
BRANCH  20  22
ATOM     22  C   UNL     1       5.749   5.359  17.794  0.00  0.00    +0.000 A 
ATOM     23  C   UNL     1       6.657   5.052  18.816  0.00  0.00    +0.000 A 
ATOM     24  C   UNL     1       7.741   5.900  19.071  0.00  0.00    +0.000 A 
ATOM     25  C   UNL     1       7.922   7.058  18.316  0.00  0.00    +0.000 A 
ATOM     26  C   UNL     1       7.019   7.374  17.302  0.00  0.00    +0.000 A 
ATOM     27  C   UNL     1       5.941   6.528  17.044  0.00  0.00    +0.000 A 
ENDBRANCH  20  22
ENDBRANCH  19  20
ENDBRANCH  17  19
ENDBRANCH  15  17
ENDBRANCH   1  15
TORSDOF 6
ENDMDL
MODEL 4
REMARK VINA RESULT:      -8.3      0.818      2.037
REMARK  Name = 
REMARK  7 active torsions:
REMARK  status: ('A' for Active; 'I' for Inactive)
REMARK    1  A    between atoms: C_1  and  C_2
REMARK    2  A    between atoms: C_2  and  O_3
REMARK    3  A    between atoms: C_2  and  C_19
REMARK    4  A    between atoms: O_3  and  C_4
REMARK    5  A    between atoms: C_4  and  C_6
REMARK    6  A    between atoms: C_6  and  N_7
REMARK    7  A    between atoms: C_19  and  C_21
REMARK                            x       y       z     vdW  Elec       q    Type
REMARK                         _______ _______ _______ _____ _____    ______ ____
ROOT
ATOM      1  C   UNL     1       6.781   5.808  18.787  0.00  0.00    +0.000 C 
ENDROOT
BRANCH   1   2
ATOM      2  N   UNL     1       5.378   5.440  18.951  0.00  0.00    +0.000 N 
ATOM      3  N   UNL     1       4.448   6.360  18.436  0.00  0.00    +0.000 N 
ATOM      4  C   UNL     1       3.154   6.003  18.131  0.00  0.00    +0.000 A 
ATOM      5  O   UNL     1       2.418   6.741  17.484  0.00  0.00    +0.000 OA
ATOM      6  C   UNL     1       2.684   4.703  18.637  0.00  0.00    +0.000 A 
ATOM      7  C   UNL     1       1.336   4.345  18.511  0.00  0.00    +0.000 A 
ATOM      8  C   UNL     1       0.885   3.129  19.030  0.00  0.00    +0.000 A 
ATOM      9  C   UNL     1       1.775   2.276  19.684  0.00  0.00    +0.000 A 
ATOM     10  C   UNL     1       3.124   2.618  19.783  0.00  0.00    +0.000 A 
ATOM     11  C   UNL     1       3.581   3.827  19.240  0.00  0.00    +0.000 A 
ATOM     12  C   UNL     1       5.019   4.141  19.266  0.00  0.00    +0.000 A 
ATOM     13  O   UNL     1       5.836   3.264  19.534  0.00  0.00    +0.000 OA
ATOM     14  H   UNL     1       4.798   7.171  17.928  0.00  0.00    +0.000 HD
ENDBRANCH   1   2
BRANCH   1  15
ATOM     15  C   UNL     1       7.004   6.282  17.363  0.00  0.00    +0.000 C 
ATOM     16  O   UNL     1       6.866   7.448  17.011  0.00  0.00    +0.000 OA
BRANCH  15  17
ATOM     17  O   UNL     1       7.275   5.247  16.525  0.00  0.00    +0.000 OA
BRANCH  17  19
ATOM     18  C   UNL     1       5.589   3.691  15.858  0.00  0.00    +0.000 C 
ATOM     19  C   UNL     1       6.279   5.014  15.519  0.00  0.00    +0.000 C 
BRANCH  19  20
ATOM     20  C   UNL     1       6.922   4.941  14.130  0.00  0.00    +0.000 C 
ATOM     21  O   UNL     1       7.947   5.564  13.850  0.00  0.00    +0.000 OA
BRANCH  20  22
ATOM     22  C   UNL     1       6.329   4.044  13.090  0.00  0.00    +0.000 A 
ATOM     23  C   UNL     1       4.970   4.067  12.744  0.00  0.00    +0.000 A 
ATOM     24  C   UNL     1       4.478   3.188  11.773  0.00  0.00    +0.000 A 
ATOM     25  C   UNL     1       5.331   2.280  11.147  0.00  0.00    +0.000 A 
ATOM     26  C   UNL     1       6.681   2.247  11.491  0.00  0.00    +0.000 A 
ATOM     27  C   UNL     1       7.175   3.125  12.455  0.00  0.00    +0.000 A 
ENDBRANCH  20  22
ENDBRANCH  19  20
ENDBRANCH  17  19
ENDBRANCH  15  17
ENDBRANCH   1  15
TORSDOF 6
ENDMDL
MODEL 5
REMARK VINA RESULT:      -8.1      4.387      6.035
REMARK  Name = 
REMARK  7 active torsions:
REMARK  status: ('A' for Active; 'I' for Inactive)
REMARK    1  A    between atoms: C_1  and  C_2
REMARK    2  A    between atoms: C_2  and  O_3
REMARK    3  A    between atoms: C_2  and  C_19
REMARK    4  A    between atoms: O_3  and  C_4
REMARK    5  A    between atoms: C_4  and  C_6
REMARK    6  A    between atoms: C_6  and  N_7
REMARK    7  A    between atoms: C_19  and  C_21
REMARK                            x       y       z     vdW  Elec       q    Type
REMARK                         _______ _______ _______ _____ _____    ______ ____
ROOT
ATOM      1  C   UNL     1       2.905   6.724  19.556  0.00  0.00    +0.000 C 
ENDROOT
BRANCH   1   2
ATOM      2  N   UNL     1       1.928   7.748  19.919  0.00  0.00    +0.000 N 
ATOM      3  N   UNL     1       1.762   7.964  21.298  0.00  0.00    +0.000 N 
ATOM      4  C   UNL     1       1.225   9.127  21.800  0.00  0.00    +0.000 A 
ATOM      5  O   UNL     1       1.284   9.401  22.993  0.00  0.00    +0.000 OA
ATOM      6  C   UNL     1       0.553  10.019  20.840  0.00  0.00    +0.000 A 
ATOM      7  C   UNL     1      -0.159  11.135  21.297  0.00  0.00    +0.000 A 
ATOM      8  C   UNL     1      -0.830  11.955  20.387  0.00  0.00    +0.000 A 
ATOM      9  C   UNL     1      -0.801  11.658  19.024  0.00  0.00    +0.000 A 
ATOM     10  C   UNL     1      -0.065  10.564  18.565  0.00  0.00    +0.000 A 
ATOM     11  C   UNL     1       0.628   9.755  19.476  0.00  0.00    +0.000 A 
ATOM     12  C   UNL     1       1.476   8.658  18.979  0.00  0.00    +0.000 A 
ATOM     13  O   UNL     1       1.768   8.597  17.788  0.00  0.00    +0.000 OA
ATOM     14  H   UNL     1       2.369   7.460  21.944  0.00  0.00    +0.000 HD
ENDBRANCH   1   2
BRANCH   1  15
ATOM     15  C   UNL     1       2.442   5.386  20.101  0.00  0.00    +0.000 C 
ATOM     16  O   UNL     1       1.334   5.206  20.595  0.00  0.00    +0.000 OA
BRANCH  15  17
ATOM     17  O   UNL     1       3.432   4.457  20.061  0.00  0.00    +0.000 OA
BRANCH  17  19
ATOM     18  C   UNL     1       3.462   2.523  18.658  0.00  0.00    +0.000 C 
ATOM     19  C   UNL     1       3.788   4.015  18.743  0.00  0.00    +0.000 C 
BRANCH  19  20
ATOM     20  C   UNL     1       5.279   4.253  18.480  0.00  0.00    +0.000 C 
ATOM     21  O   UNL     1       6.109   4.272  19.389  0.00  0.00    +0.000 OA
BRANCH  20  22
ATOM     22  C   UNL     1       5.761   4.410  17.072  0.00  0.00    +0.000 A 
ATOM     23  C   UNL     1       7.094   4.700  16.749  0.00  0.00    +0.000 A 
ATOM     24  C   UNL     1       7.475   4.850  15.410  0.00  0.00    +0.000 A 
ATOM     25  C   UNL     1       6.533   4.719  14.391  0.00  0.00    +0.000 A 
ATOM     26  C   UNL     1       5.205   4.438  14.705  0.00  0.00    +0.000 A 
ATOM     27  C   UNL     1       4.824   4.283  16.038  0.00  0.00    +0.000 A 
ENDBRANCH  20  22
ENDBRANCH  19  20
ENDBRANCH  17  19
ENDBRANCH  15  17
ENDBRANCH   1  15
TORSDOF 6
ENDMDL
MODEL 6
REMARK VINA RESULT:      -8.1      3.034      4.258
REMARK  Name = 
REMARK  7 active torsions:
REMARK  status: ('A' for Active; 'I' for Inactive)
REMARK    1  A    between atoms: C_1  and  C_2
REMARK    2  A    between atoms: C_2  and  O_3
REMARK    3  A    between atoms: C_2  and  C_19
REMARK    4  A    between atoms: O_3  and  C_4
REMARK    5  A    between atoms: C_4  and  C_6
REMARK    6  A    between atoms: C_6  and  N_7
REMARK    7  A    between atoms: C_19  and  C_21
REMARK                            x       y       z     vdW  Elec       q    Type
REMARK                         _______ _______ _______ _____ _____    ______ ____
ROOT
ATOM      1  C   UNL     1       3.587   4.535  19.089  0.00  0.00    +0.000 C 
ENDROOT
BRANCH   1   2
ATOM      2  N   UNL     1       3.096   5.897  19.285  0.00  0.00    +0.000 N 
ATOM      3  N   UNL     1       3.281   6.769  18.198  0.00  0.00    +0.000 N 
ATOM      4  C   UNL     1       2.538   7.918  18.044  0.00  0.00    +0.000 A 
ATOM      5  O   UNL     1       2.546   8.553  16.995  0.00  0.00    +0.000 OA
ATOM      6  C   UNL     1       1.750   8.362  19.206  0.00  0.00    +0.000 A 
ATOM      7  C   UNL     1       1.103   9.604  19.182  0.00  0.00    +0.000 A 
ATOM      8  C   UNL     1       0.391  10.042  20.301  0.00  0.00    +0.000 A 
ATOM      9  C   UNL     1       0.334   9.248  21.447  0.00  0.00    +0.000 A 
ATOM     10  C   UNL     1       0.952   7.997  21.460  0.00  0.00    +0.000 A 
ATOM     11  C   UNL     1       1.645   7.547  20.328  0.00  0.00    +0.000 A 
ATOM     12  C   UNL     1       2.218   6.190  20.314  0.00  0.00    +0.000 A 
ATOM     13  O   UNL     1       1.892   5.376  21.173  0.00  0.00    +0.000 OA
ATOM     14  H   UNL     1       3.668   6.392  17.334  0.00  0.00    +0.000 HD
ENDBRANCH   1   2
BRANCH   1  15
ATOM     15  C   UNL     1       4.309   4.459  17.757  0.00  0.00    +0.000 C 
ATOM     16  O   UNL     1       3.923   3.771  16.818  0.00  0.00    +0.000 OA
BRANCH  15  17
ATOM     17  O   UNL     1       5.472   5.162  17.774  0.00  0.00    +0.000 OA
BRANCH  17  19
ATOM     18  C   UNL     1       7.709   4.374  18.062  0.00  0.00    +0.000 C 
ATOM     19  C   UNL     1       6.558   4.543  17.069  0.00  0.00    +0.000 C 
BRANCH  19  20
ATOM     20  C   UNL     1       6.996   5.409  15.884  0.00  0.00    +0.000 C 
ATOM     21  O   UNL     1       7.491   6.527  16.038  0.00  0.00    +0.000 OA
BRANCH  20  22
ATOM     22  C   UNL     1       6.877   4.869  14.494  0.00  0.00    +0.000 A 
ATOM     23  C   UNL     1       5.995   3.836  14.147  0.00  0.00    +0.000 A 
ATOM     24  C   UNL     1       5.946   3.368  12.829  0.00  0.00    +0.000 A 
ATOM     25  C   UNL     1       6.777   3.918  11.854  0.00  0.00    +0.000 A 
ATOM     26  C   UNL     1       7.661   4.941  12.193  0.00  0.00    +0.000 A 
ATOM     27  C   UNL     1       7.709   5.413  13.505  0.00  0.00    +0.000 A 
ENDBRANCH  20  22
ENDBRANCH  19  20
ENDBRANCH  17  19
ENDBRANCH  15  17
ENDBRANCH   1  15
TORSDOF 6
ENDMDL
MODEL 7
REMARK VINA RESULT:      -8.1      3.430      4.988
REMARK  Name = 
REMARK  7 active torsions:
REMARK  status: ('A' for Active; 'I' for Inactive)
REMARK    1  A    between atoms: C_1  and  C_2
REMARK    2  A    between atoms: C_2  and  O_3
REMARK    3  A    between atoms: C_2  and  C_19
REMARK    4  A    between atoms: O_3  and  C_4
REMARK    5  A    between atoms: C_4  and  C_6
REMARK    6  A    between atoms: C_6  and  N_7
REMARK    7  A    between atoms: C_19  and  C_21
REMARK                            x       y       z     vdW  Elec       q    Type
REMARK                         _______ _______ _______ _____ _____    ______ ____
ROOT
ATOM      1  C   UNL     1       3.341   5.604  18.447  0.00  0.00    +0.000 C 
ENDROOT
BRANCH   1   2
ATOM      2  N   UNL     1       2.801   6.858  18.964  0.00  0.00    +0.000 N 
ATOM      3  N   UNL     1       2.839   7.946  18.075  0.00  0.00    +0.000 N 
ATOM      4  C   UNL     1       2.027   9.047  18.225  0.00  0.00    +0.000 A 
ATOM      5  O   UNL     1       1.907   9.883  17.337  0.00  0.00    +0.000 OA
ATOM      6  C   UNL     1       1.326   9.187  19.513  0.00  0.00    +0.000 A 
ATOM      7  C   UNL     1       0.616  10.359  19.802  0.00  0.00    +0.000 A 
ATOM      8  C   UNL     1      -0.012  10.505  21.041  0.00  0.00    +0.000 A 
ATOM      9  C   UNL     1       0.076   9.490  21.994  0.00  0.00    +0.000 A 
ATOM     10  C   UNL     1       0.757   8.310  21.694  0.00  0.00    +0.000 A 
ATOM     11  C   UNL     1       1.367   8.152  20.442  0.00  0.00    +0.000 A 
ATOM     12  C   UNL     1       2.005   6.871  20.097  0.00  0.00    +0.000 A 
ATOM     13  O   UNL     1       1.801   5.876  20.787  0.00  0.00    +0.000 OA
ATOM     14  H   UNL     1       3.166   7.782  17.123  0.00  0.00    +0.000 HD
ENDBRANCH   1   2
BRANCH   1  15
ATOM     15  C   UNL     1       4.820   5.531  18.779  0.00  0.00    +0.000 C 
ATOM     16  O   UNL     1       5.262   4.953  19.766  0.00  0.00    +0.000 OA
BRANCH  15  17
ATOM     17  O   UNL     1       5.567   6.260  17.909  0.00  0.00    +0.000 OA
BRANCH  17  19
ATOM     18  C   UNL     1       7.630   7.410  17.546  0.00  0.00    +0.000 C 
ATOM     19  C   UNL     1       6.986   6.130  18.081  0.00  0.00    +0.000 C 
BRANCH  19  20
ATOM     20  C   UNL     1       7.511   4.908  17.321  0.00  0.00    +0.000 C 
ATOM     21  O   UNL     1       8.326   4.129  17.817  0.00  0.00    +0.000 OA
BRANCH  20  22
ATOM     22  C   UNL     1       6.981   4.608  15.954  0.00  0.00    +0.000 A 
ATOM     23  C   UNL     1       7.543   5.136  14.783  0.00  0.00    +0.000 A 
ATOM     24  C   UNL     1       6.987   4.827  13.536  0.00  0.00    +0.000 A 
ATOM     25  C   UNL     1       5.869   3.999  13.449  0.00  0.00    +0.000 A 
ATOM     26  C   UNL     1       5.301   3.476  14.609  0.00  0.00    +0.000 A 
ATOM     27  C   UNL     1       5.855   3.779  15.853  0.00  0.00    +0.000 A 
ENDBRANCH  20  22
ENDBRANCH  19  20
ENDBRANCH  17  19
ENDBRANCH  15  17
ENDBRANCH   1  15
TORSDOF 6
ENDMDL
MODEL 8
REMARK VINA RESULT:      -8.1      5.224      7.219
REMARK  Name = 
REMARK  7 active torsions:
REMARK  status: ('A' for Active; 'I' for Inactive)
REMARK    1  A    between atoms: C_1  and  C_2
REMARK    2  A    between atoms: C_2  and  O_3
REMARK    3  A    between atoms: C_2  and  C_19
REMARK    4  A    between atoms: O_3  and  C_4
REMARK    5  A    between atoms: C_4  and  C_6
REMARK    6  A    between atoms: C_6  and  N_7
REMARK    7  A    between atoms: C_19  and  C_21
REMARK                            x       y       z     vdW  Elec       q    Type
REMARK                         _______ _______ _______ _____ _____    ______ ____
ROOT
ATOM      1  C   UNL     1       2.118   8.045  19.466  0.00  0.00    +0.000 C 
ENDROOT
BRANCH   1   2
ATOM      2  N   UNL     1       1.120   8.798  20.220  0.00  0.00    +0.000 N 
ATOM      3  N   UNL     1       1.192   8.667  21.618  0.00  0.00    +0.000 N 
ATOM      4  C   UNL     1       0.633   9.590  22.472  0.00  0.00    +0.000 A 
ATOM      5  O   UNL     1       0.884   9.590  23.672  0.00  0.00    +0.000 OA
ATOM      6  C   UNL     1      -0.300  10.565  21.882  0.00  0.00    +0.000 A 
ATOM      7  C   UNL     1      -1.033  11.426  22.709  0.00  0.00    +0.000 A 
ATOM      8  C   UNL     1      -1.948  12.319  22.148  0.00  0.00    +0.000 A 
ATOM      9  C   UNL     1      -2.141  12.348  20.767  0.00  0.00    +0.000 A 
ATOM     10  C   UNL     1      -1.389  11.512  19.940  0.00  0.00    +0.000 A 
ATOM     11  C   UNL     1      -0.453  10.632  20.501  0.00  0.00    +0.000 A 
ATOM     12  C   UNL     1       0.402   9.819  19.620  0.00  0.00    +0.000 A 
ATOM     13  O   UNL     1       0.472  10.076  18.421  0.00  0.00    +0.000 OA
ATOM     14  H   UNL     1       1.960   8.127  22.015  0.00  0.00    +0.000 HD
ENDBRANCH   1   2
BRANCH   1  15
ATOM     15  C   UNL     1       2.134   6.612  19.965  0.00  0.00    +0.000 C 
ATOM     16  O   UNL     1       1.382   6.193  20.838  0.00  0.00    +0.000 OA
BRANCH  15  17
ATOM     17  O   UNL     1       3.140   5.893  19.399  0.00  0.00    +0.000 OA
BRANCH  17  19
ATOM     18  C   UNL     1       1.876   4.619  17.823  0.00  0.00    +0.000 C 
ATOM     19  C   UNL     1       2.989   5.654  17.993  0.00  0.00    +0.000 C 
BRANCH  19  20
ATOM     20  C   UNL     1       4.299   5.137  17.390  0.00  0.00    +0.000 C 
ATOM     21  O   UNL     1       4.324   4.220  16.568  0.00  0.00    +0.000 OA
BRANCH  20  22
ATOM     22  C   UNL     1       5.590   5.796  17.760  0.00  0.00    +0.000 A 
ATOM     23  C   UNL     1       6.072   6.947  17.122  0.00  0.00    +0.000 A 
ATOM     24  C   UNL     1       7.297   7.503  17.508  0.00  0.00    +0.000 A 
ATOM     25  C   UNL     1       8.049   6.914  18.523  0.00  0.00    +0.000 A 
ATOM     26  C   UNL     1       7.580   5.765  19.157  0.00  0.00    +0.000 A 
ATOM     27  C   UNL     1       6.358   5.212  18.778  0.00  0.00    +0.000 A 
ENDBRANCH  20  22
ENDBRANCH  19  20
ENDBRANCH  17  19
ENDBRANCH  15  17
ENDBRANCH   1  15
TORSDOF 6
ENDMDL
MODEL 9
REMARK VINA RESULT:      -7.9      1.270      1.351
REMARK  Name = 
REMARK  7 active torsions:
REMARK  status: ('A' for Active; 'I' for Inactive)
REMARK    1  A    between atoms: C_1  and  C_2
REMARK    2  A    between atoms: C_2  and  O_3
REMARK    3  A    between atoms: C_2  and  C_19
REMARK    4  A    between atoms: O_3  and  C_4
REMARK    5  A    between atoms: C_4  and  C_6
REMARK    6  A    between atoms: C_6  and  N_7
REMARK    7  A    between atoms: C_19  and  C_21
REMARK                            x       y       z     vdW  Elec       q    Type
REMARK                         _______ _______ _______ _____ _____    ______ ____
ROOT
ATOM      1  C   UNL     1       5.737   5.921  17.779  0.00  0.00    +0.000 C 
ENDROOT
BRANCH   1   2
ATOM      2  N   UNL     1       4.774   5.010  18.391  0.00  0.00    +0.000 N 
ATOM      3  N   UNL     1       5.291   3.768  18.799  0.00  0.00    +0.000 N 
ATOM      4  C   UNL     1       4.660   2.982  19.736  0.00  0.00    +0.000 A 
ATOM      5  O   UNL     1       5.218   2.017  20.247  0.00  0.00    +0.000 OA
ATOM      6  C   UNL     1       3.274   3.340  20.082  0.00  0.00    +0.000 A 
ATOM      7  C   UNL     1       2.513   2.494  20.899  0.00  0.00    +0.000 A 
ATOM      8  C   UNL     1       1.185   2.815  21.190  0.00  0.00    +0.000 A 
ATOM      9  C   UNL     1       0.613   3.971  20.659  0.00  0.00    +0.000 A 
ATOM     10  C   UNL     1       1.380   4.830  19.870  0.00  0.00    +0.000 A 
ATOM     11  C   UNL     1       2.720   4.520  19.598  0.00  0.00    +0.000 A 
ATOM     12  C   UNL     1       3.550   5.473  18.843  0.00  0.00    +0.000 A 
ATOM     13  O   UNL     1       3.158   6.622  18.661  0.00  0.00    +0.000 OA
ATOM     14  H   UNL     1       6.295   3.609  18.714  0.00  0.00    +0.000 HD
ENDBRANCH   1   2
BRANCH   1  15
ATOM     15  C   UNL     1       5.489   5.968  16.283  0.00  0.00    +0.000 C 
ATOM     16  O   UNL     1       5.415   7.012  15.644  0.00  0.00    +0.000 OA
BRANCH  15  17
ATOM     17  O   UNL     1       5.266   4.729  15.771  0.00  0.00    +0.000 OA
BRANCH  17  19
ATOM     18  C   UNL     1       7.610   4.503  16.171  0.00  0.00    +0.000 C 
ATOM     19  C   UNL     1       6.439   4.056  15.294  0.00  0.00    +0.000 C 
BRANCH  19  20
ATOM     20  C   UNL     1       6.704   4.409  13.827  0.00  0.00    +0.000 C 
ATOM     21  O   UNL     1       7.484   5.304  13.500  0.00  0.00    +0.000 OA
BRANCH  20  22
ATOM     22  C   UNL     1       6.045   3.609  12.747  0.00  0.00    +0.000 A 
ATOM     23  C   UNL     1       4.718   3.814  12.345  0.00  0.00    +0.000 A 
ATOM     24  C   UNL     1       4.159   3.019  11.339  0.00  0.00    +0.000 A 
ATOM     25  C   UNL     1       4.913   2.015  10.733  0.00  0.00    +0.000 A 
ATOM     26  C   UNL     1       6.231   1.801  11.132  0.00  0.00    +0.000 A 
ATOM     27  C   UNL     1       6.792   2.595  12.132  0.00  0.00    +0.000 A 
ENDBRANCH  20  22
ENDBRANCH  19  20
ENDBRANCH  17  19
ENDBRANCH  15  17
ENDBRANCH   1  15
TORSDOF 6
ENDMDL
