MODEL 1
REMARK VINA RESULT:      -8.9      0.000      0.000
REMARK  Name = 
REMARK  7 active torsions:
REMARK  status: ('A' for Active; 'I' for Inactive)
REMARK    1  A    between atoms: N_3  and  C_4
REMARK    2  A    between atoms: C_4  and  C_5
REMARK    3  A    between atoms: C_8  and  C_9
REMARK    4  A    between atoms: C_9  and  O_10
REMARK    5  A    between atoms: C_16  and  C_17
REMARK    6  A    between atoms: C_20  and  O_21
REMARK    7  A    between atoms: O_21  and  C_22
REMARK                            x       y       z     vdW  Elec       q    Type
REMARK                         _______ _______ _______ _____ _____    ______ ____
ROOT
ATOM      1  O   UNL     1       2.009   5.271  21.224  0.00  0.00    +0.000 OA
ATOM      2  C   UNL     1       2.221   5.910  20.204  0.00  0.00    +0.000 A 
ATOM      3  N   UNL     1       2.850   5.463  19.032  0.00  0.00    +0.000 N 
ATOM      4  N   UNL     1       2.892   6.471  18.082  0.00  0.00    +0.000 NA
ATOM      5  C   UNL     1       2.304   7.466  18.670  0.00  0.00    +0.000 A 
ATOM      6  C   UNL     1       2.048   8.815  18.128  0.00  0.00    +0.000 A 
ATOM      7  C   UNL     1       1.408   9.698  18.914  0.00  0.00    +0.000 A 
ATOM      8  C   UNL     1       0.973   9.352  20.265  0.00  0.00    +0.000 A 
ATOM      9  C   UNL     1       1.224   8.113  20.731  0.00  0.00    +0.000 A 
ATOM     10  N   UNL     1       1.876   7.214  19.934  0.00  0.00    +0.000 N 
ENDROOT
BRANCH   8  11
ATOM     11  C   UNL     1       0.274  10.287  21.160  0.00  0.00    +0.000 A 
ATOM     12  C   UNL     1      -0.413   9.808  22.281  0.00  0.00    +0.000 A 
ATOM     13  C   UNL     1      -1.134  10.687  23.094  0.00  0.00    +0.000 A 
ATOM     14  C   UNL     1      -1.168  12.051  22.800  0.00  0.00    +0.000 A 
ATOM     15  C   UNL     1      -0.498  12.529  21.669  0.00  0.00    +0.000 A 
ATOM     16  C   UNL     1       0.243  11.656  20.868  0.00  0.00    +0.000 A 
BRANCH  14  17
ATOM     17  O   UNL     1      -1.935  12.831  23.640  0.00  0.00    +0.000 OA
BRANCH  17  18
ATOM     18  C   UNL     1      -3.301  12.857  23.471  0.00  0.00    +0.000 A 
ATOM     19  C   UNL     1      -4.079  12.537  24.587  0.00  0.00    +0.000 A 
ATOM     20  C   UNL     1      -5.471  12.505  24.478  0.00  0.00    +0.000 A 
ATOM     21  C   UNL     1      -6.068  12.798  23.257  0.00  0.00    +0.000 A 
ATOM     22  F   UNL     1      -7.400  12.726  23.138  0.00  0.00    +0.000 F 
ATOM     23  C   UNL     1      -5.308  13.171  22.156  0.00  0.00    +0.000 A 
ATOM     24  C   UNL     1      -3.918  13.230  22.272  0.00  0.00    +0.000 A 
ENDBRANCH  17  18
ENDBRANCH  14  17
ENDBRANCH   8  11
BRANCH   3  25
ATOM     25  C   UNL     1       3.426   4.151  18.837  0.00  0.00    +0.000 C 
BRANCH  25  26
ATOM     26  C   UNL     1       4.820   4.265  18.326  0.00  0.00    +0.000 A 
ATOM     27  N   UNL     1       5.886   4.301  19.141  0.00  0.00    +0.000 NA
ATOM     28  O   UNL     1       6.965   4.402  18.260  0.00  0.00    +0.000 OA
ATOM     29  C   UNL     1       6.435   4.433  17.005  0.00  0.00    +0.000 A 
ATOM     30  N   UNL     1       5.122   4.368  16.985  0.00  0.00    +0.000 NA
BRANCH  29  31
ATOM     31  C   UNL     1       7.381   4.502  15.869  0.00  0.00    +0.000 C 
BRANCH  31  32
ATOM     32  O   UNL     1       7.461   5.856  15.419  0.00  0.00    +0.000 OA
ATOM     33  H   UNL     1       6.548   6.136  15.207  0.00  0.00    +0.000 HD
ENDBRANCH  31  32
ENDBRANCH  29  31
ENDBRANCH  25  26
ENDBRANCH   3  25
TORSDOF 7
ENDMDL
MODEL 2
REMARK VINA RESULT:      -8.7      1.059      1.493
REMARK  Name = 
REMARK  7 active torsions:
REMARK  status: ('A' for Active; 'I' for Inactive)
REMARK    1  A    between atoms: N_3  and  C_4
REMARK    2  A    between atoms: C_4  and  C_5
REMARK    3  A    between atoms: C_8  and  C_9
REMARK    4  A    between atoms: C_9  and  O_10
REMARK    5  A    between atoms: C_16  and  C_17
REMARK    6  A    between atoms: C_20  and  O_21
REMARK    7  A    between atoms: O_21  and  C_22
REMARK                            x       y       z     vdW  Elec       q    Type
REMARK                         _______ _______ _______ _____ _____    ______ ____
ROOT
ATOM      1  O   UNL     1       2.497   5.250  20.680  0.00  0.00    +0.000 OA
ATOM      2  C   UNL     1       2.609   5.965  19.695  0.00  0.00    +0.000 A 
ATOM      3  N   UNL     1       3.225   5.646  18.475  0.00  0.00    +0.000 N 
ATOM      4  N   UNL     1       3.139   6.710  17.590  0.00  0.00    +0.000 NA
ATOM      5  C   UNL     1       2.494   7.611  18.262  0.00  0.00    +0.000 A 
ATOM      6  C   UNL     1       2.100   8.962  17.816  0.00  0.00    +0.000 A 
ATOM      7  C   UNL     1       1.419   9.737  18.679  0.00  0.00    +0.000 A 
ATOM      8  C   UNL     1       1.073   9.273  20.021  0.00  0.00    +0.000 A 
ATOM      9  C   UNL     1       1.450   8.035  20.398  0.00  0.00    +0.000 A 
ATOM     10  N   UNL     1       2.142   7.247  19.522  0.00  0.00    +0.000 N 
ENDROOT
BRANCH   8  11
ATOM     11  C   UNL     1       0.335  10.087  20.999  0.00  0.00    +0.000 A 
ATOM     12  C   UNL     1      -0.179   9.499  22.160  0.00  0.00    +0.000 A 
ATOM     13  C   UNL     1      -0.939  10.255  23.057  0.00  0.00    +0.000 A 
ATOM     14  C   UNL     1      -1.184  11.606  22.805  0.00  0.00    +0.000 A 
ATOM     15  C   UNL     1      -0.688  12.192  21.636  0.00  0.00    +0.000 A 
ATOM     16  C   UNL     1       0.092  11.443  20.750  0.00  0.00    +0.000 A 
BRANCH  14  17
ATOM     17  O   UNL     1      -1.973  12.258  23.730  0.00  0.00    +0.000 OA
BRANCH  17  18
ATOM     18  C   UNL     1      -3.302  12.474  23.444  0.00  0.00    +0.000 A 
ATOM     19  C   UNL     1      -4.182  12.511  24.531  0.00  0.00    +0.000 A 
ATOM     20  C   UNL     1      -5.549  12.687  24.312  0.00  0.00    +0.000 A 
ATOM     21  C   UNL     1      -6.022  12.829  23.012  0.00  0.00    +0.000 A 
ATOM     22  F   UNL     1      -7.337  12.955  22.795  0.00  0.00    +0.000 F 
ATOM     23  C   UNL     1      -5.152  12.850  21.929  0.00  0.00    +0.000 A 
ATOM     24  C   UNL     1      -3.781  12.701  22.150  0.00  0.00    +0.000 A 
ENDBRANCH  17  18
ENDBRANCH  14  17
ENDBRANCH   8  11
BRANCH   3  25
ATOM     25  C   UNL     1       3.903   4.405  18.176  0.00  0.00    +0.000 C 
BRANCH  25  26
ATOM     26  C   UNL     1       5.379   4.595  18.215  0.00  0.00    +0.000 A 
ATOM     27  N   UNL     1       6.170   4.313  17.168  0.00  0.00    +0.000 NA
ATOM     28  O   UNL     1       7.447   4.638  17.629  0.00  0.00    +0.000 OA
ATOM     29  C   UNL     1       7.294   5.067  18.913  0.00  0.00    +0.000 A 
ATOM     30  N   UNL     1       6.048   5.047  19.332  0.00  0.00    +0.000 NA
BRANCH  29  31
ATOM     31  C   UNL     1       8.511   5.513  19.630  0.00  0.00    +0.000 C 
BRANCH  31  32
ATOM     32  O   UNL     1       8.350   5.237  21.024  0.00  0.00    +0.000 OA
ATOM     33  H   UNL     1       9.223   5.383  21.440  0.00  0.00    +0.000 HD
ENDBRANCH  31  32
ENDBRANCH  29  31
ENDBRANCH  25  26
ENDBRANCH   3  25
TORSDOF 7
ENDMDL
MODEL 3
REMARK VINA RESULT:      -8.6      4.707     11.422
REMARK  Name = 
REMARK  7 active torsions:
REMARK  status: ('A' for Active; 'I' for Inactive)
REMARK    1  A    between atoms: N_3  and  C_4
REMARK    2  A    between atoms: C_4  and  C_5
REMARK    3  A    between atoms: C_8  and  C_9
REMARK    4  A    between atoms: C_9  and  O_10
REMARK    5  A    between atoms: C_16  and  C_17
REMARK    6  A    between atoms: C_20  and  O_21
REMARK    7  A    between atoms: O_21  and  C_22
REMARK                            x       y       z     vdW  Elec       q    Type
REMARK                         _______ _______ _______ _____ _____    ______ ____
ROOT
ATOM      1  O   UNL     1      -0.959  10.565  23.566  0.00  0.00    +0.000 OA
ATOM      2  C   UNL     1      -0.812  11.195  22.529  0.00  0.00    +0.000 A 
ATOM      3  N   UNL     1      -1.238  12.505  22.260  0.00  0.00    +0.000 N 
ATOM      4  N   UNL     1      -0.872  12.885  20.978  0.00  0.00    +0.000 NA
ATOM      5  C   UNL     1      -0.252  11.843  20.518  0.00  0.00    +0.000 A 
ATOM      6  C   UNL     1       0.372  11.674  19.191  0.00  0.00    +0.000 A 
ATOM      7  C   UNL     1       0.978  10.504  18.925  0.00  0.00    +0.000 A 
ATOM      8  C   UNL     1       1.026   9.421  19.906  0.00  0.00    +0.000 A 
ATOM      9  C   UNL     1       0.445   9.607  21.107  0.00  0.00    +0.000 A 
ATOM     10  N   UNL     1      -0.172  10.796  21.379  0.00  0.00    +0.000 N 
ENDROOT
BRANCH   8  11
ATOM     11  C   UNL     1       1.674   8.125  19.656  0.00  0.00    +0.000 A 
ATOM     12  C   UNL     1       2.259   7.857  18.414  0.00  0.00    +0.000 A 
ATOM     13  C   UNL     1       2.814   6.601  18.152  0.00  0.00    +0.000 A 
ATOM     14  C   UNL     1       2.799   5.607  19.132  0.00  0.00    +0.000 A 
ATOM     15  C   UNL     1       2.198   5.866  20.368  0.00  0.00    +0.000 A 
ATOM     16  C   UNL     1       1.662   7.128  20.639  0.00  0.00    +0.000 A 
BRANCH  14  17
ATOM     17  O   UNL     1       3.339   4.391  18.767  0.00  0.00    +0.000 OA
BRANCH  17  18
ATOM     18  C   UNL     1       4.445   4.368  17.948  0.00  0.00    +0.000 A 
ATOM     19  C   UNL     1       5.658   4.771  18.515  0.00  0.00    +0.000 A 
ATOM     20  C   UNL     1       6.813   4.809  17.732  0.00  0.00    +0.000 A 
ATOM     21  C   UNL     1       6.744   4.440  16.393  0.00  0.00    +0.000 A 
ATOM     22  F   UNL     1       7.841   4.517  15.629  0.00  0.00    +0.000 F 
ATOM     23  C   UNL     1       5.558   3.986  15.832  0.00  0.00    +0.000 A 
ATOM     24  C   UNL     1       4.408   3.921  16.623  0.00  0.00    +0.000 A 
ENDBRANCH  17  18
ENDBRANCH  14  17
ENDBRANCH   8  11
BRANCH   3  25
ATOM     25  C   UNL     1      -1.995  13.343  23.161  0.00  0.00    +0.000 C 
BRANCH  25  26
ATOM     26  C   UNL     1      -3.446  13.019  23.080  0.00  0.00    +0.000 A 
ATOM     27  N   UNL     1      -3.991  12.413  22.013  0.00  0.00    +0.000 NA
ATOM     28  O   UNL     1      -5.339  12.298  22.357  0.00  0.00    +0.000 OA
ATOM     29  C   UNL     1      -5.469  12.863  23.590  0.00  0.00    +0.000 A 
ATOM     30  N   UNL     1      -4.343  13.336  24.076  0.00  0.00    +0.000 NA
BRANCH  29  31
ATOM     31  C   UNL     1      -6.814  12.839  24.210  0.00  0.00    +0.000 C 
BRANCH  31  32
ATOM     32  O   UNL     1      -7.461  11.614  23.859  0.00  0.00    +0.000 OA
ATOM     33  H   UNL     1      -7.630  11.651  22.897  0.00  0.00    +0.000 HD
ENDBRANCH  31  32
ENDBRANCH  29  31
ENDBRANCH  25  26
ENDBRANCH   3  25
TORSDOF 7
ENDMDL
MODEL 4
REMARK VINA RESULT:      -8.6      2.804      4.296
REMARK  Name = 
REMARK  7 active torsions:
REMARK  status: ('A' for Active; 'I' for Inactive)
REMARK    1  A    between atoms: N_3  and  C_4
REMARK    2  A    between atoms: C_4  and  C_5
REMARK    3  A    between atoms: C_8  and  C_9
REMARK    4  A    between atoms: C_9  and  O_10
REMARK    5  A    between atoms: C_16  and  C_17
REMARK    6  A    between atoms: C_20  and  O_21
REMARK    7  A    between atoms: O_21  and  C_22
REMARK                            x       y       z     vdW  Elec       q    Type
REMARK                         _______ _______ _______ _____ _____    ______ ____
ROOT
ATOM      1  O   UNL     1       6.058   7.261  16.687  0.00  0.00    +0.000 OA
ATOM      2  C   UNL     1       5.586   6.335  17.330  0.00  0.00    +0.000 A 
ATOM      3  N   UNL     1       6.101   5.035  17.457  0.00  0.00    +0.000 N 
ATOM      4  N   UNL     1       5.297   4.268  18.285  0.00  0.00    +0.000 NA
ATOM      5  C   UNL     1       4.354   5.087  18.635  0.00  0.00    +0.000 A 
ATOM      6  C   UNL     1       3.210   4.820  19.529  0.00  0.00    +0.000 A 
ATOM      7  C   UNL     1       2.349   5.825  19.766  0.00  0.00    +0.000 A 
ATOM      8  C   UNL     1       2.524   7.146  19.167  0.00  0.00    +0.000 A 
ATOM      9  C   UNL     1       3.578   7.356  18.354  0.00  0.00    +0.000 A 
ATOM     10  N   UNL     1       4.453   6.335  18.110  0.00  0.00    +0.000 N 
ENDROOT
BRANCH   8  11
ATOM     11  C   UNL     1       1.606   8.272  19.396  0.00  0.00    +0.000 A 
ATOM     12  C   UNL     1       1.057   8.487  20.665  0.00  0.00    +0.000 A 
ATOM     13  C   UNL     1       0.133   9.516  20.868  0.00  0.00    +0.000 A 
ATOM     14  C   UNL     1      -0.244  10.343  19.808  0.00  0.00    +0.000 A 
ATOM     15  C   UNL     1       0.289  10.118  18.535  0.00  0.00    +0.000 A 
ATOM     16  C   UNL     1       1.231   9.105  18.335  0.00  0.00    +0.000 A 
BRANCH  14  17
ATOM     17  O   UNL     1      -1.187  11.305  20.100  0.00  0.00    +0.000 OA
BRANCH  17  18
ATOM     18  C   UNL     1      -0.845  12.352  20.927  0.00  0.00    +0.000 A 
ATOM     19  C   UNL     1      -1.530  12.444  22.143  0.00  0.00    +0.000 A 
ATOM     20  C   UNL     1      -1.262  13.502  23.013  0.00  0.00    +0.000 A 
ATOM     21  C   UNL     1      -0.310  14.453  22.661  0.00  0.00    +0.000 A 
ATOM     22  F   UNL     1      -0.082  15.492  23.474  0.00  0.00    +0.000 F 
ATOM     23  C   UNL     1       0.416  14.342  21.482  0.00  0.00    +0.000 A 
ATOM     24  C   UNL     1       0.167  13.268  20.624  0.00  0.00    +0.000 A 
ENDBRANCH  17  18
ENDBRANCH  14  17
ENDBRANCH   8  11
BRANCH   3  25
ATOM     25  C   UNL     1       7.278   4.530  16.788  0.00  0.00    +0.000 C 
BRANCH  25  26
ATOM     26  C   UNL     1       7.071   4.508  15.314  0.00  0.00    +0.000 A 
ATOM     27  N   UNL     1       7.733   5.326  14.480  0.00  0.00    +0.000 NA
ATOM     28  O   UNL     1       7.249   4.968  13.221  0.00  0.00    +0.000 OA
ATOM     29  C   UNL     1       6.332   3.982  13.428  0.00  0.00    +0.000 A 
ATOM     30  N   UNL     1       6.170   3.669  14.695  0.00  0.00    +0.000 NA
BRANCH  29  31
ATOM     31  C   UNL     1       5.685   3.393  12.233  0.00  0.00    +0.000 C 
BRANCH  31  32
ATOM     32  O   UNL     1       6.157   2.054  12.068  0.00  0.00    +0.000 OA
ATOM     33  H   UNL     1       6.101   1.853  11.113  0.00  0.00    +0.000 HD
ENDBRANCH  31  32
ENDBRANCH  29  31
ENDBRANCH  25  26
ENDBRANCH   3  25
TORSDOF 7
ENDMDL
MODEL 5
REMARK VINA RESULT:      -8.6      2.741      4.285
REMARK  Name = 
REMARK  7 active torsions:
REMARK  status: ('A' for Active; 'I' for Inactive)
REMARK    1  A    between atoms: N_3  and  C_4
REMARK    2  A    between atoms: C_4  and  C_5
REMARK    3  A    between atoms: C_8  and  C_9
REMARK    4  A    between atoms: C_9  and  O_10
REMARK    5  A    between atoms: C_16  and  C_17
REMARK    6  A    between atoms: C_20  and  O_21
REMARK    7  A    between atoms: O_21  and  C_22
REMARK                            x       y       z     vdW  Elec       q    Type
REMARK                         _______ _______ _______ _____ _____    ______ ____
ROOT
ATOM      1  O   UNL     1       6.109   7.339  16.470  0.00  0.00    +0.000 OA
ATOM      2  C   UNL     1       5.571   6.440  17.100  0.00  0.00    +0.000 A 
ATOM      3  N   UNL     1       6.015   5.117  17.247  0.00  0.00    +0.000 N 
ATOM      4  N   UNL     1       5.147   4.395  18.051  0.00  0.00    +0.000 NA
ATOM      5  C   UNL     1       4.237   5.261  18.369  0.00  0.00    +0.000 A 
ATOM      6  C   UNL     1       3.053   5.056  19.226  0.00  0.00    +0.000 A 
ATOM      7  C   UNL     1       2.237   6.105  19.434  0.00  0.00    +0.000 A 
ATOM      8  C   UNL     1       2.497   7.413  18.836  0.00  0.00    +0.000 A 
ATOM      9  C   UNL     1       3.586   7.566  18.057  0.00  0.00    +0.000 A 
ATOM     10  N   UNL     1       4.415   6.501  17.844  0.00  0.00    +0.000 N 
ENDROOT
BRANCH   8  11
ATOM     11  C   UNL     1       1.631   8.585  19.033  0.00  0.00    +0.000 A 
ATOM     12  C   UNL     1       1.527   9.560  18.034  0.00  0.00    +0.000 A 
ATOM     13  C   UNL     1       0.758  10.708  18.247  0.00  0.00    +0.000 A 
ATOM     14  C   UNL     1       0.078  10.886  19.453  0.00  0.00    +0.000 A 
ATOM     15  C   UNL     1       0.195   9.922  20.460  0.00  0.00    +0.000 A 
ATOM     16  C   UNL     1       0.945   8.763  20.240  0.00  0.00    +0.000 A 
BRANCH  14  17
ATOM     17  O   UNL     1      -0.625  12.065  19.581  0.00  0.00    +0.000 OA
BRANCH  17  18
ATOM     18  C   UNL     1      -1.991  12.054  19.413  0.00  0.00    +0.000 A 
ATOM     19  C   UNL     1      -2.483  11.364  18.300  0.00  0.00    +0.000 A 
ATOM     20  C   UNL     1      -3.855  11.344  18.045  0.00  0.00    +0.000 A 
ATOM     21  C   UNL     1      -4.721  12.008  18.908  0.00  0.00    +0.000 A 
ATOM     22  F   UNL     1      -6.033  12.027  18.643  0.00  0.00    +0.000 F 
ATOM     23  C   UNL     1      -4.250  12.649  20.046  0.00  0.00    +0.000 A 
ATOM     24  C   UNL     1      -2.880  12.646  20.316  0.00  0.00    +0.000 A 
ENDBRANCH  17  18
ENDBRANCH  14  17
ENDBRANCH   8  11
BRANCH   3  25
ATOM     25  C   UNL     1       7.186   4.550  16.617  0.00  0.00    +0.000 C 
BRANCH  25  26
ATOM     26  C   UNL     1       6.995   4.463  15.143  0.00  0.00    +0.000 A 
ATOM     27  N   UNL     1       7.578   5.319  14.288  0.00  0.00    +0.000 NA
ATOM     28  O   UNL     1       7.143   4.877  13.038  0.00  0.00    +0.000 OA
ATOM     29  C   UNL     1       6.328   3.810  13.270  0.00  0.00    +0.000 A 
ATOM     30  N   UNL     1       6.188   3.520  14.545  0.00  0.00    +0.000 NA
BRANCH  29  31
ATOM     31  C   UNL     1       5.755   3.123  12.090  0.00  0.00    +0.000 C 
BRANCH  31  32
ATOM     32  O   UNL     1       4.404   3.557  11.917  0.00  0.00    +0.000 OA
ATOM     33  H   UNL     1       3.868   3.072  12.575  0.00  0.00    +0.000 HD
ENDBRANCH  31  32
ENDBRANCH  29  31
ENDBRANCH  25  26
ENDBRANCH   3  25
TORSDOF 7
ENDMDL
MODEL 6
REMARK VINA RESULT:      -8.6      3.248      4.589
REMARK  Name = 
REMARK  7 active torsions:
REMARK  status: ('A' for Active; 'I' for Inactive)
REMARK    1  A    between atoms: N_3  and  C_4
REMARK    2  A    between atoms: C_4  and  C_5
REMARK    3  A    between atoms: C_8  and  C_9
REMARK    4  A    between atoms: C_9  and  O_10
REMARK    5  A    between atoms: C_16  and  C_17
REMARK    6  A    between atoms: C_20  and  O_21
REMARK    7  A    between atoms: O_21  and  C_22
REMARK                            x       y       z     vdW  Elec       q    Type
REMARK                         _______ _______ _______ _____ _____    ______ ____
ROOT
ATOM      1  O   UNL     1       5.935   7.270  16.457  0.00  0.00    +0.000 OA
ATOM      2  C   UNL     1       5.500   6.411  17.211  0.00  0.00    +0.000 A 
ATOM      3  N   UNL     1       6.050   5.146  17.470  0.00  0.00    +0.000 N 
ATOM      4  N   UNL     1       5.284   4.460  18.399  0.00  0.00    +0.000 NA
ATOM      5  C   UNL     1       4.329   5.291  18.678  0.00  0.00    +0.000 A 
ATOM      6  C   UNL     1       3.212   5.102  19.624  0.00  0.00    +0.000 A 
ATOM      7  C   UNL     1       2.332   6.108  19.769  0.00  0.00    +0.000 A 
ATOM      8  C   UNL     1       2.461   7.357  19.021  0.00  0.00    +0.000 A 
ATOM      9  C   UNL     1       3.491   7.497  18.163  0.00  0.00    +0.000 A 
ATOM     10  N   UNL     1       4.386   6.475  18.014  0.00  0.00    +0.000 N 
ENDROOT
BRANCH   8  11
ATOM     11  C   UNL     1       1.521   8.481  19.145  0.00  0.00    +0.000 A 
ATOM     12  C   UNL     1       1.042   8.864  20.403  0.00  0.00    +0.000 A 
ATOM     13  C   UNL     1       0.097   9.887  20.515  0.00  0.00    +0.000 A 
ATOM     14  C   UNL     1      -0.371  10.543  19.375  0.00  0.00    +0.000 A 
ATOM     15  C   UNL     1       0.092  10.149  18.115  0.00  0.00    +0.000 A 
ATOM     16  C   UNL     1       1.055   9.142  18.002  0.00  0.00    +0.000 A 
BRANCH  14  17
ATOM     17  O   UNL     1      -1.327  11.514  19.586  0.00  0.00    +0.000 OA
BRANCH  17  18
ATOM     18  C   UNL     1      -0.935  12.828  19.705  0.00  0.00    +0.000 A 
ATOM     19  C   UNL     1      -1.027  13.400  20.977  0.00  0.00    +0.000 A 
ATOM     20  C   UNL     1      -0.682  14.740  21.164  0.00  0.00    +0.000 A 
ATOM     21  C   UNL     1      -0.246  15.491  20.078  0.00  0.00    +0.000 A 
ATOM     22  F   UNL     1       0.043  16.788  20.244  0.00  0.00    +0.000 F 
ATOM     23  C   UNL     1      -0.098  14.920  18.820  0.00  0.00    +0.000 A 
ATOM     24  C   UNL     1      -0.416  13.572  18.640  0.00  0.00    +0.000 A 
ENDBRANCH  17  18
ENDBRANCH  14  17
ENDBRANCH   8  11
BRANCH   3  25
ATOM     25  C   UNL     1       7.224   4.595  16.832  0.00  0.00    +0.000 C 
BRANCH  25  26
ATOM     26  C   UNL     1       7.028   4.512  15.359  0.00  0.00    +0.000 A 
ATOM     27  N   UNL     1       7.708   5.285  14.497  0.00  0.00    +0.000 NA
ATOM     28  O   UNL     1       7.228   4.880  13.250  0.00  0.00    +0.000 OA
ATOM     29  C   UNL     1       6.295   3.917  13.492  0.00  0.00    +0.000 A 
ATOM     30  N   UNL     1       6.119   3.661  14.769  0.00  0.00    +0.000 NA
BRANCH  29  31
ATOM     31  C   UNL     1       5.649   3.286  12.318  0.00  0.00    +0.000 C 
BRANCH  31  32
ATOM     32  O   UNL     1       6.501   2.250  11.825  0.00  0.00    +0.000 OA
ATOM     33  H   UNL     1       7.409   2.472  12.114  0.00  0.00    +0.000 HD
ENDBRANCH  31  32
ENDBRANCH  29  31
ENDBRANCH  25  26
ENDBRANCH   3  25
TORSDOF 7
ENDMDL
MODEL 7
REMARK VINA RESULT:      -8.6      4.735     10.937
REMARK  Name = 
REMARK  7 active torsions:
REMARK  status: ('A' for Active; 'I' for Inactive)
REMARK    1  A    between atoms: N_3  and  C_4
REMARK    2  A    between atoms: C_4  and  C_5
REMARK    3  A    between atoms: C_8  and  C_9
REMARK    4  A    between atoms: C_9  and  O_10
REMARK    5  A    between atoms: C_16  and  C_17
REMARK    6  A    between atoms: C_20  and  O_21
REMARK    7  A    between atoms: O_21  and  C_22
REMARK                            x       y       z     vdW  Elec       q    Type
REMARK                         _______ _______ _______ _____ _____    ______ ____
ROOT
ATOM      1  O   UNL     1      -1.917  11.118  23.459  0.00  0.00    +0.000 OA
ATOM      2  C   UNL     1      -1.892  11.881  22.504  0.00  0.00    +0.000 A 
ATOM      3  N   UNL     1      -2.538  13.120  22.386  0.00  0.00    +0.000 N 
ATOM      4  N   UNL     1      -2.258  13.704  21.161  0.00  0.00    +0.000 NA
ATOM      5  C   UNL     1      -1.474  12.845  20.588  0.00  0.00    +0.000 A 
ATOM      6  C   UNL     1      -0.845  12.942  19.256  0.00  0.00    +0.000 A 
ATOM      7  C   UNL     1      -0.051  11.931  18.860  0.00  0.00    +0.000 A 
ATOM      8  C   UNL     1       0.193  10.766  19.707  0.00  0.00    +0.000 A 
ATOM      9  C   UNL     1      -0.398  10.708  20.917  0.00  0.00    +0.000 A 
ATOM     10  N   UNL     1      -1.206  11.734  21.321  0.00  0.00    +0.000 N 
ENDROOT
BRANCH   8  11
ATOM     11  C   UNL     1       1.049   9.638  19.314  0.00  0.00    +0.000 A 
ATOM     12  C   UNL     1       1.502   9.523  17.994  0.00  0.00    +0.000 A 
ATOM     13  C   UNL     1       2.259   8.416  17.602  0.00  0.00    +0.000 A 
ATOM     14  C   UNL     1       2.579   7.419  18.526  0.00  0.00    +0.000 A 
ATOM     15  C   UNL     1       2.112   7.522  19.841  0.00  0.00    +0.000 A 
ATOM     16  C   UNL     1       1.374   8.640  20.240  0.00  0.00    +0.000 A 
BRANCH  14  17
ATOM     17  O   UNL     1       3.300   6.351  18.036  0.00  0.00    +0.000 OA
BRANCH  17  18
ATOM     18  C   UNL     1       2.952   5.075  18.418  0.00  0.00    +0.000 A 
ATOM     19  C   UNL     1       1.783   4.547  17.861  0.00  0.00    +0.000 A 
ATOM     20  C   UNL     1       1.349   3.274  18.233  0.00  0.00    +0.000 A 
ATOM     21  C   UNL     1       2.090   2.540  19.154  0.00  0.00    +0.000 A 
ATOM     22  F   UNL     1       1.653   1.337  19.546  0.00  0.00    +0.000 F 
ATOM     23  C   UNL     1       3.281   3.031  19.673  0.00  0.00    +0.000 A 
ATOM     24  C   UNL     1       3.730   4.294  19.279  0.00  0.00    +0.000 A 
ENDBRANCH  17  18
ENDBRANCH  14  17
ENDBRANCH   8  11
BRANCH   3  25
ATOM     25  C   UNL     1      -3.418  13.706  23.372  0.00  0.00    +0.000 C 
BRANCH  25  26
ATOM     26  C   UNL     1      -4.748  13.038  23.347  0.00  0.00    +0.000 A 
ATOM     27  N   UNL     1      -5.216  12.323  24.382  0.00  0.00    +0.000 NA
ATOM     28  O   UNL     1      -6.469  11.894  23.941  0.00  0.00    +0.000 OA
ATOM     29  C   UNL     1      -6.619  12.381  22.678  0.00  0.00    +0.000 A 
ATOM     30  N   UNL     1      -5.588  13.078  22.255  0.00  0.00    +0.000 NA
BRANCH  29  31
ATOM     31  C   UNL     1      -7.897  12.096  21.986  0.00  0.00    +0.000 C 
BRANCH  31  32
ATOM     32  O   UNL     1      -7.908  10.723  21.588  0.00  0.00    +0.000 OA
ATOM     33  H   UNL     1      -8.631  10.626  20.936  0.00  0.00    +0.000 HD
ENDBRANCH  31  32
ENDBRANCH  29  31
ENDBRANCH  25  26
ENDBRANCH   3  25
TORSDOF 7
ENDMDL
MODEL 8
REMARK VINA RESULT:      -8.5      4.846     11.269
REMARK  Name = 
REMARK  7 active torsions:
REMARK  status: ('A' for Active; 'I' for Inactive)
REMARK    1  A    between atoms: N_3  and  C_4
REMARK    2  A    between atoms: C_4  and  C_5
REMARK    3  A    between atoms: C_8  and  C_9
REMARK    4  A    between atoms: C_9  and  O_10
REMARK    5  A    between atoms: C_16  and  C_17
REMARK    6  A    between atoms: C_20  and  O_21
REMARK    7  A    between atoms: O_21  and  C_22
REMARK                            x       y       z     vdW  Elec       q    Type
REMARK                         _______ _______ _______ _____ _____    ______ ____
ROOT
ATOM      1  O   UNL     1      -1.497  11.248  18.610  0.00  0.00    +0.000 OA
ATOM      2  C   UNL     1      -1.214  11.198  19.798  0.00  0.00    +0.000 A 
ATOM      3  N   UNL     1      -1.681  12.036  20.822  0.00  0.00    +0.000 N 
ATOM      4  N   UNL     1      -1.149  11.657  22.045  0.00  0.00    +0.000 NA
ATOM      5  C   UNL     1      -0.408  10.635  21.750  0.00  0.00    +0.000 A 
ATOM      6  C   UNL     1       0.401   9.809  22.668  0.00  0.00    +0.000 A 
ATOM      7  C   UNL     1       1.092   8.781  22.146  0.00  0.00    +0.000 A 
ATOM      8  C   UNL     1       1.057   8.476  20.717  0.00  0.00    +0.000 A 
ATOM      9  C   UNL     1       0.311   9.251  19.906  0.00  0.00    +0.000 A 
ATOM     10  N   UNL     1      -0.392  10.298  20.435  0.00  0.00    +0.000 N 
ENDROOT
BRANCH   8  11
ATOM     11  C   UNL     1       1.799   7.365  20.103  0.00  0.00    +0.000 A 
ATOM     12  C   UNL     1       1.861   6.121  20.740  0.00  0.00    +0.000 A 
ATOM     13  C   UNL     1       2.622   5.085  20.192  0.00  0.00    +0.000 A 
ATOM     14  C   UNL     1       3.320   5.280  18.998  0.00  0.00    +0.000 A 
ATOM     15  C   UNL     1       3.275   6.528  18.369  0.00  0.00    +0.000 A 
ATOM     16  C   UNL     1       2.495   7.558  18.903  0.00  0.00    +0.000 A 
BRANCH  14  17
ATOM     17  O   UNL     1       4.069   4.210  18.556  0.00  0.00    +0.000 OA
BRANCH  17  18
ATOM     18  C   UNL     1       4.940   4.389  17.505  0.00  0.00    +0.000 A 
ATOM     19  C   UNL     1       6.244   4.779  17.828  0.00  0.00    +0.000 A 
ATOM     20  C   UNL     1       7.170   5.017  16.810  0.00  0.00    +0.000 A 
ATOM     21  C   UNL     1       6.784   4.859  15.483  0.00  0.00    +0.000 A 
ATOM     22  F   UNL     1       7.656   5.128  14.504  0.00  0.00    +0.000 F 
ATOM     23  C   UNL     1       5.508   4.419  15.153  0.00  0.00    +0.000 A 
ATOM     24  C   UNL     1       4.591   4.154  16.171  0.00  0.00    +0.000 A 
ENDBRANCH  17  18
ENDBRANCH  14  17
ENDBRANCH   8  11
BRANCH   3  25
ATOM     25  C   UNL     1      -2.556  13.172  20.644  0.00  0.00    +0.000 C 
BRANCH  25  26
ATOM     26  C   UNL     1      -3.981  12.752  20.739  0.00  0.00    +0.000 A 
ATOM     27  N   UNL     1      -4.572  12.463  21.909  0.00  0.00    +0.000 NA
ATOM     28  O   UNL     1      -5.877  12.132  21.542  0.00  0.00    +0.000 OA
ATOM     29  C   UNL     1      -5.933  12.239  20.185  0.00  0.00    +0.000 A 
ATOM     30  N   UNL     1      -4.794  12.602  19.637  0.00  0.00    +0.000 NA
BRANCH  29  31
ATOM     31  C   UNL     1      -7.237  11.973  19.535  0.00  0.00    +0.000 C 
BRANCH  31  32
ATOM     32  O   UNL     1      -7.228  10.641  19.017  0.00  0.00    +0.000 OA
ATOM     33  H   UNL     1      -7.122  10.718  18.048  0.00  0.00    +0.000 HD
ENDBRANCH  31  32
ENDBRANCH  29  31
ENDBRANCH  25  26
ENDBRANCH   3  25
TORSDOF 7
ENDMDL
MODEL 9
REMARK VINA RESULT:      -8.5      3.611      4.917
REMARK  Name = 
REMARK  7 active torsions:
REMARK  status: ('A' for Active; 'I' for Inactive)
REMARK    1  A    between atoms: N_3  and  C_4
REMARK    2  A    between atoms: C_4  and  C_5
REMARK    3  A    between atoms: C_8  and  C_9
REMARK    4  A    between atoms: C_9  and  O_10
REMARK    5  A    between atoms: C_16  and  C_17
REMARK    6  A    between atoms: C_20  and  O_21
REMARK    7  A    between atoms: O_21  and  C_22
REMARK                            x       y       z     vdW  Elec       q    Type
REMARK                         _______ _______ _______ _____ _____    ______ ____
ROOT
ATOM      1  O   UNL     1       6.066   7.186  16.911  0.00  0.00    +0.000 OA
ATOM      2  C   UNL     1       5.583   6.239  17.514  0.00  0.00    +0.000 A 
ATOM      3  N   UNL     1       6.085   4.930  17.589  0.00  0.00    +0.000 N 
ATOM      4  N   UNL     1       5.271   4.138  18.383  0.00  0.00    +0.000 NA
ATOM      5  C   UNL     1       4.334   4.951  18.763  0.00  0.00    +0.000 A 
ATOM      6  C   UNL     1       3.184   4.659  19.641  0.00  0.00    +0.000 A 
ATOM      7  C   UNL     1       2.332   5.662  19.916  0.00  0.00    +0.000 A 
ATOM      8  C   UNL     1       2.522   7.005  19.371  0.00  0.00    +0.000 A 
ATOM      9  C   UNL     1       3.581   7.238  18.571  0.00  0.00    +0.000 A 
ATOM     10  N   UNL     1       4.447   6.219  18.289  0.00  0.00    +0.000 N 
ENDROOT
BRANCH   8  11
ATOM     11  C   UNL     1       1.614   8.130  19.642  0.00  0.00    +0.000 A 
ATOM     12  C   UNL     1       1.379   9.098  18.659  0.00  0.00    +0.000 A 
ATOM     13  C   UNL     1       0.570  10.203  18.938  0.00  0.00    +0.000 A 
ATOM     14  C   UNL     1      -0.017  10.346  20.196  0.00  0.00    +0.000 A 
ATOM     15  C   UNL     1       0.231   9.390  21.186  0.00  0.00    +0.000 A 
ATOM     16  C   UNL     1       1.021   8.272  20.902  0.00  0.00    +0.000 A 
BRANCH  14  17
ATOM     17  O   UNL     1      -0.769  11.487  20.385  0.00  0.00    +0.000 OA
BRANCH  17  18
ATOM     18  C   UNL     1      -0.181  12.717  20.192  0.00  0.00    +0.000 A 
ATOM     19  C   UNL     1      -0.687  13.500  19.150  0.00  0.00    +0.000 A 
ATOM     20  C   UNL     1      -0.114  14.742  18.873  0.00  0.00    +0.000 A 
ATOM     21  C   UNL     1       0.955  15.189  19.642  0.00  0.00    +0.000 A 
ATOM     22  F   UNL     1       1.535  16.361  19.350  0.00  0.00    +0.000 F 
ATOM     23  C   UNL     1       1.430  14.445  20.714  0.00  0.00    +0.000 A 
ATOM     24  C   UNL     1       0.839  13.215  21.009  0.00  0.00    +0.000 A 
ENDBRANCH  17  18
ENDBRANCH  14  17
ENDBRANCH   8  11
BRANCH   3  25
ATOM     25  C   UNL     1       7.260   4.441  16.905  0.00  0.00    +0.000 C 
BRANCH  25  26
ATOM     26  C   UNL     1       7.060   4.484  15.430  0.00  0.00    +0.000 A 
ATOM     27  N   UNL     1       7.693   5.367  14.642  0.00  0.00    +0.000 NA
ATOM     28  O   UNL     1       7.228   5.054  13.363  0.00  0.00    +0.000 OA
ATOM     29  C   UNL     1       6.349   4.024  13.516  0.00  0.00    +0.000 A 
ATOM     30  N   UNL     1       6.195   3.643  14.765  0.00  0.00    +0.000 NA
BRANCH  29  31
ATOM     31  C   UNL     1       5.731   3.470  12.290  0.00  0.00    +0.000 C 
BRANCH  31  32
ATOM     32  O   UNL     1       6.286   2.177  12.039  0.00  0.00    +0.000 OA
ATOM     33  H   UNL     1       5.901   1.573  12.706  0.00  0.00    +0.000 HD
ENDBRANCH  31  32
ENDBRANCH  29  31
ENDBRANCH  25  26
ENDBRANCH   3  25
TORSDOF 7
ENDMDL
