MODEL 1
REMARK VINA RESULT:      -7.5      0.000      0.000
REMARK  Name = 
REMARK  4 active torsions:
REMARK  status: ('A' for Active; 'I' for Inactive)
REMARK    1  A    between atoms: C_1  and  C_2
REMARK    2  A    between atoms: C_11  and  O_12
REMARK    3  A    between atoms: C_15  and  C_16
REMARK    4  A    between atoms: C_20  and  C_21
REMARK                            x       y       z     vdW  Elec       q    Type
REMARK                         _______ _______ _______ _____ _____    ______ ____
ROOT
ATOM      1  C   UNL     1      -1.078  10.498  19.356  0.00  0.00    +0.000 C 
ATOM      2  C   UNL     1       0.025  11.155  20.227  0.00  0.00    +0.000 C 
ATOM      3  C   UNL     1      -0.199  10.785  21.704  0.00  0.00    +0.000 C 
ATOM      4  C   UNL     1      -1.533  11.353  22.228  0.00  0.00    +0.000 C 
ATOM      5  C   UNL     1      -1.732  12.875  21.959  0.00  0.00    +0.000 C 
ATOM      6  C   UNL     1      -1.342  13.297  20.514  0.00  0.00    +0.000 C 
ATOM      7  C   UNL     1      -1.321  14.826  20.386  0.00  0.00    +0.000 C 
ATOM      8  C   UNL     1      -2.506  15.479  21.019  0.00  0.00    +0.000 C 
ATOM      9  C   UNL     1      -3.352  14.871  21.870  0.00  0.00    +0.000 C 
ATOM     10  C   UNL     1      -4.545  15.621  22.420  0.00  0.00    +0.000 C 
ATOM     11  C   UNL     1      -4.637  15.522  23.943  0.00  0.00    +0.000 C 
ATOM     12  C   UNL     1      -4.559  14.075  24.421  0.00  0.00    +0.000 C 
ATOM     13  C   UNL     1      -3.304  13.382  23.891  0.00  0.00    +0.000 C 
ATOM     14  C   UNL     1      -3.167  13.418  22.341  0.00  0.00    +0.000 C 
ATOM     15  C   UNL     1      -4.284  12.560  21.698  0.00  0.00    +0.000 C 
ATOM     16  C   UNL     1       0.019  12.698  20.158  0.00  0.00    +0.000 C 
ATOM     17  C   UNL     1       0.600  13.018  18.791  0.00  0.00    +0.000 C 
ATOM     18  C   UNL     1       1.666  11.940  18.577  0.00  0.00    +0.000 C 
ATOM     19  C   UNL     1       1.457  10.864  19.684  0.00  0.00    +0.000 C 
ENDROOT
BRANCH  19  20
ATOM     20  C   UNL     1       1.716   9.471  19.160  0.00  0.00    +0.000 A 
ATOM     21  C   UNL     1       2.091   9.237  17.844  0.00  0.00    +0.000 A 
ATOM     22  C   UNL     1       2.339   7.920  17.451  0.00  0.00    +0.000 A 
ATOM     23  C   UNL     1       2.233   6.875  18.384  0.00  0.00    +0.000 A 
ATOM     24  C   UNL     1       2.498   5.530  18.067  0.00  0.00    +0.000 A 
ATOM     25  C   UNL     1       2.416   4.544  19.052  0.00  0.00    +0.000 A 
ATOM     26  C   UNL     1       2.072   4.890  20.353  0.00  0.00    +0.000 A 
ATOM     27  C   UNL     1       1.792   6.223  20.661  0.00  0.00    +0.000 A 
ATOM     28  C   UNL     1       1.868   7.210  19.694  0.00  0.00    +0.000 A 
ATOM     29  N   UNL     1       1.605   8.470  20.062  0.00  0.00    +0.000 NA
ENDBRANCH  19  20
BRANCH  11  30
ATOM     30  O   UNL     1      -5.860  16.102  24.396  0.00  0.00    +0.000 OA
ATOM     31  H   UNL     1      -5.651  16.963  24.797  0.00  0.00    +0.000 HD
ENDBRANCH  11  30
TORSDOF 2
ENDMDL
MODEL 2
REMARK VINA RESULT:      -7.4      1.577      2.780
REMARK  Name = 
REMARK  4 active torsions:
REMARK  status: ('A' for Active; 'I' for Inactive)
REMARK    1  A    between atoms: C_1  and  C_2
REMARK    2  A    between atoms: C_11  and  O_12
REMARK    3  A    between atoms: C_15  and  C_16
REMARK    4  A    between atoms: C_20  and  C_21
REMARK                            x       y       z     vdW  Elec       q    Type
REMARK                         _______ _______ _______ _____ _____    ______ ____
ROOT
ATOM      1  C   UNL     1       1.110  11.717  20.696  0.00  0.00    +0.000 C 
ATOM      2  C   UNL     1      -0.307  11.089  20.644  0.00  0.00    +0.000 C 
ATOM      3  C   UNL     1      -1.137  11.783  19.550  0.00  0.00    +0.000 C 
ATOM      4  C   UNL     1      -1.357  13.274  19.873  0.00  0.00    +0.000 C 
ATOM      5  C   UNL     1      -1.913  13.545  21.304  0.00  0.00    +0.000 C 
ATOM      6  C   UNL     1      -1.196  12.715  22.406  0.00  0.00    +0.000 C 
ATOM      7  C   UNL     1      -1.944  12.833  23.740  0.00  0.00    +0.000 C 
ATOM      8  C   UNL     1      -2.347  14.236  24.060  0.00  0.00    +0.000 C 
ATOM      9  C   UNL     1      -2.347  15.252  23.178  0.00  0.00    +0.000 C 
ATOM     10  C   UNL     1      -2.737  16.644  23.623  0.00  0.00    +0.000 C 
ATOM     11  C   UNL     1      -3.798  17.265  22.714  0.00  0.00    +0.000 C 
ATOM     12  C   UNL     1      -3.395  17.191  21.243  0.00  0.00    +0.000 C 
ATOM     13  C   UNL     1      -3.074  15.756  20.828  0.00  0.00    +0.000 C 
ATOM     14  C   UNL     1      -1.976  15.075  21.695  0.00  0.00    +0.000 C 
ATOM     15  C   UNL     1      -0.614  15.774  21.457  0.00  0.00    +0.000 C 
ATOM     16  C   UNL     1      -1.097  11.255  21.961  0.00  0.00    +0.000 C 
ATOM     17  C   UNL     1      -0.453  10.264  22.916  0.00  0.00    +0.000 C 
ATOM     18  C   UNL     1      -0.091   9.071  22.028  0.00  0.00    +0.000 C 
ATOM     19  C   UNL     1      -0.261   9.534  20.550  0.00  0.00    +0.000 C 
ENDROOT
BRANCH  19  20
ATOM     20  C   UNL     1       0.802   8.938  19.656  0.00  0.00    +0.000 A 
ATOM     21  C   UNL     1       1.178   9.536  18.461  0.00  0.00    +0.000 A 
ATOM     22  C   UNL     1       2.190   8.934  17.710  0.00  0.00    +0.000 A 
ATOM     23  C   UNL     1       2.817   7.768  18.179  0.00  0.00    +0.000 A 
ATOM     24  C   UNL     1       3.862   7.125  17.491  0.00  0.00    +0.000 A 
ATOM     25  C   UNL     1       4.472   5.993  18.034  0.00  0.00    +0.000 A 
ATOM     26  C   UNL     1       4.047   5.496  19.260  0.00  0.00    +0.000 A 
ATOM     27  C   UNL     1       2.998   6.126  19.932  0.00  0.00    +0.000 A 
ATOM     28  C   UNL     1       2.382   7.248  19.405  0.00  0.00    +0.000 A 
ATOM     29  N   UNL     1       1.394   7.812  20.111  0.00  0.00    +0.000 NA
ENDBRANCH  19  20
BRANCH  11  30
ATOM     30  O   UNL     1      -4.011  18.630  23.074  0.00  0.00    +0.000 OA
ATOM     31  H   UNL     1      -4.529  18.643  23.898  0.00  0.00    +0.000 HD
ENDBRANCH  11  30
TORSDOF 2
ENDMDL
MODEL 3
REMARK VINA RESULT:      -7.2      1.591      2.877
REMARK  Name = 
REMARK  4 active torsions:
REMARK  status: ('A' for Active; 'I' for Inactive)
REMARK    1  A    between atoms: C_1  and  C_2
REMARK    2  A    between atoms: C_11  and  O_12
REMARK    3  A    between atoms: C_15  and  C_16
REMARK    4  A    between atoms: C_20  and  C_21
REMARK                            x       y       z     vdW  Elec       q    Type
REMARK                         _______ _______ _______ _____ _____    ______ ____
ROOT
ATOM      1  C   UNL     1      -0.464   8.599  19.972  0.00  0.00    +0.000 C 
ATOM      2  C   UNL     1       0.922   9.258  20.196  0.00  0.00    +0.000 C 
ATOM      3  C   UNL     1       1.099   9.587  21.689  0.00  0.00    +0.000 C 
ATOM      4  C   UNL     1       0.064  10.628  22.160  0.00  0.00    +0.000 C 
ATOM      5  C   UNL     1      -0.009  11.908  21.274  0.00  0.00    +0.000 C 
ATOM      6  C   UNL     1      -0.012  11.597  19.751  0.00  0.00    +0.000 C 
ATOM      7  C   UNL     1       0.168  12.886  18.938  0.00  0.00    +0.000 C 
ATOM      8  C   UNL     1      -0.683  14.010  19.433  0.00  0.00    +0.000 C 
ATOM      9  C   UNL     1      -1.310  14.028  20.622  0.00  0.00    +0.000 C 
ATOM     10  C   UNL     1      -2.181  15.205  21.003  0.00  0.00    +0.000 C 
ATOM     11  C   UNL     1      -1.832  15.758  22.385  0.00  0.00    +0.000 C 
ATOM     12  C   UNL     1      -1.803  14.659  23.443  0.00  0.00    +0.000 C 
ATOM     13  C   UNL     1      -0.861  13.525  23.041  0.00  0.00    +0.000 C 
ATOM     14  C   UNL     1      -1.184  12.894  21.655  0.00  0.00    +0.000 C 
ATOM     15  C   UNL     1      -2.542  12.153  21.722  0.00  0.00    +0.000 C 
ATOM     16  C   UNL     1       1.095  10.590  19.434  0.00  0.00    +0.000 C 
ATOM     17  C   UNL     1       1.283  10.174  17.984  0.00  0.00    +0.000 C 
ATOM     18  C   UNL     1       2.090   8.876  18.070  0.00  0.00    +0.000 C 
ATOM     19  C   UNL     1       2.080   8.430  19.562  0.00  0.00    +0.000 C 
ENDROOT
BRANCH  19  20
ATOM     20  C   UNL     1       1.991   6.927  19.692  0.00  0.00    +0.000 A 
ATOM     21  C   UNL     1       1.513   6.314  20.843  0.00  0.00    +0.000 A 
ATOM     22  C   UNL     1       1.436   4.920  20.867  0.00  0.00    +0.000 A 
ATOM     23  C   UNL     1       1.813   4.175  19.737  0.00  0.00    +0.000 A 
ATOM     24  C   UNL     1       1.734   2.771  19.680  0.00  0.00    +0.000 A 
ATOM     25  C   UNL     1       2.083   2.093  18.511  0.00  0.00    +0.000 A 
ATOM     26  C   UNL     1       2.511   2.804  17.397  0.00  0.00    +0.000 A 
ATOM     27  C   UNL     1       2.606   4.195  17.463  0.00  0.00    +0.000 A 
ATOM     28  C   UNL     1       2.265   4.881  18.616  0.00  0.00    +0.000 A 
ATOM     29  N   UNL     1       2.362   6.217  18.604  0.00  0.00    +0.000 NA
ENDBRANCH  19  20
BRANCH  11  30
ATOM     30  O   UNL     1      -2.781  16.753  22.766  0.00  0.00    +0.000 OA
ATOM     31  H   UNL     1      -3.336  16.380  23.472  0.00  0.00    +0.000 HD
ENDBRANCH  11  30
TORSDOF 2
ENDMDL
MODEL 4
REMARK VINA RESULT:      -7.2      1.517      2.693
REMARK  Name = 
REMARK  4 active torsions:
REMARK  status: ('A' for Active; 'I' for Inactive)
REMARK    1  A    between atoms: C_1  and  C_2
REMARK    2  A    between atoms: C_11  and  O_12
REMARK    3  A    between atoms: C_15  and  C_16
REMARK    4  A    between atoms: C_20  and  C_21
REMARK                            x       y       z     vdW  Elec       q    Type
REMARK                         _______ _______ _______ _____ _____    ______ ____
ROOT
ATOM      1  C   UNL     1       1.120  11.138  20.039  0.00  0.00    +0.000 C 
ATOM      2  C   UNL     1      -0.040  10.168  20.386  0.00  0.00    +0.000 C 
ATOM      3  C   UNL     1      -1.198  10.377  19.394  0.00  0.00    +0.000 C 
ATOM      4  C   UNL     1      -1.792  11.795  19.516  0.00  0.00    +0.000 C 
ATOM      5  C   UNL     1      -2.172  12.208  20.969  0.00  0.00    +0.000 C 
ATOM      6  C   UNL     1      -1.080  11.843  22.014  0.00  0.00    +0.000 C 
ATOM      7  C   UNL     1      -1.611  12.043  23.440  0.00  0.00    +0.000 C 
ATOM      8  C   UNL     1      -2.352  13.329  23.610  0.00  0.00    +0.000 C 
ATOM      9  C   UNL     1      -2.789  14.100  22.599  0.00  0.00    +0.000 C 
ATOM     10  C   UNL     1      -3.495  15.406  22.890  0.00  0.00    +0.000 C 
ATOM     11  C   UNL     1      -4.820  15.526  22.136  0.00  0.00    +0.000 C 
ATOM     12  C   UNL     1      -4.649  15.250  20.644  0.00  0.00    +0.000 C 
ATOM     13  C   UNL     1      -3.990  13.892  20.403  0.00  0.00    +0.000 C 
ATOM     14  C   UNL     1      -2.619  13.717  21.118  0.00  0.00    +0.000 C 
ATOM     15  C   UNL     1      -1.577  14.677  20.492  0.00  0.00    +0.000 C 
ATOM     16  C   UNL     1      -0.627  10.399  21.795  0.00  0.00    +0.000 C 
ATOM     17  C   UNL     1       0.421   9.832  22.739  0.00  0.00    +0.000 C 
ATOM     18  C   UNL     1       0.973   8.614  21.995  0.00  0.00    +0.000 C 
ATOM     19  C   UNL     1       0.445   8.694  20.532  0.00  0.00    +0.000 C 
ENDROOT
BRANCH  19  20
ATOM     20  C   UNL     1       1.482   8.218  19.540  0.00  0.00    +0.000 A 
ATOM     21  C   UNL     1       1.740   8.902  18.360  0.00  0.00    +0.000 A 
ATOM     22  C   UNL     1       2.736   8.409  17.514  0.00  0.00    +0.000 A 
ATOM     23  C   UNL     1       3.465   7.264  17.877  0.00  0.00    +0.000 A 
ATOM     24  C   UNL     1       4.501   6.730  17.090  0.00  0.00    +0.000 A 
ATOM     25  C   UNL     1       5.217   5.615  17.529  0.00  0.00    +0.000 A 
ATOM     26  C   UNL     1       4.906   5.027  18.749  0.00  0.00    +0.000 A 
ATOM     27  C   UNL     1       3.865   5.549  19.520  0.00  0.00    +0.000 A 
ATOM     28  C   UNL     1       3.146   6.653  19.097  0.00  0.00    +0.000 A 
ATOM     29  N   UNL     1       2.174   7.112  19.894  0.00  0.00    +0.000 NA
ENDBRANCH  19  20
BRANCH  11  30
ATOM     30  O   UNL     1      -5.365  16.833  22.312  0.00  0.00    +0.000 OA
ATOM     31  H   UNL     1      -5.789  16.863  23.187  0.00  0.00    +0.000 HD
ENDBRANCH  11  30
TORSDOF 2
ENDMDL
MODEL 5
REMARK VINA RESULT:      -7.1      1.579      2.348
REMARK  Name = 
REMARK  4 active torsions:
REMARK  status: ('A' for Active; 'I' for Inactive)
REMARK    1  A    between atoms: C_1  and  C_2
REMARK    2  A    between atoms: C_11  and  O_12
REMARK    3  A    between atoms: C_15  and  C_16
REMARK    4  A    between atoms: C_20  and  C_21
REMARK                            x       y       z     vdW  Elec       q    Type
REMARK                         _______ _______ _______ _____ _____    ______ ____
ROOT
ATOM      1  C   UNL     1      -0.415   9.075  20.808  0.00  0.00    +0.000 C 
ATOM      2  C   UNL     1       0.180  10.261  20.003  0.00  0.00    +0.000 C 
ATOM      3  C   UNL     1       0.968  11.181  20.951  0.00  0.00    +0.000 C 
ATOM      4  C   UNL     1       0.046  11.820  22.008  0.00  0.00    +0.000 C 
ATOM      5  C   UNL     1      -1.219  12.515  21.420  0.00  0.00    +0.000 C 
ATOM      6  C   UNL     1      -1.931  11.666  20.329  0.00  0.00    +0.000 C 
ATOM      7  C   UNL     1      -3.007  12.497  19.618  0.00  0.00    +0.000 C 
ATOM      8  C   UNL     1      -3.852  13.288  20.564  0.00  0.00    +0.000 C 
ATOM      9  C   UNL     1      -3.549  13.513  21.854  0.00  0.00    +0.000 C 
ATOM     10  C   UNL     1      -4.501  14.296  22.732  0.00  0.00    +0.000 C 
ATOM     11  C   UNL     1      -3.797  15.429  23.480  0.00  0.00    +0.000 C 
ATOM     12  C   UNL     1      -2.558  14.934  24.222  0.00  0.00    +0.000 C 
ATOM     13  C   UNL     1      -1.600  14.207  23.278  0.00  0.00    +0.000 C 
ATOM     14  C   UNL     1      -2.248  13.018  22.509  0.00  0.00    +0.000 C 
ATOM     15  C   UNL     1      -2.611  11.889  23.505  0.00  0.00    +0.000 C 
ATOM     16  C   UNL     1      -0.895  11.143  19.333  0.00  0.00    +0.000 C 
ATOM     17  C   UNL     1      -1.393  10.311  18.162  0.00  0.00    +0.000 C 
ATOM     18  C   UNL     1      -0.142   9.583  17.664  0.00  0.00    +0.000 C 
ATOM     19  C   UNL     1       0.964   9.784  18.743  0.00  0.00    +0.000 C 
ENDROOT
BRANCH  19  20
ATOM     20  C   UNL     1       1.818   8.547  18.901  0.00  0.00    +0.000 A 
ATOM     21  C   UNL     1       1.704   7.710  20.003  0.00  0.00    +0.000 A 
ATOM     22  C   UNL     1       2.510   6.571  20.054  0.00  0.00    +0.000 A 
ATOM     23  C   UNL     1       3.390   6.283  18.997  0.00  0.00    +0.000 A 
ATOM     24  C   UNL     1       4.209   5.139  18.967  0.00  0.00    +0.000 A 
ATOM     25  C   UNL     1       5.029   4.888  17.866  0.00  0.00    +0.000 A 
ATOM     26  C   UNL     1       5.039   5.770  16.793  0.00  0.00    +0.000 A 
ATOM     27  C   UNL     1       4.238   6.913  16.833  0.00  0.00    +0.000 A 
ATOM     28  C   UNL     1       3.421   7.176  17.919  0.00  0.00    +0.000 A 
ATOM     29  N   UNL     1       2.666   8.281  17.883  0.00  0.00    +0.000 NA
ENDBRANCH  19  20
BRANCH  11  30
ATOM     30  O   UNL     1      -4.695  16.029  24.413  0.00  0.00    +0.000 OA
ATOM     31  H   UNL     1      -5.061  16.830  24.000  0.00  0.00    +0.000 HD
ENDBRANCH  11  30
TORSDOF 2
ENDMDL
MODEL 6
REMARK VINA RESULT:      -7.0      1.380      1.784
REMARK  Name = 
REMARK  4 active torsions:
REMARK  status: ('A' for Active; 'I' for Inactive)
REMARK    1  A    between atoms: C_1  and  C_2
REMARK    2  A    between atoms: C_11  and  O_12
REMARK    3  A    between atoms: C_15  and  C_16
REMARK    4  A    between atoms: C_20  and  C_21
REMARK                            x       y       z     vdW  Elec       q    Type
REMARK                         _______ _______ _______ _____ _____    ______ ____
ROOT
ATOM      1  C   UNL     1      -0.429   9.202  20.632  0.00  0.00    +0.000 C 
ATOM      2  C   UNL     1       0.053  10.433  19.820  0.00  0.00    +0.000 C 
ATOM      3  C   UNL     1       0.913  11.337  20.721  0.00  0.00    +0.000 C 
ATOM      4  C   UNL     1       0.089  11.909  21.892  0.00  0.00    +0.000 C 
ATOM      5  C   UNL     1      -1.245  12.592  21.465  0.00  0.00    +0.000 C 
ATOM      6  C   UNL     1      -2.045  11.767  20.417  0.00  0.00    +0.000 C 
ATOM      7  C   UNL     1      -3.208  12.596  19.855  0.00  0.00    +0.000 C 
ATOM      8  C   UNL     1      -3.969  13.326  20.913  0.00  0.00    +0.000 C 
ATOM      9  C   UNL     1      -3.540  13.509  22.175  0.00  0.00    +0.000 C 
ATOM     10  C   UNL     1      -4.414  14.231  23.176  0.00  0.00    +0.000 C 
ATOM     11  C   UNL     1      -3.664  15.353  23.895  0.00  0.00    +0.000 C 
ATOM     12  C   UNL     1      -2.345  14.862  24.486  0.00  0.00    +0.000 C 
ATOM     13  C   UNL     1      -1.472  14.199  23.421  0.00  0.00    +0.000 C 
ATOM     14  C   UNL     1      -2.167  13.024  22.673  0.00  0.00    +0.000 C 
ATOM     15  C   UNL     1      -2.401  11.848  23.652  0.00  0.00    +0.000 C 
ATOM     16  C   UNL     1      -1.105  11.312  19.301  0.00  0.00    +0.000 C 
ATOM     17  C   UNL     1      -1.701  10.513  18.153  0.00  0.00    +0.000 C 
ATOM     18  C   UNL     1      -0.491   9.839  17.501  0.00  0.00    +0.000 C 
ATOM     19  C   UNL     1       0.714  10.027  18.469  0.00  0.00    +0.000 C 
ENDROOT
BRANCH  19  20
ATOM     20  C   UNL     1       1.607   8.808  18.488  0.00  0.00    +0.000 A 
ATOM     21  C   UNL     1       2.686   8.673  17.623  0.00  0.00    +0.000 A 
ATOM     22  C   UNL     1       3.477   7.527  17.729  0.00  0.00    +0.000 A 
ATOM     23  C   UNL     1       3.190   6.560  18.706  0.00  0.00    +0.000 A 
ATOM     24  C   UNL     1       3.962   5.398  18.889  0.00  0.00    +0.000 A 
ATOM     25  C   UNL     1       3.649   4.497  19.909  0.00  0.00    +0.000 A 
ATOM     26  C   UNL     1       2.570   4.747  20.748  0.00  0.00    +0.000 A 
ATOM     27  C   UNL     1       1.796   5.892  20.553  0.00  0.00    +0.000 A 
ATOM     28  C   UNL     1       2.093   6.793  19.545  0.00  0.00    +0.000 A 
ATOM     29  N   UNL     1       1.320   7.880  19.426  0.00  0.00    +0.000 NA
ENDBRANCH  19  20
BRANCH  11  30
ATOM     30  O   UNL     1      -4.475  15.892  24.938  0.00  0.00    +0.000 OA
ATOM     31  H   UNL     1      -5.020  15.169  25.294  0.00  0.00    +0.000 HD
ENDBRANCH  11  30
TORSDOF 2
ENDMDL
MODEL 7
REMARK VINA RESULT:      -6.8      1.427      2.336
REMARK  Name = 
REMARK  4 active torsions:
REMARK  status: ('A' for Active; 'I' for Inactive)
REMARK    1  A    between atoms: C_1  and  C_2
REMARK    2  A    between atoms: C_11  and  O_12
REMARK    3  A    between atoms: C_15  and  C_16
REMARK    4  A    between atoms: C_20  and  C_21
REMARK                            x       y       z     vdW  Elec       q    Type
REMARK                         _______ _______ _______ _____ _____    ______ ____
ROOT
ATOM      1  C   UNL     1      -0.382   8.962  19.324  0.00  0.00    +0.000 C 
ATOM      2  C   UNL     1       0.958   9.507  19.885  0.00  0.00    +0.000 C 
ATOM      3  C   UNL     1       0.889   9.555  21.422  0.00  0.00    +0.000 C 
ATOM      4  C   UNL     1      -0.193  10.541  21.904  0.00  0.00    +0.000 C 
ATOM      5  C   UNL     1      -0.098  11.961  21.268  0.00  0.00    +0.000 C 
ATOM      6  C   UNL     1       0.147  11.927  19.733  0.00  0.00    +0.000 C 
ATOM      7  C   UNL     1       0.479  13.331  19.210  0.00  0.00    +0.000 C 
ATOM      8  C   UNL     1      -0.425  14.386  19.760  0.00  0.00    +0.000 C 
ATOM      9  C   UNL     1      -1.241  14.220  20.816  0.00  0.00    +0.000 C 
ATOM     10  C   UNL     1      -2.145  15.348  21.263  0.00  0.00    +0.000 C 
ATOM     11  C   UNL     1      -2.021  15.629  22.760  0.00  0.00    +0.000 C 
ATOM     12  C   UNL     1      -2.186  14.358  23.590  0.00  0.00    +0.000 C 
ATOM     13  C   UNL     1      -1.207  13.273  23.142  0.00  0.00    +0.000 C 
ATOM     14  C   UNL     1      -1.305  12.915  21.630  0.00  0.00    +0.000 C 
ATOM     15  C   UNL     1      -2.667  12.236  21.341  0.00  0.00    +0.000 C 
ATOM     16  C   UNL     1       1.275  10.944  19.418  0.00  0.00    +0.000 C 
ATOM     17  C   UNL     1       1.695  10.786  17.965  0.00  0.00    +0.000 C 
ATOM     18  C   UNL     1       2.456   9.459  17.940  0.00  0.00    +0.000 C 
ATOM     19  C   UNL     1       2.192   8.754  19.304  0.00  0.00    +0.000 C 
ENDROOT
BRANCH  19  20
ATOM     20  C   UNL     1       2.060   7.257  19.139  0.00  0.00    +0.000 A 
ATOM     21  C   UNL     1       1.984   6.658  17.888  0.00  0.00    +0.000 A 
ATOM     22  C   UNL     1       1.893   5.266  17.827  0.00  0.00    +0.000 A 
ATOM     23  C   UNL     1       1.906   4.506  19.008  0.00  0.00    +0.000 A 
ATOM     24  C   UNL     1       1.848   3.101  19.020  0.00  0.00    +0.000 A 
ATOM     25  C   UNL     1       1.909   2.403  20.228  0.00  0.00    +0.000 A 
ATOM     26  C   UNL     1       2.026   3.097  21.425  0.00  0.00    +0.000 A 
ATOM     27  C   UNL     1       2.065   4.493  21.412  0.00  0.00    +0.000 A 
ATOM     28  C   UNL     1       2.005   5.198  20.222  0.00  0.00    +0.000 A 
ATOM     29  N   UNL     1       2.065   6.534  20.281  0.00  0.00    +0.000 NA
ENDBRANCH  19  20
BRANCH  11  30
ATOM     30  O   UNL     1      -3.005  16.582  23.161  0.00  0.00    +0.000 OA
ATOM     31  H   UNL     1      -3.097  17.234  22.445  0.00  0.00    +0.000 HD
ENDBRANCH  11  30
TORSDOF 2
ENDMDL
MODEL 8
REMARK VINA RESULT:      -6.7      4.499      9.652
REMARK  Name = 
REMARK  4 active torsions:
REMARK  status: ('A' for Active; 'I' for Inactive)
REMARK    1  A    between atoms: C_1  and  C_2
REMARK    2  A    between atoms: C_11  and  O_12
REMARK    3  A    between atoms: C_15  and  C_16
REMARK    4  A    between atoms: C_20  and  C_21
REMARK                            x       y       z     vdW  Elec       q    Type
REMARK                         _______ _______ _______ _____ _____    ______ ____
ROOT
ATOM      1  C   UNL     1       0.117   9.144  18.785  0.00  0.00    +0.000 C 
ATOM      2  C   UNL     1       1.379   9.254  19.680  0.00  0.00    +0.000 C 
ATOM      3  C   UNL     1       2.640   9.140  18.805  0.00  0.00    +0.000 C 
ATOM      4  C   UNL     1       2.731   7.757  18.129  0.00  0.00    +0.000 C 
ATOM      5  C   UNL     1       2.574   6.554  19.106  0.00  0.00    +0.000 C 
ATOM      6  C   UNL     1       1.406   6.735  20.116  0.00  0.00    +0.000 C 
ATOM      7  C   UNL     1       1.458   5.650  21.200  0.00  0.00    +0.000 C 
ATOM      8  C   UNL     1       1.711   4.285  20.646  0.00  0.00    +0.000 C 
ATOM      9  C   UNL     1       2.147   4.035  19.399  0.00  0.00    +0.000 C 
ATOM     10  C   UNL     1       2.330   2.607  18.931  0.00  0.00    +0.000 C 
ATOM     11  C   UNL     1       3.708   2.375  18.311  0.00  0.00    +0.000 C 
ATOM     12  C   UNL     1       4.026   3.410  17.235  0.00  0.00    +0.000 C 
ATOM     13  C   UNL     1       3.889   4.833  17.776  0.00  0.00    +0.000 C 
ATOM     14  C   UNL     1       2.495   5.145  18.392  0.00  0.00    +0.000 C 
ATOM     15  C   UNL     1       1.418   5.138  17.279  0.00  0.00    +0.000 C 
ATOM     16  C   UNL     1       1.479   8.131  20.735  0.00  0.00    +0.000 C 
ATOM     17  C   UNL     1       0.437   8.500  21.779  0.00  0.00    +0.000 C 
ATOM     18  C   UNL     1       0.490  10.029  21.833  0.00  0.00    +0.000 C 
ATOM     19  C   UNL     1       1.335  10.501  20.613  0.00  0.00    +0.000 C 
ENDROOT
BRANCH  19  20
ATOM     20  C   UNL     1       0.786  11.777  20.017  0.00  0.00    +0.000 A 
ATOM     21  C   UNL     1      -0.575  11.972  19.820  0.00  0.00    +0.000 A 
ATOM     22  C   UNL     1      -0.998  13.193  19.292  0.00  0.00    +0.000 A 
ATOM     23  C   UNL     1      -0.060  14.196  18.997  0.00  0.00    +0.000 A 
ATOM     24  C   UNL     1      -0.417  15.460  18.492  0.00  0.00    +0.000 A 
ATOM     25  C   UNL     1       0.561  16.429  18.262  0.00  0.00    +0.000 A 
ATOM     26  C   UNL     1       1.894  16.148  18.532  0.00  0.00    +0.000 A 
ATOM     27  C   UNL     1       2.248  14.887  19.016  0.00  0.00    +0.000 A 
ATOM     28  C   UNL     1       1.289  13.915  19.248  0.00  0.00    +0.000 A 
ATOM     29  N   UNL     1       1.696  12.735  19.730  0.00  0.00    +0.000 NA
ENDBRANCH  19  20
BRANCH  11  30
ATOM     30  O   UNL     1       3.772   1.069  17.739  0.00  0.00    +0.000 OA
ATOM     31  H   UNL     1       2.882   0.839  17.423  0.00  0.00    +0.000 HD
ENDBRANCH  11  30
TORSDOF 2
ENDMDL
MODEL 9
REMARK VINA RESULT:      -6.5      1.346      2.025
REMARK  Name = 
REMARK  4 active torsions:
REMARK  status: ('A' for Active; 'I' for Inactive)
REMARK    1  A    between atoms: C_1  and  C_2
REMARK    2  A    between atoms: C_11  and  O_12
REMARK    3  A    between atoms: C_15  and  C_16
REMARK    4  A    between atoms: C_20  and  C_21
REMARK                            x       y       z     vdW  Elec       q    Type
REMARK                         _______ _______ _______ _____ _____    ______ ____
ROOT
ATOM      1  C   UNL     1      -1.670  12.338  19.269  0.00  0.00    +0.000 C 
ATOM      2  C   UNL     1      -0.943  12.714  20.587  0.00  0.00    +0.000 C 
ATOM      3  C   UNL     1      -1.674  12.070  21.778  0.00  0.00    +0.000 C 
ATOM      4  C   UNL     1      -3.107  12.621  21.922  0.00  0.00    +0.000 C 
ATOM      5  C   UNL     1      -3.197  14.177  21.940  0.00  0.00    +0.000 C 
ATOM      6  C   UNL     1      -2.322  14.853  20.847  0.00  0.00    +0.000 C 
ATOM      7  C   UNL     1      -2.254  16.369  21.072  0.00  0.00    +0.000 C 
ATOM      8  C   UNL     1      -3.586  16.971  21.386  0.00  0.00    +0.000 C 
ATOM      9  C   UNL     1      -4.678  16.270  21.738  0.00  0.00    +0.000 C 
ATOM     10  C   UNL     1      -5.988  16.983  21.994  0.00  0.00    +0.000 C 
ATOM     11  C   UNL     1      -6.611  16.583  23.332  0.00  0.00    +0.000 C 
ATOM     12  C   UNL     1      -6.709  15.066  23.479  0.00  0.00    +0.000 C 
ATOM     13  C   UNL     1      -5.349  14.400  23.275  0.00  0.00    +0.000 C 
ATOM     14  C   UNL     1      -4.673  14.741  21.915  0.00  0.00    +0.000 C 
ATOM     15  C   UNL     1      -5.493  14.122  20.755  0.00  0.00    +0.000 C 
ATOM     16  C   UNL     1      -0.923  14.234  20.860  0.00  0.00    +0.000 C 
ATOM     17  C   UNL     1       0.104  14.780  19.881  0.00  0.00    +0.000 C 
ATOM     18  C   UNL     1       1.175  13.688  19.817  0.00  0.00    +0.000 C 
ATOM     19  C   UNL     1       0.587  12.429  20.520  0.00  0.00    +0.000 C 
ENDROOT
BRANCH  19  20
ATOM     20  C   UNL     1       1.012  11.156  19.827  0.00  0.00    +0.000 A 
ATOM     21  C   UNL     1       1.426  11.142  18.501  0.00  0.00    +0.000 A 
ATOM     22  C   UNL     1       1.831   9.926  17.947  0.00  0.00    +0.000 A 
ATOM     23  C   UNL     1       1.837   8.762  18.733  0.00  0.00    +0.000 A 
ATOM     24  C   UNL     1       2.260   7.510  18.250  0.00  0.00    +0.000 A 
ATOM     25  C   UNL     1       2.283   6.399  19.096  0.00  0.00    +0.000 A 
ATOM     26  C   UNL     1       1.887   6.528  20.421  0.00  0.00    +0.000 A 
ATOM     27  C   UNL     1       1.450   7.768  20.893  0.00  0.00    +0.000 A 
ATOM     28  C   UNL     1       1.421   8.877  20.065  0.00  0.00    +0.000 A 
ATOM     29  N   UNL     1       1.009  10.039  20.587  0.00  0.00    +0.000 NA
ENDBRANCH  19  20
BRANCH  11  30
ATOM     30  O   UNL     1      -7.915  17.151  23.452  0.00  0.00    +0.000 OA
ATOM     31  H   UNL     1      -8.527  16.603  22.932  0.00  0.00    +0.000 HD
ENDBRANCH  11  30
TORSDOF 2
ENDMDL
