MODEL 1
REMARK VINA RESULT:      -7.5      0.000      0.000
REMARK  Name = 
REMARK  5 active torsions:
REMARK  status: ('A' for Active; 'I' for Inactive)
REMARK    1  A    between atoms: C_2  and  O_3
REMARK    2  A    between atoms: O_3  and  C_4
REMARK    3  A    between atoms: C_7  and  N_8
REMARK    4  A    between atoms: C_17  and  C_18
REMARK    5  A    between atoms: C_17  and  C_24
REMARK                            x       y       z     vdW  Elec       q    Type
REMARK                         _______ _______ _______ _____ _____    ______ ____
ROOT
ATOM      1  O   UNL     1       1.807  11.556  17.961  0.00  0.00    +0.000 OA
ATOM      2  C   UNL     1       1.387  10.674  18.704  0.00  0.00    +0.000 C 
ATOM      3  N   UNL     1       1.979   9.434  18.859  0.00  0.00    +0.000 N 
ATOM      4  C   UNL     1       1.460   8.391  19.753  0.00  0.00    +0.000 C 
ATOM      5  C   UNL     1       1.187   7.088  18.993  0.00  0.00    +0.000 C 
ATOM      6  C   UNL     1       2.444   6.647  18.253  0.00  0.00    +0.000 C 
ATOM      7  C   UNL     1       3.080   5.461  18.446  0.00  0.00    +0.000 C 
ATOM      8  C   UNL     1       2.902   7.748  17.298  0.00  0.00    +0.000 C 
ATOM      9  C   UNL     1       3.138   9.065  18.051  0.00  0.00    +0.000 C 
ENDROOT
BRANCH   7  10
ATOM     10  C   UNL     1       2.515   4.471  19.397  0.00  0.00    +0.000 A 
ATOM     11  C   UNL     1       1.677   3.452  18.925  0.00  0.00    +0.000 A 
ATOM     12  C   UNL     1       1.110   2.535  19.810  0.00  0.00    +0.000 A 
ATOM     13  C   UNL     1       1.381   2.629  21.179  0.00  0.00    +0.000 A 
ATOM     14  C   UNL     1       2.216   3.633  21.658  0.00  0.00    +0.000 A 
ATOM     15  C   UNL     1       2.780   4.551  20.773  0.00  0.00    +0.000 A 
ENDBRANCH   7  10
BRANCH   7  16
ATOM     16  C   UNL     1       4.344   5.183  17.724  0.00  0.00    +0.000 A 
ATOM     17  C   UNL     1       4.320   4.423  16.547  0.00  0.00    +0.000 A 
ATOM     18  C   UNL     1       5.506   4.127  15.872  0.00  0.00    +0.000 A 
ATOM     19  C   UNL     1       6.724   4.592  16.366  0.00  0.00    +0.000 A 
ATOM     20  C   UNL     1       6.758   5.355  17.532  0.00  0.00    +0.000 A 
ATOM     21  C   UNL     1       5.574   5.651  18.211  0.00  0.00    +0.000 A 
ENDBRANCH   7  16
BRANCH   2  22
ATOM     22  O   UNL     1       0.234  10.784  19.474  0.00  0.00    +0.000 OA
BRANCH  22  23
ATOM     23  C   UNL     1      -1.069  10.857  18.942  0.00  0.00    +0.000 A 
ATOM     24  C   UNL     1      -1.861  11.855  19.516  0.00  0.00    +0.000 A 
ATOM     25  C   UNL     1      -3.187  12.010  19.115  0.00  0.00    +0.000 A 
ATOM     26  C   UNL     1      -3.702  11.171  18.118  0.00  0.00    +0.000 A 
ATOM     27  C   UNL     1      -2.913  10.152  17.563  0.00  0.00    +0.000 A 
ATOM     28  C   UNL     1      -1.590   9.991  17.985  0.00  0.00    +0.000 A 
BRANCH  26  29
ATOM     29  N   UNL     1      -5.068  11.385  17.626  0.00  0.00    +0.000 N 
ATOM     30  O   UNL     1      -5.981  10.738  18.159  0.00  0.00    +0.000 OA
ATOM     31  O   UNL     1      -5.231  12.209  16.716  0.00  0.00    +0.000 OA
ENDBRANCH  26  29
ENDBRANCH  22  23
ENDBRANCH   2  22
TORSDOF 5
ENDMDL
MODEL 2
REMARK VINA RESULT:      -7.5      0.681      1.459
REMARK  Name = 
REMARK  5 active torsions:
REMARK  status: ('A' for Active; 'I' for Inactive)
REMARK    1  A    between atoms: C_2  and  O_3
REMARK    2  A    between atoms: O_3  and  C_4
REMARK    3  A    between atoms: C_7  and  N_8
REMARK    4  A    between atoms: C_17  and  C_18
REMARK    5  A    between atoms: C_17  and  C_24
REMARK                            x       y       z     vdW  Elec       q    Type
REMARK                         _______ _______ _______ _____ _____    ______ ____
ROOT
ATOM      1  O   UNL     1       2.225  11.311  17.834  0.00  0.00    +0.000 OA
ATOM      2  C   UNL     1       1.755  10.439  18.557  0.00  0.00    +0.000 C 
ATOM      3  N   UNL     1       2.312   9.186  18.734  0.00  0.00    +0.000 N 
ATOM      4  C   UNL     1       1.733   8.155  19.605  0.00  0.00    +0.000 C 
ATOM      5  C   UNL     1       1.461   6.859  18.832  0.00  0.00    +0.000 C 
ATOM      6  C   UNL     1       2.737   6.389  18.142  0.00  0.00    +0.000 C 
ATOM      7  C   UNL     1       3.337   5.189  18.358  0.00  0.00    +0.000 C 
ATOM      8  C   UNL     1       3.258   7.480  17.208  0.00  0.00    +0.000 C 
ATOM      9  C   UNL     1       3.493   8.791  17.972  0.00  0.00    +0.000 C 
ENDROOT
BRANCH   7  10
ATOM     10  C   UNL     1       2.711   4.211  19.285  0.00  0.00    +0.000 A 
ATOM     11  C   UNL     1       1.926   3.172  18.772  0.00  0.00    +0.000 A 
ATOM     12  C   UNL     1       1.303   2.265  19.630  0.00  0.00    +0.000 A 
ATOM     13  C   UNL     1       1.464   2.392  21.014  0.00  0.00    +0.000 A 
ATOM     14  C   UNL     1       2.247   3.417  21.533  0.00  0.00    +0.000 A 
ATOM     15  C   UNL     1       2.867   4.324  20.675  0.00  0.00    +0.000 A 
ENDBRANCH   7  10
BRANCH   7  16
ATOM     16  C   UNL     1       4.622   4.882  17.687  0.00  0.00    +0.000 A 
ATOM     17  C   UNL     1       5.829   5.236  18.303  0.00  0.00    +0.000 A 
ATOM     18  C   UNL     1       7.048   4.981  17.669  0.00  0.00    +0.000 A 
ATOM     19  C   UNL     1       7.068   4.368  16.418  0.00  0.00    +0.000 A 
ATOM     20  C   UNL     1       5.872   4.005  15.799  0.00  0.00    +0.000 A 
ATOM     21  C   UNL     1       4.651   4.260  16.429  0.00  0.00    +0.000 A 
ENDBRANCH   7  16
BRANCH   2  22
ATOM     22  O   UNL     1       0.575  10.576  19.281  0.00  0.00    +0.000 OA
BRANCH  22  23
ATOM     23  C   UNL     1      -0.694  10.760  18.697  0.00  0.00    +0.000 A 
ATOM     24  C   UNL     1      -0.913   9.977  17.559  0.00  0.00    +0.000 A 
ATOM     25  C   UNL     1      -2.109  10.091  16.854  0.00  0.00    +0.000 A 
ATOM     26  C   UNL     1      -3.092  10.977  17.314  0.00  0.00    +0.000 A 
ATOM     27  C   UNL     1      -2.859  11.781  18.440  0.00  0.00    +0.000 A 
ATOM     28  C   UNL     1      -1.648  11.675  19.130  0.00  0.00    +0.000 A 
BRANCH  26  29
ATOM     29  N   UNL     1      -4.389  11.038  16.631  0.00  0.00    +0.000 N 
ATOM     30  O   UNL     1      -4.443  10.639  15.459  0.00  0.00    +0.000 OA
ATOM     31  O   UNL     1      -5.358  11.471  17.270  0.00  0.00    +0.000 OA
ENDBRANCH  26  29
ENDBRANCH  22  23
ENDBRANCH   2  22
TORSDOF 5
ENDMDL
MODEL 3
REMARK VINA RESULT:      -7.3      0.163      1.357
REMARK  Name = 
REMARK  5 active torsions:
REMARK  status: ('A' for Active; 'I' for Inactive)
REMARK    1  A    between atoms: C_2  and  O_3
REMARK    2  A    between atoms: O_3  and  C_4
REMARK    3  A    between atoms: C_7  and  N_8
REMARK    4  A    between atoms: C_17  and  C_18
REMARK    5  A    between atoms: C_17  and  C_24
REMARK                            x       y       z     vdW  Elec       q    Type
REMARK                         _______ _______ _______ _____ _____    ______ ____
ROOT
ATOM      1  O   UNL     1       1.713  11.644  18.151  0.00  0.00    +0.000 OA
ATOM      2  C   UNL     1       1.287  10.737  18.858  0.00  0.00    +0.000 C 
ATOM      3  N   UNL     1       1.886   9.497  18.988  0.00  0.00    +0.000 N 
ATOM      4  C   UNL     1       1.357   8.424  19.839  0.00  0.00    +0.000 C 
ATOM      5  C   UNL     1       1.109   7.143  19.034  0.00  0.00    +0.000 C 
ATOM      6  C   UNL     1       2.384   6.733  18.305  0.00  0.00    +0.000 C 
ATOM      7  C   UNL     1       3.025   5.547  18.474  0.00  0.00    +0.000 C 
ATOM      8  C   UNL     1       2.851   7.867  17.393  0.00  0.00    +0.000 C 
ATOM      9  C   UNL     1       3.062   9.161  18.191  0.00  0.00    +0.000 C 
ENDROOT
BRANCH   7  10
ATOM     10  C   UNL     1       2.450   4.524  19.384  0.00  0.00    +0.000 A 
ATOM     11  C   UNL     1       2.731   4.575  20.754  0.00  0.00    +0.000 A 
ATOM     12  C   UNL     1       2.227   3.601  21.617  0.00  0.00    +0.000 A 
ATOM     13  C   UNL     1       1.431   2.567  21.112  0.00  0.00    +0.000 A 
ATOM     14  C   UNL     1       1.140   2.511  19.753  0.00  0.00    +0.000 A 
ATOM     15  C   UNL     1       1.647   3.483  18.892  0.00  0.00    +0.000 A 
ENDBRANCH   7  10
BRANCH   7  16
ATOM     16  C   UNL     1       4.305   5.300  17.769  0.00  0.00    +0.000 A 
ATOM     17  C   UNL     1       5.488   5.872  18.255  0.00  0.00    +0.000 A 
ATOM     18  C   UNL     1       6.697   5.674  17.584  0.00  0.00    +0.000 A 
ATOM     19  C   UNL     1       6.732   4.900  16.425  0.00  0.00    +0.000 A 
ATOM     20  C   UNL     1       5.562   4.321  15.937  0.00  0.00    +0.000 A 
ATOM     21  C   UNL     1       4.351   4.518  16.604  0.00  0.00    +0.000 A 
ENDBRANCH   7  16
BRANCH   2  22
ATOM     22  O   UNL     1       0.118  10.815  19.609  0.00  0.00    +0.000 OA
BRANCH  22  23
ATOM     23  C   UNL     1      -1.174  10.905  19.054  0.00  0.00    +0.000 A 
ATOM     24  C   UNL     1      -1.974  11.893  19.636  0.00  0.00    +0.000 A 
ATOM     25  C   UNL     1      -3.291  12.062  19.214  0.00  0.00    +0.000 A 
ATOM     26  C   UNL     1      -3.790  11.248  18.188  0.00  0.00    +0.000 A 
ATOM     27  C   UNL     1      -2.994  10.239  17.625  0.00  0.00    +0.000 A 
ATOM     28  C   UNL     1      -1.680  10.063  18.068  0.00  0.00    +0.000 A 
BRANCH  26  29
ATOM     29  N   UNL     1      -5.145  11.478  17.676  0.00  0.00    +0.000 N 
ATOM     30  O   UNL     1      -5.283  12.299  16.757  0.00  0.00    +0.000 OA
ATOM     31  O   UNL     1      -6.071  10.828  18.181  0.00  0.00    +0.000 OA
ENDBRANCH  26  29
ENDBRANCH  22  23
ENDBRANCH   2  22
TORSDOF 5
ENDMDL
MODEL 4
REMARK VINA RESULT:      -7.3      0.215      1.248
REMARK  Name = 
REMARK  5 active torsions:
REMARK  status: ('A' for Active; 'I' for Inactive)
REMARK    1  A    between atoms: C_2  and  O_3
REMARK    2  A    between atoms: O_3  and  C_4
REMARK    3  A    between atoms: C_7  and  N_8
REMARK    4  A    between atoms: C_17  and  C_18
REMARK    5  A    between atoms: C_17  and  C_24
REMARK                            x       y       z     vdW  Elec       q    Type
REMARK                         _______ _______ _______ _____ _____    ______ ____
ROOT
ATOM      1  O   UNL     1       1.694  11.596  18.222  0.00  0.00    +0.000 OA
ATOM      2  C   UNL     1       1.307  10.692  18.956  0.00  0.00    +0.000 C 
ATOM      3  N   UNL     1       1.904   9.448  19.046  0.00  0.00    +0.000 N 
ATOM      4  C   UNL     1       1.424   8.379  19.930  0.00  0.00    +0.000 C 
ATOM      5  C   UNL     1       1.114   7.100  19.144  0.00  0.00    +0.000 C 
ATOM      6  C   UNL     1       2.336   6.680  18.334  0.00  0.00    +0.000 C 
ATOM      7  C   UNL     1       2.977   5.489  18.461  0.00  0.00    +0.000 C 
ATOM      8  C   UNL     1       2.751   7.810  17.393  0.00  0.00    +0.000 C 
ATOM      9  C   UNL     1       3.023   9.103  18.174  0.00  0.00    +0.000 C 
ENDROOT
BRANCH   7  10
ATOM     10  C   UNL     1       2.454   4.470  19.406  0.00  0.00    +0.000 A 
ATOM     11  C   UNL     1       2.854   4.497  20.748  0.00  0.00    +0.000 A 
ATOM     12  C   UNL     1       2.399   3.526  21.641  0.00  0.00    +0.000 A 
ATOM     13  C   UNL     1       1.535   2.520  21.196  0.00  0.00    +0.000 A 
ATOM     14  C   UNL     1       1.127   2.488  19.867  0.00  0.00    +0.000 A 
ATOM     15  C   UNL     1       1.584   3.457  18.975  0.00  0.00    +0.000 A 
ENDBRANCH   7  10
BRANCH   7  16
ATOM     16  C   UNL     1       4.206   5.233  17.673  0.00  0.00    +0.000 A 
ATOM     17  C   UNL     1       4.149   4.403  16.546  0.00  0.00    +0.000 A 
ATOM     18  C   UNL     1       5.305   4.127  15.812  0.00  0.00    +0.000 A 
ATOM     19  C   UNL     1       6.524   4.683  16.196  0.00  0.00    +0.000 A 
ATOM     20  C   UNL     1       6.590   5.516  17.312  0.00  0.00    +0.000 A 
ATOM     21  C   UNL     1       5.437   5.792  18.050  0.00  0.00    +0.000 A 
ENDBRANCH   7  16
BRANCH   2  22
ATOM     22  O   UNL     1       0.191  10.780  19.782  0.00  0.00    +0.000 OA
BRANCH  22  23
ATOM     23  C   UNL     1      -1.119  11.011  19.318  0.00  0.00    +0.000 A 
ATOM     24  C   UNL     1      -1.533  10.123  18.320  0.00  0.00    +0.000 A 
ATOM     25  C   UNL     1      -2.791  10.264  17.738  0.00  0.00    +0.000 A 
ATOM     26  C   UNL     1      -3.638  11.288  18.183  0.00  0.00    +0.000 A 
ATOM     27  C   UNL     1      -3.211  12.195  19.164  0.00  0.00    +0.000 A 
ATOM     28  C   UNL     1      -1.940  12.058  19.729  0.00  0.00    +0.000 A 
BRANCH  26  29
ATOM     29  N   UNL     1      -4.998  11.389  17.641  0.00  0.00    +0.000 N 
ATOM     30  O   UNL     1      -5.874  10.672  18.144  0.00  0.00    +0.000 OA
ATOM     31  O   UNL     1      -5.194  12.196  16.721  0.00  0.00    +0.000 OA
ENDBRANCH  26  29
ENDBRANCH  22  23
ENDBRANCH   2  22
TORSDOF 5
ENDMDL
MODEL 5
REMARK VINA RESULT:      -7.2      2.900      5.278
REMARK  Name = 
REMARK  5 active torsions:
REMARK  status: ('A' for Active; 'I' for Inactive)
REMARK    1  A    between atoms: C_2  and  O_3
REMARK    2  A    between atoms: O_3  and  C_4
REMARK    3  A    between atoms: C_7  and  N_8
REMARK    4  A    between atoms: C_17  and  C_18
REMARK    5  A    between atoms: C_17  and  C_24
REMARK                            x       y       z     vdW  Elec       q    Type
REMARK                         _______ _______ _______ _____ _____    ______ ____
ROOT
ATOM      1  O   UNL     1      -0.055  11.191  20.215  0.00  0.00    +0.000 OA
ATOM      2  C   UNL     1       0.660  10.866  19.273  0.00  0.00    +0.000 C 
ATOM      3  N   UNL     1       1.015   9.564  18.973  0.00  0.00    +0.000 N 
ATOM      4  C   UNL     1       1.874   9.196  17.841  0.00  0.00    +0.000 C 
ATOM      5  C   UNL     1       3.097   8.396  18.304  0.00  0.00    +0.000 C 
ATOM      6  C   UNL     1       2.648   7.183  19.112  0.00  0.00    +0.000 C 
ATOM      7  C   UNL     1       2.928   5.893  18.790  0.00  0.00    +0.000 C 
ATOM      8  C   UNL     1       1.809   7.634  20.306  0.00  0.00    +0.000 C 
ATOM      9  C   UNL     1       0.605   8.469  19.847  0.00  0.00    +0.000 C 
ENDROOT
BRANCH   7  10
ATOM     10  C   UNL     1       3.773   5.597  17.606  0.00  0.00    +0.000 A 
ATOM     11  C   UNL     1       3.993   4.268  17.224  0.00  0.00    +0.000 A 
ATOM     12  C   UNL     1       4.812   3.972  16.134  0.00  0.00    +0.000 A 
ATOM     13  C   UNL     1       5.417   5.008  15.415  0.00  0.00    +0.000 A 
ATOM     14  C   UNL     1       5.200   6.331  15.783  0.00  0.00    +0.000 A 
ATOM     15  C   UNL     1       4.383   6.626  16.873  0.00  0.00    +0.000 A 
ENDBRANCH   7  10
BRANCH   7  16
ATOM     16  C   UNL     1       2.362   4.796  19.612  0.00  0.00    +0.000 A 
ATOM     17  C   UNL     1       1.269   4.063  19.134  0.00  0.00    +0.000 A 
ATOM     18  C   UNL     1       0.705   3.047  19.909  0.00  0.00    +0.000 A 
ATOM     19  C   UNL     1       1.234   2.754  21.165  0.00  0.00    +0.000 A 
ATOM     20  C   UNL     1       2.327   3.473  21.647  0.00  0.00    +0.000 A 
ATOM     21  C   UNL     1       2.891   4.492  20.875  0.00  0.00    +0.000 A 
ENDBRANCH   7  16
BRANCH   2  22
ATOM     22  O   UNL     1       1.245  11.767  18.389  0.00  0.00    +0.000 OA
BRANCH  22  23
ATOM     23  C   UNL     1       1.253  13.164  18.574  0.00  0.00    +0.000 A 
ATOM     24  C   UNL     1       2.523  13.696  18.819  0.00  0.00    +0.000 A 
ATOM     25  C   UNL     1       2.673  15.059  19.065  0.00  0.00    +0.000 A 
ATOM     26  C   UNL     1       1.542  15.886  19.038  0.00  0.00    +0.000 A 
ATOM     27  C   UNL     1       0.266  15.346  18.819  0.00  0.00    +0.000 A 
ATOM     28  C   UNL     1       0.122  13.975  18.593  0.00  0.00    +0.000 A 
BRANCH  26  29
ATOM     29  N   UNL     1       1.701  17.335  19.206  0.00  0.00    +0.000 N 
ATOM     30  O   UNL     1       1.663  17.790  20.358  0.00  0.00    +0.000 OA
ATOM     31  O   UNL     1       1.879  18.018  18.188  0.00  0.00    +0.000 OA
ENDBRANCH  26  29
ENDBRANCH  22  23
ENDBRANCH   2  22
TORSDOF 5
ENDMDL
MODEL 6
REMARK VINA RESULT:      -7.1      2.919      5.219
REMARK  Name = 
REMARK  5 active torsions:
REMARK  status: ('A' for Active; 'I' for Inactive)
REMARK    1  A    between atoms: C_2  and  O_3
REMARK    2  A    between atoms: O_3  and  C_4
REMARK    3  A    between atoms: C_7  and  N_8
REMARK    4  A    between atoms: C_17  and  C_18
REMARK    5  A    between atoms: C_17  and  C_24
REMARK                            x       y       z     vdW  Elec       q    Type
REMARK                         _______ _______ _______ _____ _____    ______ ____
ROOT
ATOM      1  O   UNL     1      -0.092  11.190  20.248  0.00  0.00    +0.000 OA
ATOM      2  C   UNL     1       0.624  10.874  19.303  0.00  0.00    +0.000 C 
ATOM      3  N   UNL     1       0.988   9.576  18.997  0.00  0.00    +0.000 N 
ATOM      4  C   UNL     1       1.848   9.219  17.861  0.00  0.00    +0.000 C 
ATOM      5  C   UNL     1       3.078   8.428  18.318  0.00  0.00    +0.000 C 
ATOM      6  C   UNL     1       2.642   7.209  19.122  0.00  0.00    +0.000 C 
ATOM      7  C   UNL     1       2.931   5.922  18.795  0.00  0.00    +0.000 C 
ATOM      8  C   UNL     1       1.801   7.647  20.320  0.00  0.00    +0.000 C 
ATOM      9  C   UNL     1       0.589   8.474  19.868  0.00  0.00    +0.000 C 
ENDROOT
BRANCH   7  10
ATOM     10  C   UNL     1       3.775   5.637  17.607  0.00  0.00    +0.000 A 
ATOM     11  C   UNL     1       3.955   4.315  17.183  0.00  0.00    +0.000 A 
ATOM     12  C   UNL     1       4.773   4.028  16.089  0.00  0.00    +0.000 A 
ATOM     13  C   UNL     1       5.417   5.067  15.409  0.00  0.00    +0.000 A 
ATOM     14  C   UNL     1       5.240   6.384  15.819  0.00  0.00    +0.000 A 
ATOM     15  C   UNL     1       4.424   6.670  16.913  0.00  0.00    +0.000 A 
ENDBRANCH   7  10
BRANCH   7  16
ATOM     16  C   UNL     1       2.377   4.817  19.614  0.00  0.00    +0.000 A 
ATOM     17  C   UNL     1       1.230   4.139  19.180  0.00  0.00    +0.000 A 
ATOM     18  C   UNL     1       0.678   3.117  19.956  0.00  0.00    +0.000 A 
ATOM     19  C   UNL     1       1.271   2.762  21.166  0.00  0.00    +0.000 A 
ATOM     20  C   UNL     1       2.417   3.426  21.603  0.00  0.00    +0.000 A 
ATOM     21  C   UNL     1       2.970   4.451  20.831  0.00  0.00    +0.000 A 
ENDBRANCH   7  16
BRANCH   2  22
ATOM     22  O   UNL     1       1.199  11.783  18.421  0.00  0.00    +0.000 OA
BRANCH  22  23
ATOM     23  C   UNL     1       1.312  13.165  18.672  0.00  0.00    +0.000 A 
ATOM     24  C   UNL     1       0.105  13.863  18.558  0.00  0.00    +0.000 A 
ATOM     25  C   UNL     1       0.079  15.245  18.737  0.00  0.00    +0.000 A 
ATOM     26  C   UNL     1       1.268  15.915  19.053  0.00  0.00    +0.000 A 
ATOM     27  C   UNL     1       2.482  15.217  19.139  0.00  0.00    +0.000 A 
ATOM     28  C   UNL     1       2.503  13.834  18.940  0.00  0.00    +0.000 A 
BRANCH  26  29
ATOM     29  N   UNL     1       1.235  17.355  19.331  0.00  0.00    +0.000 N 
ATOM     30  O   UNL     1       2.203  18.037  18.963  0.00  0.00    +0.000 OA
ATOM     31  O   UNL     1       0.235  17.809  19.905  0.00  0.00    +0.000 OA
ENDBRANCH  26  29
ENDBRANCH  22  23
ENDBRANCH   2  22
TORSDOF 5
ENDMDL
MODEL 7
REMARK VINA RESULT:      -7.0      2.891      5.500
REMARK  Name = 
REMARK  5 active torsions:
REMARK  status: ('A' for Active; 'I' for Inactive)
REMARK    1  A    between atoms: C_2  and  O_3
REMARK    2  A    between atoms: O_3  and  C_4
REMARK    3  A    between atoms: C_7  and  N_8
REMARK    4  A    between atoms: C_17  and  C_18
REMARK    5  A    between atoms: C_17  and  C_24
REMARK                            x       y       z     vdW  Elec       q    Type
REMARK                         _______ _______ _______ _____ _____    ______ ____
ROOT
ATOM      1  O   UNL     1      -0.181  11.188  20.184  0.00  0.00    +0.000 OA
ATOM      2  C   UNL     1       0.558  10.866  19.259  0.00  0.00    +0.000 C 
ATOM      3  N   UNL     1       0.929   9.566  18.971  0.00  0.00    +0.000 N 
ATOM      4  C   UNL     1       1.817   9.201  17.860  0.00  0.00    +0.000 C 
ATOM      5  C   UNL     1       3.036   8.413  18.353  0.00  0.00    +0.000 C 
ATOM      6  C   UNL     1       2.579   7.199  19.155  0.00  0.00    +0.000 C 
ATOM      7  C   UNL     1       2.876   5.910  18.844  0.00  0.00    +0.000 C 
ATOM      8  C   UNL     1       1.709   7.647  20.328  0.00  0.00    +0.000 C 
ATOM      9  C   UNL     1       0.509   8.470  19.840  0.00  0.00    +0.000 C 
ENDROOT
BRANCH   7  10
ATOM     10  C   UNL     1       3.750   5.618  17.680  0.00  0.00    +0.000 A 
ATOM     11  C   UNL     1       4.375   6.669  16.998  0.00  0.00    +0.000 A 
ATOM     12  C   UNL     1       5.171   6.414  15.881  0.00  0.00    +0.000 A 
ATOM     13  C   UNL     1       5.350   5.098  15.439  0.00  0.00    +0.000 A 
ATOM     14  C   UNL     1       4.739   4.047  16.113  0.00  0.00    +0.000 A 
ATOM     15  C   UNL     1       3.941   4.303  17.227  0.00  0.00    +0.000 A 
ENDBRANCH   7  10
BRANCH   7  16
ATOM     16  C   UNL     1       2.301   4.812  19.656  0.00  0.00    +0.000 A 
ATOM     17  C   UNL     1       2.857   4.506  20.905  0.00  0.00    +0.000 A 
ATOM     18  C   UNL     1       2.346   3.454  21.668  0.00  0.00    +0.000 A 
ATOM     19  C   UNL     1       1.274   2.703  21.191  0.00  0.00    +0.000 A 
ATOM     20  C   UNL     1       0.708   3.004  19.952  0.00  0.00    +0.000 A 
ATOM     21  C   UNL     1       1.218   4.054  19.185  0.00  0.00    +0.000 A 
ENDBRANCH   7  16
BRANCH   2  22
ATOM     22  O   UNL     1       1.155  11.769  18.385  0.00  0.00    +0.000 OA
BRANCH  22  23
ATOM     23  C   UNL     1       1.324  13.141  18.660  0.00  0.00    +0.000 A 
ATOM     24  C   UNL     1       2.617  13.482  19.067  0.00  0.00    +0.000 A 
ATOM     25  C   UNL     1       2.915  14.799  19.414  0.00  0.00    +0.000 A 
ATOM     26  C   UNL     1       1.910  15.772  19.325  0.00  0.00    +0.000 A 
ATOM     27  C   UNL     1       0.607  15.422  18.943  0.00  0.00    +0.000 A 
ATOM     28  C   UNL     1       0.312  14.096  18.615  0.00  0.00    +0.000 A 
BRANCH  26  29
ATOM     29  N   UNL     1       2.237  17.176  19.602  0.00  0.00    +0.000 N 
ATOM     30  O   UNL     1       2.180  17.977  18.658  0.00  0.00    +0.000 OA
ATOM     31  O   UNL     1       2.535  17.481  20.765  0.00  0.00    +0.000 OA
ENDBRANCH  26  29
ENDBRANCH  22  23
ENDBRANCH   2  22
TORSDOF 5
ENDMDL
MODEL 8
REMARK VINA RESULT:      -7.0      2.895      5.321
REMARK  Name = 
REMARK  5 active torsions:
REMARK  status: ('A' for Active; 'I' for Inactive)
REMARK    1  A    between atoms: C_2  and  O_3
REMARK    2  A    between atoms: O_3  and  C_4
REMARK    3  A    between atoms: C_7  and  N_8
REMARK    4  A    between atoms: C_17  and  C_18
REMARK    5  A    between atoms: C_17  and  C_24
REMARK                            x       y       z     vdW  Elec       q    Type
REMARK                         _______ _______ _______ _____ _____    ______ ____
ROOT
ATOM      1  O   UNL     1       0.066  11.155  20.199  0.00  0.00    +0.000 OA
ATOM      2  C   UNL     1       0.783  10.827  19.259  0.00  0.00    +0.000 C 
ATOM      3  N   UNL     1       1.123   9.522  18.953  0.00  0.00    +0.000 N 
ATOM      4  C   UNL     1       1.985   9.150  17.823  0.00  0.00    +0.000 C 
ATOM      5  C   UNL     1       3.196   8.334  18.288  0.00  0.00    +0.000 C 
ATOM      6  C   UNL     1       2.728   7.122  19.087  0.00  0.00    +0.000 C 
ATOM      7  C   UNL     1       2.994   5.830  18.759  0.00  0.00    +0.000 C 
ATOM      8  C   UNL     1       1.887   7.575  20.279  0.00  0.00    +0.000 C 
ATOM      9  C   UNL     1       0.696   8.427  19.819  0.00  0.00    +0.000 C 
ENDROOT
BRANCH   7  10
ATOM     10  C   UNL     1       3.842   5.531  17.578  0.00  0.00    +0.000 A 
ATOM     11  C   UNL     1       4.461   6.577  16.883  0.00  0.00    +0.000 A 
ATOM     12  C   UNL     1       5.232   6.316  15.751  0.00  0.00    +0.000 A 
ATOM     13  C   UNL     1       5.392   5.000  15.305  0.00  0.00    +0.000 A 
ATOM     14  C   UNL     1       4.787   3.953  15.991  0.00  0.00    +0.000 A 
ATOM     15  C   UNL     1       4.014   4.215  17.121  0.00  0.00    +0.000 A 
ENDBRANCH   7  10
BRANCH   7  16
ATOM     16  C   UNL     1       2.411   4.736  19.571  0.00  0.00    +0.000 A 
ATOM     17  C   UNL     1       1.252   4.084  19.130  0.00  0.00    +0.000 A 
ATOM     18  C   UNL     1       0.674   3.072  19.899  0.00  0.00    +0.000 A 
ATOM     19  C   UNL     1       1.252   2.701  21.112  0.00  0.00    +0.000 A 
ATOM     20  C   UNL     1       2.410   3.338  21.557  0.00  0.00    +0.000 A 
ATOM     21  C   UNL     1       2.990   4.352  20.791  0.00  0.00    +0.000 A 
ENDBRANCH   7  16
BRANCH   2  22
ATOM     22  O   UNL     1       1.383  11.726  18.383  0.00  0.00    +0.000 OA
BRANCH  22  23
ATOM     23  C   UNL     1       1.570  13.094  18.660  0.00  0.00    +0.000 A 
ATOM     24  C   UNL     1       0.401  13.857  18.566  0.00  0.00    +0.000 A 
ATOM     25  C   UNL     1       0.449  15.235  18.771  0.00  0.00    +0.000 A 
ATOM     26  C   UNL     1       1.673  15.835  19.094  0.00  0.00    +0.000 A 
ATOM     27  C   UNL     1       2.848  15.073  19.161  0.00  0.00    +0.000 A 
ATOM     28  C   UNL     1       2.796  13.695  18.935  0.00  0.00    +0.000 A 
BRANCH  26  29
ATOM     29  N   UNL     1       1.716  17.270  19.401  0.00  0.00    +0.000 N 
ATOM     30  O   UNL     1       1.551  17.613  20.580  0.00  0.00    +0.000 OA
ATOM     31  O   UNL     1       1.930  18.053  18.465  0.00  0.00    +0.000 OA
ENDBRANCH  26  29
ENDBRANCH  22  23
ENDBRANCH   2  22
TORSDOF 5
ENDMDL
MODEL 9
REMARK VINA RESULT:      -6.9      5.963      9.260
REMARK  Name = 
REMARK  5 active torsions:
REMARK  status: ('A' for Active; 'I' for Inactive)
REMARK    1  A    between atoms: C_2  and  O_3
REMARK    2  A    between atoms: O_3  and  C_4
REMARK    3  A    between atoms: C_7  and  N_8
REMARK    4  A    between atoms: C_17  and  C_18
REMARK    5  A    between atoms: C_17  and  C_24
REMARK                            x       y       z     vdW  Elec       q    Type
REMARK                         _______ _______ _______ _____ _____    ______ ____
ROOT
ATOM      1  O   UNL     1       3.205  16.081  17.357  0.00  0.00    +0.000 OA
ATOM      2  C   UNL     1       3.317  15.375  18.354  0.00  0.00    +0.000 C 
ATOM      3  N   UNL     1       2.537  14.265  18.619  0.00  0.00    +0.000 N 
ATOM      4  C   UNL     1       2.687  13.434  19.820  0.00  0.00    +0.000 C 
ATOM      5  C   UNL     1       1.372  13.341  20.603  0.00  0.00    +0.000 C 
ATOM      6  C   UNL     1       0.258  12.845  19.688  0.00  0.00    +0.000 C 
ATOM      7  C   UNL     1      -0.470  11.716  19.897  0.00  0.00    +0.000 C 
ATOM      8  C   UNL     1       0.112  13.781  18.490  0.00  0.00    +0.000 C 
ATOM      9  C   UNL     1       1.438  13.907  17.727  0.00  0.00    +0.000 C 
ENDROOT
BRANCH   7  10
ATOM     10  C   UNL     1      -0.234  10.905  21.118  0.00  0.00    +0.000 A 
ATOM     11  C   UNL     1       0.789   9.949  21.130  0.00  0.00    +0.000 A 
ATOM     12  C   UNL     1       1.001   9.154  22.257  0.00  0.00    +0.000 A 
ATOM     13  C   UNL     1       0.189   9.313  23.385  0.00  0.00    +0.000 A 
ATOM     14  C   UNL     1      -0.826  10.264  23.385  0.00  0.00    +0.000 A 
ATOM     15  C   UNL     1      -1.038  11.056  22.258  0.00  0.00    +0.000 A 
ENDBRANCH   7  10
BRANCH   7  16
ATOM     16  C   UNL     1      -1.471  11.296  18.888  0.00  0.00    +0.000 A 
ATOM     17  C   UNL     1      -1.132  10.330  17.933  0.00  0.00    +0.000 A 
ATOM     18  C   UNL     1      -2.055   9.946  16.957  0.00  0.00    +0.000 A 
ATOM     19  C   UNL     1      -3.324  10.521  16.933  0.00  0.00    +0.000 A 
ATOM     20  C   UNL     1      -3.675  11.478  17.884  0.00  0.00    +0.000 A 
ATOM     21  C   UNL     1      -2.753  11.866  18.860  0.00  0.00    +0.000 A 
ENDBRANCH   7  16
BRANCH   2  22
ATOM     22  O   UNL     1       4.227  15.611  19.380  0.00  0.00    +0.000 OA
BRANCH  22  23
ATOM     23  C   UNL     1       5.569  15.183  19.359  0.00  0.00    +0.000 A 
ATOM     24  C   UNL     1       6.040  14.854  18.084  0.00  0.00    +0.000 A 
ATOM     25  C   UNL     1       7.338  14.373  17.923  0.00  0.00    +0.000 A 
ATOM     26  C   UNL     1       8.165  14.248  19.047  0.00  0.00    +0.000 A 
ATOM     27  C   UNL     1       7.682  14.553  20.328  0.00  0.00    +0.000 A 
ATOM     28  C   UNL     1       6.372  15.016  20.484  0.00  0.00    +0.000 A 
BRANCH  26  29
ATOM     29  N   UNL     1       9.561  13.828  18.876  0.00  0.00    +0.000 N 
ATOM     30  O   UNL     1       9.955  12.855  19.534  0.00  0.00    +0.000 OA
ATOM     31  O   UNL     1      10.260  14.462  18.073  0.00  0.00    +0.000 OA
ENDBRANCH  26  29
ENDBRANCH  22  23
ENDBRANCH   2  22
TORSDOF 5
ENDMDL
