MODEL 1
REMARK VINA RESULT:      -7.8      0.000      0.000
REMARK  Name = 
REMARK  4 active torsions:
REMARK  status: ('A' for Active; 'I' for Inactive)
REMARK    1  A    between atoms: C_1  and  C_2
REMARK    2  A    between atoms: C_2  and  O_3
REMARK    3  A    between atoms: O_3  and  C_4
REMARK    4  A    between atoms: N_12  and  C_13
REMARK                            x       y       z     vdW  Elec       q    Type
REMARK                         _______ _______ _______ _____ _____    ______ ____
ROOT
ATOM      1  C   UNL     1       7.258   6.180  17.454  0.00  0.00    +0.000 A 
ATOM      2  N   UNL     1       7.483   5.979  16.134  0.00  0.00    +0.000 NA
ATOM      3  C   UNL     1       6.735   5.049  15.508  0.00  0.00    +0.000 A 
ATOM      4  N   UNL     1       5.769   4.261  16.027  0.00  0.00    +0.000 NA
ATOM      5  C   UNL     1       5.583   4.508  17.332  0.00  0.00    +0.000 A 
ATOM      6  C   UNL     1       6.264   5.447  18.103  0.00  0.00    +0.000 A 
ATOM      7  N   UNL     1       5.811   5.436  19.399  0.00  0.00    +0.000 NA
ATOM      8  C   UNL     1       4.874   4.519  19.413  0.00  0.00    +0.000 A 
ATOM      9  N   UNL     1       4.702   3.912  18.199  0.00  0.00    +0.000 N 
ENDROOT
BRANCH   9  10
ATOM     10  C   UNL     1       3.763   2.839  17.870  0.00  0.00    +0.000 C 
ATOM     11  C   UNL     1       3.362   1.973  19.075  0.00  0.00    +0.000 C 
ATOM     12  C   UNL     1       2.396   2.657  20.038  0.00  0.00    +0.000 C 
ATOM     13  C   UNL     1       1.215   3.343  19.349  0.00  0.00    +0.000 C 
ATOM     14  C   UNL     1       1.521   4.064  18.036  0.00  0.00    +0.000 C 
ATOM     15  C   UNL     1       2.507   3.325  17.136  0.00  0.00    +0.000 C 
ENDBRANCH   9  10
BRANCH   1  16
ATOM     16  O   UNL     1       7.982   7.135  18.138  0.00  0.00    +0.000 OA
BRANCH  16  18
ATOM     17  C   UNL     1       8.613   9.417  18.388  0.00  0.00    +0.000 C 
ATOM     18  C   UNL     1       7.735   8.444  17.626  0.00  0.00    +0.000 C 
ENDBRANCH  16  18
ENDBRANCH   1  16
TORSDOF 3
ENDMDL
MODEL 2
REMARK VINA RESULT:      -7.4      1.219      1.383
REMARK  Name = 
REMARK  4 active torsions:
REMARK  status: ('A' for Active; 'I' for Inactive)
REMARK    1  A    between atoms: C_1  and  C_2
REMARK    2  A    between atoms: C_2  and  O_3
REMARK    3  A    between atoms: O_3  and  C_4
REMARK    4  A    between atoms: N_12  and  C_13
REMARK                            x       y       z     vdW  Elec       q    Type
REMARK                         _______ _______ _______ _____ _____    ______ ____
ROOT
ATOM      1  C   UNL     1       6.490   6.419  16.518  0.00  0.00    +0.000 A 
ATOM      2  N   UNL     1       7.197   5.551  15.755  0.00  0.00    +0.000 NA
ATOM      3  C   UNL     1       6.664   4.332  15.541  0.00  0.00    +0.000 A 
ATOM      4  N   UNL     1       5.494   3.835  15.999  0.00  0.00    +0.000 NA
ATOM      5  C   UNL     1       4.834   4.737  16.740  0.00  0.00    +0.000 A 
ATOM      6  C   UNL     1       5.250   6.035  17.029  0.00  0.00    +0.000 A 
ATOM      7  N   UNL     1       4.323   6.682  17.808  0.00  0.00    +0.000 NA
ATOM      8  C   UNL     1       3.366   5.803  17.981  0.00  0.00    +0.000 A 
ATOM      9  N   UNL     1       3.625   4.605  17.375  0.00  0.00    +0.000 N 
ENDROOT
BRANCH   9  10
ATOM     10  C   UNL     1       2.785   3.406  17.386  0.00  0.00    +0.000 C 
ATOM     11  C   UNL     1       3.414   2.214  18.125  0.00  0.00    +0.000 C 
ATOM     12  C   UNL     1       3.407   2.352  19.645  0.00  0.00    +0.000 C 
ATOM     13  C   UNL     1       2.063   2.799  20.222  0.00  0.00    +0.000 C 
ATOM     14  C   UNL     1       1.298   3.853  19.420  0.00  0.00    +0.000 C 
ATOM     15  C   UNL     1       1.366   3.655  17.909  0.00  0.00    +0.000 C 
ENDBRANCH   9  10
BRANCH   1  16
ATOM     16  O   UNL     1       6.981   7.687  16.751  0.00  0.00    +0.000 OA
BRANCH  16  18
ATOM     17  C   UNL     1       8.326   9.138  18.075  0.00  0.00    +0.000 C 
ATOM     18  C   UNL     1       7.833   7.715  17.895  0.00  0.00    +0.000 C 
ENDBRANCH  16  18
ENDBRANCH   1  16
TORSDOF 3
ENDMDL
MODEL 3
REMARK VINA RESULT:      -7.2      1.013      1.027
REMARK  Name = 
REMARK  4 active torsions:
REMARK  status: ('A' for Active; 'I' for Inactive)
REMARK    1  A    between atoms: C_1  and  C_2
REMARK    2  A    between atoms: C_2  and  O_3
REMARK    3  A    between atoms: O_3  and  C_4
REMARK    4  A    between atoms: N_12  and  C_13
REMARK                            x       y       z     vdW  Elec       q    Type
REMARK                         _______ _______ _______ _____ _____    ______ ____
ROOT
ATOM      1  C   UNL     1       6.210   6.253  16.710  0.00  0.00    +0.000 A 
ATOM      2  N   UNL     1       6.504   5.587  15.567  0.00  0.00    +0.000 NA
ATOM      3  C   UNL     1       6.031   4.331  15.437  0.00  0.00    +0.000 A 
ATOM      4  N   UNL     1       5.290   3.619  16.314  0.00  0.00    +0.000 NA
ATOM      5  C   UNL     1       5.022   4.328  17.420  0.00  0.00    +0.000 A 
ATOM      6  C   UNL     1       5.426   5.635  17.684  0.00  0.00    +0.000 A 
ATOM      7  N   UNL     1       4.966   6.050  18.910  0.00  0.00    +0.000 NA
ATOM      8  C   UNL     1       4.295   5.024  19.374  0.00  0.00    +0.000 A 
ATOM      9  N   UNL     1       4.307   3.949  18.528  0.00  0.00    +0.000 N 
ENDROOT
BRANCH   9  10
ATOM     10  C   UNL     1       3.681   2.644  18.743  0.00  0.00    +0.000 C 
ATOM     11  C   UNL     1       3.406   2.323  20.221  0.00  0.00    +0.000 C 
ATOM     12  C   UNL     1       2.232   3.095  20.817  0.00  0.00    +0.000 C 
ATOM     13  C   UNL     1       0.979   3.093  19.941  0.00  0.00    +0.000 C 
ATOM     14  C   UNL     1       1.205   3.218  18.434  0.00  0.00    +0.000 C 
ATOM     15  C   UNL     1       2.407   2.431  17.918  0.00  0.00    +0.000 C 
ENDBRANCH   9  10
BRANCH   1  16
ATOM     16  O   UNL     1       6.652   7.547  16.884  0.00  0.00    +0.000 OA
BRANCH  16  18
ATOM     17  C   UNL     1       8.154   9.054  17.952  0.00  0.00    +0.000 C 
ATOM     18  C   UNL     1       7.814   7.596  17.710  0.00  0.00    +0.000 C 
ENDBRANCH  16  18
ENDBRANCH   1  16
TORSDOF 3
ENDMDL
MODEL 4
REMARK VINA RESULT:      -7.2      1.848      3.150
REMARK  Name = 
REMARK  4 active torsions:
REMARK  status: ('A' for Active; 'I' for Inactive)
REMARK    1  A    between atoms: C_1  and  C_2
REMARK    2  A    between atoms: C_2  and  O_3
REMARK    3  A    between atoms: O_3  and  C_4
REMARK    4  A    between atoms: N_12  and  C_13
REMARK                            x       y       z     vdW  Elec       q    Type
REMARK                         _______ _______ _______ _____ _____    ______ ____
ROOT
ATOM      1  C   UNL     1       6.394   5.391  16.419  0.00  0.00    +0.000 A 
ATOM      2  N   UNL     1       7.413   5.737  17.241  0.00  0.00    +0.000 NA
ATOM      3  C   UNL     1       7.307   5.403  18.543  0.00  0.00    +0.000 A 
ATOM      4  N   UNL     1       6.294   4.761  19.164  0.00  0.00    +0.000 NA
ATOM      5  C   UNL     1       5.318   4.436  18.303  0.00  0.00    +0.000 A 
ATOM      6  C   UNL     1       5.299   4.697  16.935  0.00  0.00    +0.000 A 
ATOM      7  N   UNL     1       4.148   4.216  16.362  0.00  0.00    +0.000 NA
ATOM      8  C   UNL     1       3.488   3.670  17.355  0.00  0.00    +0.000 A 
ATOM      9  N   UNL     1       4.135   3.787  18.554  0.00  0.00    +0.000 N 
ENDROOT
BRANCH   9  10
ATOM     10  C   UNL     1       3.675   3.312  19.860  0.00  0.00    +0.000 C 
ATOM     11  C   UNL     1       3.042   4.408  20.732  0.00  0.00    +0.000 C 
ATOM     12  C   UNL     1       1.646   4.830  20.282  0.00  0.00    +0.000 C 
ATOM     13  C   UNL     1       0.709   3.658  19.985  0.00  0.00    +0.000 C 
ATOM     14  C   UNL     1       1.334   2.451  19.285  0.00  0.00    +0.000 C 
ATOM     15  C   UNL     1       2.735   2.103  19.778  0.00  0.00    +0.000 C 
ENDBRANCH   9  10
BRANCH   1  16
ATOM     16  O   UNL     1       6.463   5.691  15.075  0.00  0.00    +0.000 OA
BRANCH  16  18
ATOM     17  C   UNL     1       6.247   3.952  13.464  0.00  0.00    +0.000 C 
ATOM     18  C   UNL     1       7.209   4.709  14.358  0.00  0.00    +0.000 C 
ENDBRANCH  16  18
ENDBRANCH   1  16
TORSDOF 3
ENDMDL
MODEL 5
REMARK VINA RESULT:      -6.9      1.083      1.258
REMARK  Name = 
REMARK  4 active torsions:
REMARK  status: ('A' for Active; 'I' for Inactive)
REMARK    1  A    between atoms: C_1  and  C_2
REMARK    2  A    between atoms: C_2  and  O_3
REMARK    3  A    between atoms: O_3  and  C_4
REMARK    4  A    between atoms: N_12  and  C_13
REMARK                            x       y       z     vdW  Elec       q    Type
REMARK                         _______ _______ _______ _____ _____    ______ ____
ROOT
ATOM      1  C   UNL     1       6.970   5.030  17.143  0.00  0.00    +0.000 A 
ATOM      2  N   UNL     1       6.858   5.144  15.798  0.00  0.00    +0.000 NA
ATOM      3  C   UNL     1       5.719   4.703  15.228  0.00  0.00    +0.000 A 
ATOM      4  N   UNL     1       4.645   4.140  15.824  0.00  0.00    +0.000 NA
ATOM      5  C   UNL     1       4.807   4.060  17.153  0.00  0.00    +0.000 A 
ATOM      6  C   UNL     1       5.916   4.490  17.879  0.00  0.00    +0.000 A 
ATOM      7  N   UNL     1       5.739   4.261  19.221  0.00  0.00    +0.000 NA
ATOM      8  C   UNL     1       4.551   3.713  19.308  0.00  0.00    +0.000 A 
ATOM      9  N   UNL     1       3.947   3.550  18.092  0.00  0.00    +0.000 N 
ENDROOT
BRANCH   9  10
ATOM     10  C   UNL     1       2.636   2.956  17.825  0.00  0.00    +0.000 C 
ATOM     11  C   UNL     1       2.304   1.756  18.726  0.00  0.00    +0.000 C 
ATOM     12  C   UNL     1       1.949   2.135  20.161  0.00  0.00    +0.000 C 
ATOM     13  C   UNL     1       0.948   3.286  20.269  0.00  0.00    +0.000 C 
ATOM     14  C   UNL     1       1.115   4.427  19.265  0.00  0.00    +0.000 C 
ATOM     15  C   UNL     1       1.485   3.967  17.857  0.00  0.00    +0.000 C 
ENDBRANCH   9  10
BRANCH   1  16
ATOM     16  O   UNL     1       8.107   5.485  17.778  0.00  0.00    +0.000 OA
BRANCH  16  18
ATOM     17  C   UNL     1       7.833   7.848  17.669  0.00  0.00    +0.000 C 
ATOM     18  C   UNL     1       7.834   6.634  18.578  0.00  0.00    +0.000 C 
ENDBRANCH  16  18
ENDBRANCH   1  16
TORSDOF 3
ENDMDL
MODEL 6
REMARK VINA RESULT:      -6.9      2.292      3.470
REMARK  Name = 
REMARK  4 active torsions:
REMARK  status: ('A' for Active; 'I' for Inactive)
REMARK    1  A    between atoms: C_1  and  C_2
REMARK    2  A    between atoms: C_2  and  O_3
REMARK    3  A    between atoms: O_3  and  C_4
REMARK    4  A    between atoms: N_12  and  C_13
REMARK                            x       y       z     vdW  Elec       q    Type
REMARK                         _______ _______ _______ _____ _____    ______ ____
ROOT
ATOM      1  C   UNL     1       5.593   5.034  16.394  0.00  0.00    +0.000 A 
ATOM      2  N   UNL     1       5.539   6.388  16.407  0.00  0.00    +0.000 NA
ATOM      3  C   UNL     1       4.514   6.965  17.065  0.00  0.00    +0.000 A 
ATOM      4  N   UNL     1       3.499   6.368  17.726  0.00  0.00    +0.000 NA
ATOM      5  C   UNL     1       3.607   5.032  17.689  0.00  0.00    +0.000 A 
ATOM      6  C   UNL     1       4.617   4.300  17.067  0.00  0.00    +0.000 A 
ATOM      7  N   UNL     1       4.416   2.952  17.235  0.00  0.00    +0.000 NA
ATOM      8  C   UNL     1       3.318   2.868  17.946  0.00  0.00    +0.000 A 
ATOM      9  N   UNL     1       2.774   4.089  18.236  0.00  0.00    +0.000 N 
ENDROOT
BRANCH   9  10
ATOM     10  C   UNL     1       1.548   4.358  18.988  0.00  0.00    +0.000 C 
ATOM     11  C   UNL     1       0.737   3.096  19.326  0.00  0.00    +0.000 C 
ATOM     12  C   UNL     1       1.348   2.243  20.434  0.00  0.00    +0.000 C 
ATOM     13  C   UNL     1       1.787   3.043  21.662  0.00  0.00    +0.000 C 
ATOM     14  C   UNL     1       2.431   4.403  21.391  0.00  0.00    +0.000 C 
ATOM     15  C   UNL     1       1.774   5.187  20.258  0.00  0.00    +0.000 C 
ENDBRANCH   9  10
BRANCH   1  16
ATOM     16  O   UNL     1       6.633   4.394  15.753  0.00  0.00    +0.000 OA
BRANCH  16  18
ATOM     17  C   UNL     1       6.007   3.844  13.522  0.00  0.00    +0.000 C 
ATOM     18  C   UNL     1       6.758   4.827  14.399  0.00  0.00    +0.000 C 
ENDBRANCH  16  18
ENDBRANCH   1  16
TORSDOF 3
ENDMDL
MODEL 7
REMARK VINA RESULT:      -6.7      1.511      1.733
REMARK  Name = 
REMARK  4 active torsions:
REMARK  status: ('A' for Active; 'I' for Inactive)
REMARK    1  A    between atoms: C_1  and  C_2
REMARK    2  A    between atoms: C_2  and  O_3
REMARK    3  A    between atoms: O_3  and  C_4
REMARK    4  A    between atoms: N_12  and  C_13
REMARK                            x       y       z     vdW  Elec       q    Type
REMARK                         _______ _______ _______ _____ _____    ______ ____
ROOT
ATOM      1  C   UNL     1       5.871   6.178  16.798  0.00  0.00    +0.000 A 
ATOM      2  N   UNL     1       6.489   5.288  15.986  0.00  0.00    +0.000 NA
ATOM      3  C   UNL     1       5.978   4.042  15.923  0.00  0.00    +0.000 A 
ATOM      4  N   UNL     1       4.911   3.539  16.579  0.00  0.00    +0.000 NA
ATOM      5  C   UNL     1       4.334   4.464  17.360  0.00  0.00    +0.000 A 
ATOM      6  C   UNL     1       4.737   5.789  17.511  0.00  0.00    +0.000 A 
ATOM      7  N   UNL     1       3.912   6.454  18.384  0.00  0.00    +0.000 NA
ATOM      8  C   UNL     1       3.027   5.558  18.748  0.00  0.00    +0.000 A 
ATOM      9  N   UNL     1       3.239   4.333  18.177  0.00  0.00    +0.000 N 
ENDROOT
BRANCH   9  10
ATOM     10  C   UNL     1       2.458   3.112  18.381  0.00  0.00    +0.000 C 
ATOM     11  C   UNL     1       3.098   2.123  19.368  0.00  0.00    +0.000 C 
ATOM     12  C   UNL     1       2.996   2.550  20.830  0.00  0.00    +0.000 C 
ATOM     13  C   UNL     1       1.601   3.021  21.243  0.00  0.00    +0.000 C 
ATOM     14  C   UNL     1       0.835   3.855  20.216  0.00  0.00    +0.000 C 
ATOM     15  C   UNL     1       1.000   3.375  18.777  0.00  0.00    +0.000 C 
ENDBRANCH   9  10
BRANCH   1  16
ATOM     16  O   UNL     1       6.341   7.472  16.883  0.00  0.00    +0.000 OA
BRANCH  16  18
ATOM     17  C   UNL     1       7.915   6.889  18.573  0.00  0.00    +0.000 C 
ATOM     18  C   UNL     1       7.733   7.503  17.198  0.00  0.00    +0.000 C 
ENDBRANCH  16  18
ENDBRANCH   1  16
TORSDOF 3
ENDMDL
MODEL 8
REMARK VINA RESULT:      -6.6      2.683      5.846
REMARK  Name = 
REMARK  4 active torsions:
REMARK  status: ('A' for Active; 'I' for Inactive)
REMARK    1  A    between atoms: C_1  and  C_2
REMARK    2  A    between atoms: C_2  and  O_3
REMARK    3  A    between atoms: O_3  and  C_4
REMARK    4  A    between atoms: N_12  and  C_13
REMARK                            x       y       z     vdW  Elec       q    Type
REMARK                         _______ _______ _______ _____ _____    ______ ____
ROOT
ATOM      1  C   UNL     1       2.576   4.674  20.584  0.00  0.00    +0.000 A 
ATOM      2  N   UNL     1       1.792   5.779  20.606  0.00  0.00    +0.000 NA
ATOM      3  C   UNL     1       2.139   6.806  19.805  0.00  0.00    +0.000 A 
ATOM      4  N   UNL     1       3.192   6.896  18.964  0.00  0.00    +0.000 NA
ATOM      5  C   UNL     1       3.927   5.774  18.976  0.00  0.00    +0.000 A 
ATOM      6  C   UNL     1       3.681   4.631  19.734  0.00  0.00    +0.000 A 
ATOM      7  N   UNL     1       4.632   3.671  19.490  0.00  0.00    +0.000 NA
ATOM      8  C   UNL     1       5.430   4.214  18.603  0.00  0.00    +0.000 A 
ATOM      9  N   UNL     1       5.066   5.489  18.266  0.00  0.00    +0.000 N 
ENDROOT
BRANCH   9  10
ATOM     10  C   UNL     1       5.743   6.386  17.328  0.00  0.00    +0.000 C 
ATOM     11  C   UNL     1       7.244   6.096  17.166  0.00  0.00    +0.000 C 
ATOM     12  C   UNL     1       7.550   4.847  16.345  0.00  0.00    +0.000 C 
ATOM     13  C   UNL     1       6.757   4.751  15.041  0.00  0.00    +0.000 C 
ATOM     14  C   UNL     1       5.299   5.209  15.099  0.00  0.00    +0.000 C 
ATOM     15  C   UNL     1       5.073   6.455  15.951  0.00  0.00    +0.000 C 
ENDBRANCH   9  10
BRANCH   1  16
ATOM     16  O   UNL     1       2.254   3.587  21.369  0.00  0.00    +0.000 OA
BRANCH  16  18
ATOM     17  C   UNL     1       1.260   2.307  19.625  0.00  0.00    +0.000 C 
ATOM     18  C   UNL     1       1.025   2.990  20.958  0.00  0.00    +0.000 C 
ENDBRANCH  16  18
ENDBRANCH   1  16
TORSDOF 3
ENDMDL
MODEL 9
REMARK VINA RESULT:      -6.6      1.447      2.098
REMARK  Name = 
REMARK  4 active torsions:
REMARK  status: ('A' for Active; 'I' for Inactive)
REMARK    1  A    between atoms: C_1  and  C_2
REMARK    2  A    between atoms: C_2  and  O_3
REMARK    3  A    between atoms: O_3  and  C_4
REMARK    4  A    between atoms: N_12  and  C_13
REMARK                            x       y       z     vdW  Elec       q    Type
REMARK                         _______ _______ _______ _____ _____    ______ ____
ROOT
ATOM      1  C   UNL     1       7.501   7.262  17.923  0.00  0.00    +0.000 A 
ATOM      2  N   UNL     1       8.235   6.762  18.947  0.00  0.00    +0.000 NA
ATOM      3  C   UNL     1       7.848   5.583  19.473  0.00  0.00    +0.000 A 
ATOM      4  N   UNL     1       6.798   4.811  19.121  0.00  0.00    +0.000 NA
ATOM      5  C   UNL     1       6.114   5.348  18.100  0.00  0.00    +0.000 A 
ATOM      6  C   UNL     1       6.406   6.544  17.446  0.00  0.00    +0.000 A 
ATOM      7  N   UNL     1       5.500   6.784  16.442  0.00  0.00    +0.000 NA
ATOM      8  C   UNL     1       4.685   5.758  16.481  0.00  0.00    +0.000 A 
ATOM      9  N   UNL     1       4.994   4.866  17.471  0.00  0.00    +0.000 N 
ENDROOT
BRANCH   9  10
ATOM     10  C   UNL     1       4.283   3.631  17.805  0.00  0.00    +0.000 C 
ATOM     11  C   UNL     1       4.111   3.403  19.315  0.00  0.00    +0.000 C 
ATOM     12  C   UNL     1       3.060   4.300  19.964  0.00  0.00    +0.000 C 
ATOM     13  C   UNL     1       1.740   4.365  19.194  0.00  0.00    +0.000 C 
ATOM     14  C   UNL     1       1.846   4.401  17.669  0.00  0.00    +0.000 C 
ATOM     15  C   UNL     1       2.930   3.490  17.099  0.00  0.00    +0.000 C 
ENDBRANCH   9  10
BRANCH   1  16
ATOM     16  O   UNL     1       7.866   8.455  17.335  0.00  0.00    +0.000 OA
BRANCH  16  18
ATOM     17  C   UNL     1       8.419  10.729  17.769  0.00  0.00    +0.000 C 
ATOM     18  C   UNL     1       8.561   9.299  18.252  0.00  0.00    +0.000 C 
ENDBRANCH  16  18
ENDBRANCH   1  16
TORSDOF 3
ENDMDL
