MODEL 1
REMARK VINA RESULT:      -8.7      0.000      0.000
REMARK  Name = 
REMARK  6 active torsions:
REMARK  status: ('A' for Active; 'I' for Inactive)
REMARK    1  A    between atoms: C_8  and  S_9
REMARK    2  A    between atoms: S_9  and  N_12
REMARK    3  A    between atoms: N_12  and  C_13
REMARK    4  A    between atoms: C_13  and  C_14
REMARK    5  A    between atoms: C_18  and  C_19
REMARK    6  A    between atoms: C_19  and  N_20
REMARK                            x       y       z     vdW  Elec       q    Type
REMARK                         _______ _______ _______ _____ _____    ______ ____
ROOT
ATOM      1  S   UNL     1       2.344   3.026  20.061  0.00  0.00    +0.000 S 
ATOM      2  O   UNL     1       1.488   1.947  19.624  0.00  0.00    +0.000 OA
ATOM      3  O   UNL     1       3.196   2.910  21.223  0.00  0.00    +0.000 OA
ENDROOT
BRANCH   1  11
ATOM      4  O   UNL     1       7.825   5.340  14.705  0.00  0.00    +0.000 OA
ATOM      5  C   UNL     1       7.119   5.043  15.660  0.00  0.00    +0.000 A 
ATOM      6  N   UNL     1       7.562   5.150  16.949  0.00  0.00    +0.000 N 
ATOM      7  C   UNL     1       6.869   4.792  18.078  0.00  0.00    +0.000 A 
ATOM      8  O   UNL     1       7.360   4.846  19.197  0.00  0.00    +0.000 OA
ATOM      9  C   UNL     1       5.488   4.311  17.866  0.00  0.00    +0.000 A 
ATOM     10  C   UNL     1       4.684   3.951  18.947  0.00  0.00    +0.000 A 
ATOM     11  C   UNL     1       3.396   3.475  18.696  0.00  0.00    +0.000 A 
ATOM     12  C   UNL     1       2.904   3.397  17.385  0.00  0.00    +0.000 A 
ATOM     13  C   UNL     1       3.720   3.765  16.310  0.00  0.00    +0.000 A 
ATOM     14  C   UNL     1       5.015   4.217  16.556  0.00  0.00    +0.000 A 
ATOM     15  N   UNL     1       5.846   4.579  15.490  0.00  0.00    +0.000 N 
ATOM     16  H   UNL     1       8.506   5.478  17.077  0.00  0.00    +0.000 HD
ATOM     17  H   UNL     1       5.526   4.512  14.534  0.00  0.00    +0.000 HD
ENDBRANCH   1  11
BRANCH   1  18
ATOM     18  N   UNL     1       1.417   4.424  20.257  0.00  0.00    +0.000 NA
ATOM     19  H   UNL     1       0.511   4.226  20.681  0.00  0.00    +0.000 HD
BRANCH  18  20
ATOM     20  C   UNL     1       2.103   5.573  20.869  0.00  0.00    +0.000 C 
BRANCH  20  21
ATOM     21  C   UNL     1       2.004   6.800  19.992  0.00  0.00    +0.000 A 
ATOM     22  C   UNL     1       2.531   6.800  18.694  0.00  0.00    +0.000 A 
ATOM     23  C   UNL     1       2.439   7.944  17.898  0.00  0.00    +0.000 A 
ATOM     24  C   UNL     1       1.846   9.103  18.398  0.00  0.00    +0.000 A 
ATOM     25  C   UNL     1       1.337   9.137  19.704  0.00  0.00    +0.000 A 
ATOM     26  C   UNL     1       1.408   7.973  20.485  0.00  0.00    +0.000 A 
BRANCH  25  27
ATOM     27  C   UNL     1       0.776  10.413  20.279  0.00  0.00    +0.000 C 
BRANCH  27  28
ATOM     28  N   UNL     1      -0.534  10.752  19.753  0.00  0.00    +0.000 N 
ATOM     29  C   UNL     1      -1.074  10.312  18.575  0.00  0.00    +0.000 A 
ATOM     30  C   UNL     1      -2.222  11.054  18.412  0.00  0.00    +0.000 A 
ATOM     31  N   UNL     1      -2.394  11.921  19.459  0.00  0.00    +0.000 NA
ATOM     32  C   UNL     1      -1.364  11.718  20.250  0.00  0.00    +0.000 A 
ENDBRANCH  27  28
ENDBRANCH  25  27
ENDBRANCH  20  21
ENDBRANCH  18  20
ENDBRANCH   1  18
TORSDOF 6
ENDMDL
MODEL 2
REMARK VINA RESULT:      -8.7      1.235      1.899
REMARK  Name = 
REMARK  6 active torsions:
REMARK  status: ('A' for Active; 'I' for Inactive)
REMARK    1  A    between atoms: C_8  and  S_9
REMARK    2  A    between atoms: S_9  and  N_12
REMARK    3  A    between atoms: N_12  and  C_13
REMARK    4  A    between atoms: C_13  and  C_14
REMARK    5  A    between atoms: C_18  and  C_19
REMARK    6  A    between atoms: C_19  and  N_20
REMARK                            x       y       z     vdW  Elec       q    Type
REMARK                         _______ _______ _______ _____ _____    ______ ____
ROOT
ATOM      1  S   UNL     1       2.005   4.412  20.639  0.00  0.00    +0.000 S 
ATOM      2  O   UNL     1       0.674   4.136  20.148  0.00  0.00    +0.000 OA
ATOM      3  O   UNL     1       2.620   3.620  21.681  0.00  0.00    +0.000 OA
ENDROOT
BRANCH   1  11
ATOM      4  O   UNL     1       7.777   4.690  15.099  0.00  0.00    +0.000 OA
ATOM      5  C   UNL     1       7.030   4.722  16.069  0.00  0.00    +0.000 A 
ATOM      6  N   UNL     1       7.466   5.107  17.306  0.00  0.00    +0.000 N 
ATOM      7  C   UNL     1       6.724   5.124  18.459  0.00  0.00    +0.000 A 
ATOM      8  O   UNL     1       7.204   5.409  19.548  0.00  0.00    +0.000 OA
ATOM      9  C   UNL     1       5.300   4.754  18.320  0.00  0.00    +0.000 A 
ATOM     10  C   UNL     1       4.448   4.768  19.424  0.00  0.00    +0.000 A 
ATOM     11  C   UNL     1       3.117   4.384  19.249  0.00  0.00    +0.000 A 
ATOM     12  C   UNL     1       2.635   4.027  17.981  0.00  0.00    +0.000 A 
ATOM     13  C   UNL     1       3.501   4.020  16.882  0.00  0.00    +0.000 A 
ATOM     14  C   UNL     1       4.835   4.380  17.058  0.00  0.00    +0.000 A 
ATOM     15  N   UNL     1       5.715   4.368  15.970  0.00  0.00    +0.000 N 
ATOM     16  H   UNL     1       8.440   5.355  17.385  0.00  0.00    +0.000 HD
ATOM     17  H   UNL     1       5.401   4.094  15.049  0.00  0.00    +0.000 HD
ENDBRANCH   1  11
BRANCH   1  18
ATOM     18  N   UNL     1       2.094   6.028  21.121  0.00  0.00    +0.000 NA
ATOM     19  H   UNL     1       2.831   6.182  21.808  0.00  0.00    +0.000 HD
BRANCH  18  20
ATOM     20  C   UNL     1       2.094   7.025  20.038  0.00  0.00    +0.000 C 
BRANCH  20  21
ATOM     21  C   UNL     1       1.392   8.294  20.463  0.00  0.00    +0.000 A 
ATOM     22  C   UNL     1       1.094   8.533  21.811  0.00  0.00    +0.000 A 
ATOM     23  C   UNL     1       0.437   9.706  22.188  0.00  0.00    +0.000 A 
ATOM     24  C   UNL     1       0.049  10.637  21.223  0.00  0.00    +0.000 A 
ATOM     25  C   UNL     1       0.310  10.406  19.865  0.00  0.00    +0.000 A 
ATOM     26  C   UNL     1       0.997   9.238  19.500  0.00  0.00    +0.000 A 
BRANCH  25  27
ATOM     27  C   UNL     1      -0.186  11.365  18.812  0.00  0.00    +0.000 C 
BRANCH  27  28
ATOM     28  N   UNL     1      -1.527  11.059  18.345  0.00  0.00    +0.000 N 
ATOM     29  C   UNL     1      -1.857  10.192  17.340  0.00  0.00    +0.000 A 
ATOM     30  C   UNL     1      -3.202  10.392  17.126  0.00  0.00    +0.000 A 
ATOM     31  N   UNL     1      -3.693  11.348  17.977  0.00  0.00    +0.000 NA
ATOM     32  C   UNL     1      -2.663  11.731  18.698  0.00  0.00    +0.000 A 
ENDBRANCH  27  28
ENDBRANCH  25  27
ENDBRANCH  20  21
ENDBRANCH  18  20
ENDBRANCH   1  18
TORSDOF 6
ENDMDL
MODEL 3
REMARK VINA RESULT:      -8.5      1.251      1.482
REMARK  Name = 
REMARK  6 active torsions:
REMARK  status: ('A' for Active; 'I' for Inactive)
REMARK    1  A    between atoms: C_8  and  S_9
REMARK    2  A    between atoms: S_9  and  N_12
REMARK    3  A    between atoms: N_12  and  C_13
REMARK    4  A    between atoms: C_13  and  C_14
REMARK    5  A    between atoms: C_18  and  C_19
REMARK    6  A    between atoms: C_19  and  N_20
REMARK                            x       y       z     vdW  Elec       q    Type
REMARK                         _______ _______ _______ _____ _____    ______ ____
ROOT
ATOM      1  S   UNL     1       1.933   4.662  20.735  0.00  0.00    +0.000 S 
ATOM      2  O   UNL     1       0.600   4.514  20.198  0.00  0.00    +0.000 OA
ATOM      3  O   UNL     1       2.439   3.806  21.784  0.00  0.00    +0.000 OA
ENDROOT
BRANCH   1  11
ATOM      4  O   UNL     1       7.863   4.568  15.358  0.00  0.00    +0.000 OA
ATOM      5  C   UNL     1       7.090   4.660  16.304  0.00  0.00    +0.000 A 
ATOM      6  N   UNL     1       7.501   5.088  17.535  0.00  0.00    +0.000 N 
ATOM      7  C   UNL     1       6.727   5.172  18.664  0.00  0.00    +0.000 A 
ATOM      8  O   UNL     1       7.183   5.493  19.754  0.00  0.00    +0.000 OA
ATOM      9  C   UNL     1       5.299   4.829  18.500  0.00  0.00    +0.000 A 
ATOM     10  C   UNL     1       4.417   4.910  19.577  0.00  0.00    +0.000 A 
ATOM     11  C   UNL     1       3.083   4.549  19.379  0.00  0.00    +0.000 A 
ATOM     12  C   UNL     1       2.628   4.148  18.115  0.00  0.00    +0.000 A 
ATOM     13  C   UNL     1       3.524   4.074  17.043  0.00  0.00    +0.000 A 
ATOM     14  C   UNL     1       4.861   4.411  17.242  0.00  0.00    +0.000 A 
ATOM     15  N   UNL     1       5.771   4.331  16.182  0.00  0.00    +0.000 N 
ATOM     16  H   UNL     1       8.478   5.317  17.631  0.00  0.00    +0.000 HD
ATOM     17  H   UNL     1       5.476   4.025  15.265  0.00  0.00    +0.000 HD
ENDBRANCH   1  11
BRANCH   1  18
ATOM     18  N   UNL     1       2.152   6.258  21.241  0.00  0.00    +0.000 NA
ATOM     19  H   UNL     1       3.043   6.641  20.925  0.00  0.00    +0.000 HD
BRANCH  18  20
ATOM     20  C   UNL     1       1.018   7.169  21.015  0.00  0.00    +0.000 C 
BRANCH  20  21
ATOM     21  C   UNL     1       1.329   8.167  19.924  0.00  0.00    +0.000 A 
ATOM     22  C   UNL     1       2.139   7.816  18.837  0.00  0.00    +0.000 A 
ATOM     23  C   UNL     1       2.425   8.752  17.842  0.00  0.00    +0.000 A 
ATOM     24  C   UNL     1       1.928  10.053  17.935  0.00  0.00    +0.000 A 
ATOM     25  C   UNL     1       1.139  10.437  19.028  0.00  0.00    +0.000 A 
ATOM     26  C   UNL     1       0.833   9.480  20.008  0.00  0.00    +0.000 A 
BRANCH  25  27
ATOM     27  C   UNL     1       0.675  11.864  19.179  0.00  0.00    +0.000 C 
BRANCH  27  28
ATOM     28  N   UNL     1      -0.767  12.012  19.073  0.00  0.00    +0.000 N 
ATOM     29  C   UNL     1      -1.613  12.432  20.062  0.00  0.00    +0.000 A 
ATOM     30  C   UNL     1      -2.878  12.214  19.562  0.00  0.00    +0.000 A 
ATOM     31  N   UNL     1      -2.818  11.683  18.300  0.00  0.00    +0.000 NA
ATOM     32  C   UNL     1      -1.535  11.573  18.032  0.00  0.00    +0.000 A 
ENDBRANCH  27  28
ENDBRANCH  25  27
ENDBRANCH  20  21
ENDBRANCH  18  20
ENDBRANCH   1  18
TORSDOF 6
ENDMDL
MODEL 4
REMARK VINA RESULT:      -8.4      1.805      2.448
REMARK  Name = 
REMARK  6 active torsions:
REMARK  status: ('A' for Active; 'I' for Inactive)
REMARK    1  A    between atoms: C_8  and  S_9
REMARK    2  A    between atoms: S_9  and  N_12
REMARK    3  A    between atoms: N_12  and  C_13
REMARK    4  A    between atoms: C_13  and  C_14
REMARK    5  A    between atoms: C_18  and  C_19
REMARK    6  A    between atoms: C_19  and  N_20
REMARK                            x       y       z     vdW  Elec       q    Type
REMARK                         _______ _______ _______ _____ _____    ______ ____
ROOT
ATOM      1  S   UNL     1       1.891   4.487  20.702  0.00  0.00    +0.000 S 
ATOM      2  O   UNL     1       0.577   4.193  20.176  0.00  0.00    +0.000 OA
ATOM      3  O   UNL     1       2.477   3.722  21.781  0.00  0.00    +0.000 OA
ENDROOT
BRANCH   1  11
ATOM      4  O   UNL     1       7.838   4.660  15.346  0.00  0.00    +0.000 OA
ATOM      5  C   UNL     1       7.060   4.709  16.292  0.00  0.00    +0.000 A 
ATOM      6  N   UNL     1       7.460   5.104  17.538  0.00  0.00    +0.000 N 
ATOM      7  C   UNL     1       6.682   5.140  18.667  0.00  0.00    +0.000 A 
ATOM      8  O   UNL     1       7.129   5.434  19.767  0.00  0.00    +0.000 OA
ATOM      9  C   UNL     1       5.260   4.779  18.486  0.00  0.00    +0.000 A 
ATOM     10  C   UNL     1       4.373   4.812  19.562  0.00  0.00    +0.000 A 
ATOM     11  C   UNL     1       3.046   4.436  19.348  0.00  0.00    +0.000 A 
ATOM     12  C   UNL     1       2.602   4.067  18.070  0.00  0.00    +0.000 A 
ATOM     13  C   UNL     1       3.502   4.042  17.000  0.00  0.00    +0.000 A 
ATOM     14  C   UNL     1       4.833   4.394  17.214  0.00  0.00    +0.000 A 
ATOM     15  N   UNL     1       5.747   4.364  16.155  0.00  0.00    +0.000 N 
ATOM     16  H   UNL     1       8.433   5.346  17.645  0.00  0.00    +0.000 HD
ATOM     17  H   UNL     1       5.460   4.082  15.228  0.00  0.00    +0.000 HD
ENDBRANCH   1  11
BRANCH   1  18
ATOM     18  N   UNL     1       1.955   6.114  21.150  0.00  0.00    +0.000 NA
ATOM     19  H   UNL     1       2.646   6.282  21.881  0.00  0.00    +0.000 HD
BRANCH  18  20
ATOM     20  C   UNL     1       2.033   7.085  20.047  0.00  0.00    +0.000 C 
BRANCH  20  21
ATOM     21  C   UNL     1       1.377   8.393  20.423  0.00  0.00    +0.000 A 
ATOM     22  C   UNL     1       1.098   8.699  21.761  0.00  0.00    +0.000 A 
ATOM     23  C   UNL     1       0.483   9.908  22.093  0.00  0.00    +0.000 A 
ATOM     24  C   UNL     1       0.118  10.810  21.092  0.00  0.00    +0.000 A 
ATOM     25  C   UNL     1       0.359  10.513  19.744  0.00  0.00    +0.000 A 
ATOM     26  C   UNL     1       1.004   9.308  19.423  0.00  0.00    +0.000 A 
BRANCH  25  27
ATOM     27  C   UNL     1      -0.114  11.442  18.654  0.00  0.00    +0.000 C 
BRANCH  27  28
ATOM     28  N   UNL     1       0.350  12.808  18.824  0.00  0.00    +0.000 N 
ATOM     29  C   UNL     1      -0.427  13.901  19.097  0.00  0.00    +0.000 A 
ATOM     30  C   UNL     1       0.417  14.979  18.961  0.00  0.00    +0.000 A 
ATOM     31  N   UNL     1       1.680  14.570  18.622  0.00  0.00    +0.000 NA
ATOM     32  C   UNL     1       1.610  13.259  18.546  0.00  0.00    +0.000 A 
ENDBRANCH  27  28
ENDBRANCH  25  27
ENDBRANCH  20  21
ENDBRANCH  18  20
ENDBRANCH   1  18
TORSDOF 6
ENDMDL
MODEL 5
REMARK VINA RESULT:      -8.3      2.053      2.845
REMARK  Name = 
REMARK  6 active torsions:
REMARK  status: ('A' for Active; 'I' for Inactive)
REMARK    1  A    between atoms: C_8  and  S_9
REMARK    2  A    between atoms: S_9  and  N_12
REMARK    3  A    between atoms: N_12  and  C_13
REMARK    4  A    between atoms: C_13  and  C_14
REMARK    5  A    between atoms: C_18  and  C_19
REMARK    6  A    between atoms: C_19  and  N_20
REMARK                            x       y       z     vdW  Elec       q    Type
REMARK                         _______ _______ _______ _____ _____    ______ ____
ROOT
ATOM      1  S   UNL     1       3.697   2.500  18.050  0.00  0.00    +0.000 S 
ATOM      2  O   UNL     1       4.192   1.432  17.212  0.00  0.00    +0.000 OA
ATOM      3  O   UNL     1       3.608   2.372  19.488  0.00  0.00    +0.000 OA
ENDROOT
BRANCH   1  11
ATOM      4  O   UNL     1       8.605   8.807  17.575  0.00  0.00    +0.000 OA
ATOM      5  C   UNL     1       7.939   7.810  17.824  0.00  0.00    +0.000 A 
ATOM      6  N   UNL     1       8.145   7.064  18.950  0.00  0.00    +0.000 N 
ATOM      7  C   UNL     1       7.491   5.906  19.289  0.00  0.00    +0.000 A 
ATOM      8  O   UNL     1       7.783   5.249  20.279  0.00  0.00    +0.000 OA
ATOM      9  C   UNL     1       6.416   5.477  18.370  0.00  0.00    +0.000 A 
ATOM     10  C   UNL     1       5.666   4.331  18.635  0.00  0.00    +0.000 A 
ATOM     11  C   UNL     1       4.680   3.949  17.724  0.00  0.00    +0.000 A 
ATOM     12  C   UNL     1       4.420   4.722  16.583  0.00  0.00    +0.000 A 
ATOM     13  C   UNL     1       5.178   5.871  16.332  0.00  0.00    +0.000 A 
ATOM     14  C   UNL     1       6.179   6.242  17.227  0.00  0.00    +0.000 A 
ATOM     15  N   UNL     1       6.952   7.382  16.983  0.00  0.00    +0.000 N 
ATOM     16  H   UNL     1       8.883   7.369  19.566  0.00  0.00    +0.000 HD
ATOM     17  H   UNL     1       6.802   7.947  16.158  0.00  0.00    +0.000 HD
ENDBRANCH   1  11
BRANCH   1  18
ATOM     18  N   UNL     1       2.177   2.982  17.495  0.00  0.00    +0.000 NA
ATOM     19  H   UNL     1       1.774   2.304  16.849  0.00  0.00    +0.000 HD
BRANCH  18  20
ATOM     20  C   UNL     1       1.228   3.436  18.524  0.00  0.00    +0.000 C 
BRANCH  20  21
ATOM     21  C   UNL     1       1.594   4.810  19.037  0.00  0.00    +0.000 A 
ATOM     22  C   UNL     1       1.637   5.076  20.412  0.00  0.00    +0.000 A 
ATOM     23  C   UNL     1       1.968   6.352  20.871  0.00  0.00    +0.000 A 
ATOM     24  C   UNL     1       2.233   7.379  19.965  0.00  0.00    +0.000 A 
ATOM     25  C   UNL     1       2.167   7.145  18.584  0.00  0.00    +0.000 A 
ATOM     26  C   UNL     1       1.862   5.852  18.133  0.00  0.00    +0.000 A 
BRANCH  25  27
ATOM     27  C   UNL     1       2.364   8.273  17.602  0.00  0.00    +0.000 C 
BRANCH  27  28
ATOM     28  N   UNL     1       1.584   9.455  17.922  0.00  0.00    +0.000 N 
ATOM     29  C   UNL     1       2.072  10.652  18.370  0.00  0.00    +0.000 A 
ATOM     30  C   UNL     1       0.959  11.379  18.726  0.00  0.00    +0.000 A 
ATOM     31  N   UNL     1      -0.185  10.659  18.500  0.00  0.00    +0.000 NA
ATOM     32  C   UNL     1       0.222   9.506  18.016  0.00  0.00    +0.000 A 
ENDBRANCH  27  28
ENDBRANCH  25  27
ENDBRANCH  20  21
ENDBRANCH  18  20
ENDBRANCH   1  18
TORSDOF 6
ENDMDL
MODEL 6
REMARK VINA RESULT:      -8.3      4.238      9.559
REMARK  Name = 
REMARK  6 active torsions:
REMARK  status: ('A' for Active; 'I' for Inactive)
REMARK    1  A    between atoms: C_8  and  S_9
REMARK    2  A    between atoms: S_9  and  N_12
REMARK    3  A    between atoms: N_12  and  C_13
REMARK    4  A    between atoms: C_13  and  C_14
REMARK    5  A    between atoms: C_18  and  C_19
REMARK    6  A    between atoms: C_19  and  N_20
REMARK                            x       y       z     vdW  Elec       q    Type
REMARK                         _______ _______ _______ _____ _____    ______ ____
ROOT
ATOM      1  S   UNL     1       1.084  10.282  19.072  0.00  0.00    +0.000 S 
ATOM      2  O   UNL     1       1.964  11.277  18.502  0.00  0.00    +0.000 OA
ATOM      3  O   UNL     1       1.194   9.855  20.449  0.00  0.00    +0.000 OA
ENDROOT
BRANCH   1  11
ATOM      4  O   UNL     1      -6.410  12.230  17.042  0.00  0.00    +0.000 OA
ATOM      5  C   UNL     1      -5.257  11.839  17.177  0.00  0.00    +0.000 A 
ATOM      6  N   UNL     1      -4.654  11.030  16.256  0.00  0.00    +0.000 N 
ATOM      7  C   UNL     1      -3.393  10.499  16.344  0.00  0.00    +0.000 A 
ATOM      8  O   UNL     1      -2.946   9.719  15.514  0.00  0.00    +0.000 OA
ATOM      9  C   UNL     1      -2.599  10.906  17.522  0.00  0.00    +0.000 A 
ATOM     10  C   UNL     1      -1.292  10.449  17.695  0.00  0.00    +0.000 A 
ATOM     11  C   UNL     1      -0.592  10.837  18.838  0.00  0.00    +0.000 A 
ATOM     12  C   UNL     1      -1.174  11.701  19.777  0.00  0.00    +0.000 A 
ATOM     13  C   UNL     1      -2.484  12.155  19.589  0.00  0.00    +0.000 A 
ATOM     14  C   UNL     1      -3.195  11.749  18.461  0.00  0.00    +0.000 A 
ATOM     15  N   UNL     1      -4.509  12.186  18.265  0.00  0.00    +0.000 N 
ATOM     16  H   UNL     1      -5.209  10.761  15.458  0.00  0.00    +0.000 HD
ATOM     17  H   UNL     1      -4.962  12.792  18.936  0.00  0.00    +0.000 HD
ENDBRANCH   1  11
BRANCH   1  18
ATOM     18  N   UNL     1       1.125   8.893  18.112  0.00  0.00    +0.000 NA
ATOM     19  H   UNL     1       0.492   8.959  17.316  0.00  0.00    +0.000 HD
BRANCH  18  20
ATOM     20  C   UNL     1       2.463   8.399  17.748  0.00  0.00    +0.000 C 
BRANCH  20  21
ATOM     21  C   UNL     1       2.763   7.083  18.427  0.00  0.00    +0.000 A 
ATOM     22  C   UNL     1       2.069   6.694  19.580  0.00  0.00    +0.000 A 
ATOM     23  C   UNL     1       2.364   5.479  20.202  0.00  0.00    +0.000 A 
ATOM     24  C   UNL     1       3.370   4.656  19.696  0.00  0.00    +0.000 A 
ATOM     25  C   UNL     1       4.100   5.037  18.562  0.00  0.00    +0.000 A 
ATOM     26  C   UNL     1       3.776   6.246  17.927  0.00  0.00    +0.000 A 
BRANCH  25  27
ATOM     27  C   UNL     1       5.248   4.194  18.065  0.00  0.00    +0.000 C 
BRANCH  27  28
ATOM     28  N   UNL     1       5.835   4.693  16.834  0.00  0.00    +0.000 N 
ATOM     29  C   UNL     1       5.524   4.287  15.565  0.00  0.00    +0.000 A 
ATOM     30  C   UNL     1       6.469   4.881  14.761  0.00  0.00    +0.000 A 
ATOM     31  N   UNL     1       7.335   5.639  15.505  0.00  0.00    +0.000 NA
ATOM     32  C   UNL     1       6.929   5.507  16.749  0.00  0.00    +0.000 A 
ENDBRANCH  27  28
ENDBRANCH  25  27
ENDBRANCH  20  21
ENDBRANCH  18  20
ENDBRANCH   1  18
TORSDOF 6
ENDMDL
MODEL 7
REMARK VINA RESULT:      -8.2      4.539      9.350
REMARK  Name = 
REMARK  6 active torsions:
REMARK  status: ('A' for Active; 'I' for Inactive)
REMARK    1  A    between atoms: C_8  and  S_9
REMARK    2  A    between atoms: S_9  and  N_12
REMARK    3  A    between atoms: N_12  and  C_13
REMARK    4  A    between atoms: C_13  and  C_14
REMARK    5  A    between atoms: C_18  and  C_19
REMARK    6  A    between atoms: C_19  and  N_20
REMARK                            x       y       z     vdW  Elec       q    Type
REMARK                         _______ _______ _______ _____ _____    ______ ____
ROOT
ATOM      1  S   UNL     1       0.904  10.053  19.025  0.00  0.00    +0.000 S 
ATOM      2  O   UNL     1       1.710  11.232  18.806  0.00  0.00    +0.000 OA
ATOM      3  O   UNL     1       0.759   9.452  20.332  0.00  0.00    +0.000 OA
ENDROOT
BRANCH   1  11
ATOM      4  O   UNL     1      -6.602  12.231  17.289  0.00  0.00    +0.000 OA
ATOM      5  C   UNL     1      -5.477  12.005  17.720  0.00  0.00    +0.000 A 
ATOM      6  N   UNL     1      -5.013  12.581  18.869  0.00  0.00    +0.000 N 
ATOM      7  C   UNL     1      -3.757  12.434  19.400  0.00  0.00    +0.000 A 
ATOM      8  O   UNL     1      -3.386  13.042  20.395  0.00  0.00    +0.000 OA
ATOM      9  C   UNL     1      -2.855  11.507  18.686  0.00  0.00    +0.000 A 
ATOM     10  C   UNL     1      -1.565  11.260  19.157  0.00  0.00    +0.000 A 
ATOM     11  C   UNL     1      -0.740  10.399  18.433  0.00  0.00    +0.000 A 
ATOM     12  C   UNL     1      -1.208   9.762  17.274  0.00  0.00    +0.000 A 
ATOM     13  C   UNL     1      -2.505  10.017  16.815  0.00  0.00    +0.000 A 
ATOM     14  C   UNL     1      -3.323  10.895  17.522  0.00  0.00    +0.000 A 
ATOM     15  N   UNL     1      -4.618  11.167  17.069  0.00  0.00    +0.000 N 
ATOM     16  H   UNL     1      -5.639  13.211  19.344  0.00  0.00    +0.000 HD
ATOM     17  H   UNL     1      -4.976  10.740  16.225  0.00  0.00    +0.000 HD
ENDBRANCH   1  11
BRANCH   1  18
ATOM     18  N   UNL     1       1.404   8.836  17.967  0.00  0.00    +0.000 NA
ATOM     19  H   UNL     1       0.909   8.877  17.076  0.00  0.00    +0.000 HD
BRANCH  18  20
ATOM     20  C   UNL     1       2.859   8.672  17.813  0.00  0.00    +0.000 C 
BRANCH  20  21
ATOM     21  C   UNL     1       3.229   7.217  17.637  0.00  0.00    +0.000 A 
ATOM     22  C   UNL     1       4.418   6.850  16.994  0.00  0.00    +0.000 A 
ATOM     23  C   UNL     1       4.742   5.503  16.831  0.00  0.00    +0.000 A 
ATOM     24  C   UNL     1       3.872   4.510  17.284  0.00  0.00    +0.000 A 
ATOM     25  C   UNL     1       2.663   4.852  17.905  0.00  0.00    +0.000 A 
ATOM     26  C   UNL     1       2.360   6.210  18.090  0.00  0.00    +0.000 A 
BRANCH  25  27
ATOM     27  C   UNL     1       1.679   3.784  18.315  0.00  0.00    +0.000 C 
BRANCH  27  28
ATOM     28  N   UNL     1       1.916   3.269  19.653  0.00  0.00    +0.000 N 
ATOM     29  C   UNL     1       1.059   3.349  20.716  0.00  0.00    +0.000 A 
ATOM     30  C   UNL     1       1.794   2.917  21.797  0.00  0.00    +0.000 A 
ATOM     31  N   UNL     1       3.064   2.573  21.416  0.00  0.00    +0.000 NA
ATOM     32  C   UNL     1       3.109   2.795  20.121  0.00  0.00    +0.000 A 
ENDBRANCH  27  28
ENDBRANCH  25  27
ENDBRANCH  20  21
ENDBRANCH  18  20
ENDBRANCH   1  18
TORSDOF 6
ENDMDL
MODEL 8
REMARK VINA RESULT:      -8.2      3.283      5.402
REMARK  Name = 
REMARK  6 active torsions:
REMARK  status: ('A' for Active; 'I' for Inactive)
REMARK    1  A    between atoms: C_8  and  S_9
REMARK    2  A    between atoms: S_9  and  N_12
REMARK    3  A    between atoms: N_12  and  C_13
REMARK    4  A    between atoms: C_13  and  C_14
REMARK    5  A    between atoms: C_18  and  C_19
REMARK    6  A    between atoms: C_19  and  N_20
REMARK                            x       y       z     vdW  Elec       q    Type
REMARK                         _______ _______ _______ _____ _____    ______ ____
ROOT
ATOM      1  S   UNL     1       0.729   9.279  21.176  0.00  0.00    +0.000 S 
ATOM      2  O   UNL     1      -0.562   8.717  21.505  0.00  0.00    +0.000 OA
ATOM      3  O   UNL     1       1.681   9.668  22.193  0.00  0.00    +0.000 OA
ENDROOT
BRANCH   1  11
ATOM      4  O   UNL     1       4.435   3.399  17.204  0.00  0.00    +0.000 OA
ATOM      5  C   UNL     1       3.863   4.172  17.963  0.00  0.00    +0.000 A 
ATOM      6  N   UNL     1       3.473   3.797  19.218  0.00  0.00    +0.000 N 
ATOM      7  C   UNL     1       2.783   4.568  20.118  0.00  0.00    +0.000 A 
ATOM      8  O   UNL     1       2.400   4.138  21.198  0.00  0.00    +0.000 OA
ATOM      9  C   UNL     1       2.502   5.958  19.700  0.00  0.00    +0.000 A 
ATOM     10  C   UNL     1       1.833   6.837  20.551  0.00  0.00    +0.000 A 
ATOM     11  C   UNL     1       1.566   8.131  20.101  0.00  0.00    +0.000 A 
ATOM     12  C   UNL     1       1.993   8.553  18.835  0.00  0.00    +0.000 A 
ATOM     13  C   UNL     1       2.667   7.661  17.993  0.00  0.00    +0.000 A 
ATOM     14  C   UNL     1       2.914   6.361  18.429  0.00  0.00    +0.000 A 
ATOM     15  N   UNL     1       3.577   5.455  17.594  0.00  0.00    +0.000 N 
ATOM     16  H   UNL     1       3.671   2.846  19.488  0.00  0.00    +0.000 HD
ATOM     17  H   UNL     1       3.878   5.724  16.668  0.00  0.00    +0.000 HD
ENDBRANCH   1  11
BRANCH   1  18
ATOM     18  N   UNL     1       0.511  10.609  20.160  0.00  0.00    +0.000 NA
ATOM     19  H   UNL     1       0.796  10.409  19.201  0.00  0.00    +0.000 HD
BRANCH  18  20
ATOM     20  C   UNL     1      -0.796  11.281  20.246  0.00  0.00    +0.000 C 
BRANCH  20  21
ATOM     21  C   UNL     1      -1.649  10.973  19.037  0.00  0.00    +0.000 A 
ATOM     22  C   UNL     1      -1.168  10.155  18.007  0.00  0.00    +0.000 A 
ATOM     23  C   UNL     1      -1.965   9.887  16.892  0.00  0.00    +0.000 A 
ATOM     24  C   UNL     1      -3.236  10.453  16.782  0.00  0.00    +0.000 A 
ATOM     25  C   UNL     1      -3.727  11.299  17.786  0.00  0.00    +0.000 A 
ATOM     26  C   UNL     1      -2.930  11.538  18.917  0.00  0.00    +0.000 A 
BRANCH  25  27
ATOM     27  C   UNL     1      -5.062  11.984  17.630  0.00  0.00    +0.000 C 
BRANCH  27  28
ATOM     28  N   UNL     1      -6.031  11.589  18.638  0.00  0.00    +0.000 N 
ATOM     29  C   UNL     1      -6.487  12.362  19.671  0.00  0.00    +0.000 A 
ATOM     30  C   UNL     1      -7.216  11.502  20.461  0.00  0.00    +0.000 A 
ATOM     31  N   UNL     1      -7.220  10.238  19.931  0.00  0.00    +0.000 NA
ATOM     32  C   UNL     1      -6.499  10.321  18.835  0.00  0.00    +0.000 A 
ENDBRANCH  27  28
ENDBRANCH  25  27
ENDBRANCH  20  21
ENDBRANCH  18  20
ENDBRANCH   1  18
TORSDOF 6
ENDMDL
MODEL 9
REMARK VINA RESULT:      -8.2      1.347      1.737
REMARK  Name = 
REMARK  6 active torsions:
REMARK  status: ('A' for Active; 'I' for Inactive)
REMARK    1  A    between atoms: C_8  and  S_9
REMARK    2  A    between atoms: S_9  and  N_12
REMARK    3  A    between atoms: N_12  and  C_13
REMARK    4  A    between atoms: C_13  and  C_14
REMARK    5  A    between atoms: C_18  and  C_19
REMARK    6  A    between atoms: C_19  and  N_20
REMARK                            x       y       z     vdW  Elec       q    Type
REMARK                         _______ _______ _______ _____ _____    ______ ____
ROOT
ATOM      1  S   UNL     1       2.982   3.068  20.394  0.00  0.00    +0.000 S 
ATOM      2  O   UNL     1       1.682   2.538  20.051  0.00  0.00    +0.000 OA
ATOM      3  O   UNL     1       3.918   2.338  21.220  0.00  0.00    +0.000 OA
ENDROOT
BRANCH   1  11
ATOM      4  O   UNL     1       7.633   5.184  14.232  0.00  0.00    +0.000 OA
ATOM      5  C   UNL     1       7.069   4.928  15.289  0.00  0.00    +0.000 A 
ATOM      6  N   UNL     1       7.674   5.121  16.498  0.00  0.00    +0.000 N 
ATOM      7  C   UNL     1       7.149   4.816  17.728  0.00  0.00    +0.000 A 
ATOM      8  O   UNL     1       7.782   4.947  18.767  0.00  0.00    +0.000 OA
ATOM      9  C   UNL     1       5.767   4.292  17.730  0.00  0.00    +0.000 A 
ATOM     10  C   UNL     1       5.124   3.978  18.927  0.00  0.00    +0.000 A 
ATOM     11  C   UNL     1       3.830   3.459  18.878  0.00  0.00    +0.000 A 
ATOM     12  C   UNL     1       3.171   3.292  17.651  0.00  0.00    +0.000 A 
ATOM     13  C   UNL     1       3.826   3.614  16.458  0.00  0.00    +0.000 A 
ATOM     14  C   UNL     1       5.128   4.109  16.503  0.00  0.00    +0.000 A 
ATOM     15  N   UNL     1       5.799   4.426  15.317  0.00  0.00    +0.000 N 
ATOM     16  H   UNL     1       8.617   5.478  16.480  0.00  0.00    +0.000 HD
ATOM     17  H   UNL     1       5.358   4.295  14.417  0.00  0.00    +0.000 HD
ENDBRANCH   1  11
BRANCH   1  18
ATOM     18  N   UNL     1       2.790   4.596  21.087  0.00  0.00    +0.000 NA
ATOM     19  H   UNL     1       3.607   5.189  20.939  0.00  0.00    +0.000 HD
BRANCH  18  20
ATOM     20  C   UNL     1       1.519   5.281  20.799  0.00  0.00    +0.000 C 
BRANCH  20  21
ATOM     21  C   UNL     1       1.743   6.515  19.955  0.00  0.00    +0.000 A 
ATOM     22  C   UNL     1       2.471   6.447  18.760  0.00  0.00    +0.000 A 
ATOM     23  C   UNL     1       2.677   7.597  17.996  0.00  0.00    +0.000 A 
ATOM     24  C   UNL     1       2.182   8.828  18.429  0.00  0.00    +0.000 A 
ATOM     25  C   UNL     1       1.476   8.927  19.636  0.00  0.00    +0.000 A 
ATOM     26  C   UNL     1       1.249   7.760  20.382  0.00  0.00    +0.000 A 
BRANCH  25  27
ATOM     27  C   UNL     1       1.018  10.268  20.152  0.00  0.00    +0.000 C 
BRANCH  27  28
ATOM     28  N   UNL     1       0.472  10.209  21.497  0.00  0.00    +0.000 N 
ATOM     29  C   UNL     1       0.931   9.431  22.525  0.00  0.00    +0.000 A 
ATOM     30  C   UNL     1      -0.015   9.560  23.516  0.00  0.00    +0.000 A 
ATOM     31  N   UNL     1      -1.025  10.397  23.120  0.00  0.00    +0.000 NA
ATOM     32  C   UNL     1      -0.705  10.772  21.901  0.00  0.00    +0.000 A 
ENDBRANCH  27  28
ENDBRANCH  25  27
ENDBRANCH  20  21
ENDBRANCH  18  20
ENDBRANCH   1  18
TORSDOF 6
ENDMDL
