MODEL 1
REMARK VINA RESULT:      -8.9      0.000      0.000
REMARK  Name = 
REMARK  4 active torsions:
REMARK  status: ('A' for Active; 'I' for Inactive)
REMARK    1  A    between atoms: C_2  and  C_3
REMARK    2  A    between atoms: C_2  and  C_23
REMARK    3  A    between atoms: C_6  and  N_7
REMARK    4  A    between atoms: C_11  and  C_13
REMARK                            x       y       z     vdW  Elec       q    Type
REMARK                         _______ _______ _______ _____ _____    ______ ____
ROOT
ATOM      1  C   UNL     1       2.262   7.532  18.924  0.00  0.00    +0.000 A 
ATOM      2  C   UNL     1       1.726   7.938  20.144  0.00  0.00    +0.000 A 
ATOM      3  C   UNL     1       1.213   9.237  20.282  0.00  0.00    +0.000 A 
ATOM      4  C   UNL     1       1.220  10.163  19.225  0.00  0.00    +0.000 A 
ATOM      5  C   UNL     1       1.719   9.702  17.999  0.00  0.00    +0.000 A 
ATOM      6  C   UNL     1       2.210   8.404  17.838  0.00  0.00    +0.000 A 
ENDROOT
BRANCH   4   7
ATOM      7  N   UNL     1       0.759  11.454  19.382  0.00  0.00    +0.000 N 
ATOM      8  C   UNL     1       0.382  12.001  20.705  0.00  0.00    +0.000 C 
ATOM      9  C   UNL     1       1.167  13.298  21.012  0.00  0.00    +0.000 C 
ATOM     10  N   UNL     1       1.121  14.246  19.890  0.00  0.00    +0.000 N 
ATOM     11  C   UNL     1       0.748  15.563  20.133  0.00  0.00    +0.000 C 
ATOM     12  O   UNL     1       0.551  15.991  21.271  0.00  0.00    +0.000 OA
ATOM     13  C   UNL     1       1.586  13.654  18.628  0.00  0.00    +0.000 C 
ATOM     14  C   UNL     1       0.721  12.431  18.277  0.00  0.00    +0.000 C 
BRANCH  11  15
ATOM     15  C   UNL     1       0.578  16.526  19.008  0.00  0.00    +0.000 A 
ATOM     16  C   UNL     1       1.654  16.965  18.233  0.00  0.00    +0.000 A 
ATOM     17  C   UNL     1       1.456  17.921  17.234  0.00  0.00    +0.000 A 
ATOM     18  C   UNL     1       0.170  18.374  16.949  0.00  0.00    +0.000 A 
ATOM     19  C   UNL     1      -0.921  17.865  17.653  0.00  0.00    +0.000 A 
ATOM     20  C   UNL     1      -0.719  16.946  18.685  0.00  0.00    +0.000 A 
ENDBRANCH  11  15
ENDBRANCH   4   7
BRANCH   1  22
ATOM     21  O   UNL     1       3.918   6.033  18.169  0.00  0.00    +0.000 OA
ATOM     22  C   UNL     1       2.885   6.184  18.810  0.00  0.00    +0.000 C 
BRANCH  22  23
ATOM     23  C   UNL     1       2.259   5.013  19.482  0.00  0.00    +0.000 A 
ATOM     24  C   UNL     1       2.464   4.760  20.851  0.00  0.00    +0.000 A 
ATOM     25  C   UNL     1       1.960   3.595  21.433  0.00  0.00    +0.000 A 
ATOM     26  C   UNL     1       1.215   2.707  20.662  0.00  0.00    +0.000 A 
ATOM     27  C   UNL     1       0.965   2.996  19.323  0.00  0.00    +0.000 A 
ATOM     28  F   UNL     1       0.233   2.143  18.596  0.00  0.00    +0.000 F 
ATOM     29  C   UNL     1       1.475   4.142  18.725  0.00  0.00    +0.000 A 
ENDBRANCH  22  23
ENDBRANCH   1  22
TORSDOF 4
ENDMDL
MODEL 2
REMARK VINA RESULT:      -8.7      1.152      1.346
REMARK  Name = 
REMARK  4 active torsions:
REMARK  status: ('A' for Active; 'I' for Inactive)
REMARK    1  A    between atoms: C_2  and  C_3
REMARK    2  A    between atoms: C_2  and  C_23
REMARK    3  A    between atoms: C_6  and  N_7
REMARK    4  A    between atoms: C_11  and  C_13
REMARK                            x       y       z     vdW  Elec       q    Type
REMARK                         _______ _______ _______ _____ _____    ______ ____
ROOT
ATOM      1  C   UNL     1       2.252   7.434  19.190  0.00  0.00    +0.000 A 
ATOM      2  C   UNL     1       1.628   7.964  20.317  0.00  0.00    +0.000 A 
ATOM      3  C   UNL     1       0.986   9.209  20.238  0.00  0.00    +0.000 A 
ATOM      4  C   UNL     1       0.948   9.959  19.049  0.00  0.00    +0.000 A 
ATOM      5  C   UNL     1       1.539   9.369  17.923  0.00  0.00    +0.000 A 
ATOM      6  C   UNL     1       2.160   8.119  17.980  0.00  0.00    +0.000 A 
ENDROOT
BRANCH   4   7
ATOM      7  N   UNL     1       0.357  11.205  18.989  0.00  0.00    +0.000 N 
ATOM      8  C   UNL     1      -1.056  11.426  19.374  0.00  0.00    +0.000 C 
ATOM      9  C   UNL     1      -1.168  12.517  20.465  0.00  0.00    +0.000 C 
ATOM     10  N   UNL     1      -0.403  13.722  20.116  0.00  0.00    +0.000 N 
ATOM     11  C   UNL     1      -1.029  14.962  20.177  0.00  0.00    +0.000 C 
ATOM     12  O   UNL     1      -2.175  15.099  20.610  0.00  0.00    +0.000 OA
ATOM     13  C   UNL     1       1.008  13.433  19.825  0.00  0.00    +0.000 C 
ATOM     14  C   UNL     1       1.106  12.432  18.660  0.00  0.00    +0.000 C 
BRANCH  11  15
ATOM     15  C   UNL     1      -0.325  16.193  19.722  0.00  0.00    +0.000 A 
ATOM     16  C   UNL     1       0.468  16.959  20.580  0.00  0.00    +0.000 A 
ATOM     17  C   UNL     1       1.052  18.144  20.126  0.00  0.00    +0.000 A 
ATOM     18  C   UNL     1       0.918  18.519  18.792  0.00  0.00    +0.000 A 
ATOM     19  C   UNL     1       0.210  17.708  17.906  0.00  0.00    +0.000 A 
ATOM     20  C   UNL     1      -0.416  16.548  18.370  0.00  0.00    +0.000 A 
ENDBRANCH  11  15
ENDBRANCH   4   7
BRANCH   1  22
ATOM     21  O   UNL     1       4.185   6.102  18.974  0.00  0.00    +0.000 OA
ATOM     22  C   UNL     1       3.008   6.155  19.305  0.00  0.00    +0.000 C 
BRANCH  22  23
ATOM     23  C   UNL     1       2.335   4.935  19.829  0.00  0.00    +0.000 A 
ATOM     24  C   UNL     1       2.477   4.543  21.172  0.00  0.00    +0.000 A 
ATOM     25  C   UNL     1       1.931   3.336  21.613  0.00  0.00    +0.000 A 
ATOM     26  C   UNL     1       1.207   2.544  20.726  0.00  0.00    +0.000 A 
ATOM     27  C   UNL     1       1.019   2.969  19.414  0.00  0.00    +0.000 A 
ATOM     28  F   UNL     1       0.307   2.207  18.575  0.00  0.00    +0.000 F 
ATOM     29  C   UNL     1       1.572   4.160  18.956  0.00  0.00    +0.000 A 
ENDBRANCH  22  23
ENDBRANCH   1  22
TORSDOF 4
ENDMDL
MODEL 3
REMARK VINA RESULT:      -8.7      1.364      1.850
REMARK  Name = 
REMARK  4 active torsions:
REMARK  status: ('A' for Active; 'I' for Inactive)
REMARK    1  A    between atoms: C_2  and  C_3
REMARK    2  A    between atoms: C_2  and  C_23
REMARK    3  A    between atoms: C_6  and  N_7
REMARK    4  A    between atoms: C_11  and  C_13
REMARK                            x       y       z     vdW  Elec       q    Type
REMARK                         _______ _______ _______ _____ _____    ______ ____
ROOT
ATOM      1  C   UNL     1       2.371   7.235  19.238  0.00  0.00    +0.000 A 
ATOM      2  C   UNL     1       1.726   7.750  20.360  0.00  0.00    +0.000 A 
ATOM      3  C   UNL     1       1.076   8.992  20.283  0.00  0.00    +0.000 A 
ATOM      4  C   UNL     1       1.052   9.753  19.102  0.00  0.00    +0.000 A 
ATOM      5  C   UNL     1       1.666   9.179  17.980  0.00  0.00    +0.000 A 
ATOM      6  C   UNL     1       2.294   7.932  18.034  0.00  0.00    +0.000 A 
ENDROOT
BRANCH   4   7
ATOM      7  N   UNL     1       0.453  10.995  19.046  0.00  0.00    +0.000 N 
ATOM      8  C   UNL     1      -0.955  11.210  19.447  0.00  0.00    +0.000 C 
ATOM      9  C   UNL     1      -1.060  12.304  20.536  0.00  0.00    +0.000 C 
ATOM     10  N   UNL     1      -0.306  13.512  20.172  0.00  0.00    +0.000 N 
ATOM     11  C   UNL     1      -0.938  14.749  20.238  0.00  0.00    +0.000 C 
ATOM     12  O   UNL     1      -2.079  14.881  20.684  0.00  0.00    +0.000 OA
ATOM     13  C   UNL     1       1.103  13.230  19.865  0.00  0.00    +0.000 C 
ATOM     14  C   UNL     1       1.192  12.225  18.703  0.00  0.00    +0.000 C 
BRANCH  11  15
ATOM     15  C   UNL     1      -0.246  15.983  19.770  0.00  0.00    +0.000 A 
ATOM     16  C   UNL     1      -0.353  16.446  18.456  0.00  0.00    +0.000 A 
ATOM     17  C   UNL     1       0.370  17.568  18.046  0.00  0.00    +0.000 A 
ATOM     18  C   UNL     1       1.131  18.282  18.969  0.00  0.00    +0.000 A 
ATOM     19  C   UNL     1       1.163  17.882  20.304  0.00  0.00    +0.000 A 
ATOM     20  C   UNL     1       0.479  16.731  20.706  0.00  0.00    +0.000 A 
ENDBRANCH  11  15
ENDBRANCH   4   7
BRANCH   1  22
ATOM     21  O   UNL     1       4.358   5.971  19.340  0.00  0.00    +0.000 OA
ATOM     22  C   UNL     1       3.133   5.961  19.352  0.00  0.00    +0.000 C 
BRANCH  22  23
ATOM     23  C   UNL     1       2.409   4.667  19.489  0.00  0.00    +0.000 A 
ATOM     24  C   UNL     1       1.962   3.958  18.359  0.00  0.00    +0.000 A 
ATOM     25  C   UNL     1       1.187   2.807  18.514  0.00  0.00    +0.000 A 
ATOM     26  C   UNL     1       0.897   2.340  19.793  0.00  0.00    +0.000 A 
ATOM     27  C   UNL     1       1.396   3.013  20.904  0.00  0.00    +0.000 A 
ATOM     28  F   UNL     1       1.124   2.545  22.129  0.00  0.00    +0.000 F 
ATOM     29  C   UNL     1       2.153   4.171  20.767  0.00  0.00    +0.000 A 
ENDBRANCH  22  23
ENDBRANCH   1  22
TORSDOF 4
ENDMDL
MODEL 4
REMARK VINA RESULT:      -8.7      3.211      4.098
REMARK  Name = 
REMARK  4 active torsions:
REMARK  status: ('A' for Active; 'I' for Inactive)
REMARK    1  A    between atoms: C_2  and  C_3
REMARK    2  A    between atoms: C_2  and  C_23
REMARK    3  A    between atoms: C_6  and  N_7
REMARK    4  A    between atoms: C_11  and  C_13
REMARK                            x       y       z     vdW  Elec       q    Type
REMARK                         _______ _______ _______ _____ _____    ______ ____
ROOT
ATOM      1  C   UNL     1       2.530   7.235  18.537  0.00  0.00    +0.000 A 
ATOM      2  C   UNL     1       2.361   8.294  17.648  0.00  0.00    +0.000 A 
ATOM      3  C   UNL     1       1.700   9.458  18.068  0.00  0.00    +0.000 A 
ATOM      4  C   UNL     1       1.189   9.602  19.369  0.00  0.00    +0.000 A 
ATOM      5  C   UNL     1       1.424   8.538  20.251  0.00  0.00    +0.000 A 
ATOM      6  C   UNL     1       2.103   7.382  19.855  0.00  0.00    +0.000 A 
ENDROOT
BRANCH   4   7
ATOM      7  N   UNL     1       0.497  10.730  19.763  0.00  0.00    +0.000 N 
ATOM      8  C   UNL     1      -0.433  11.440  18.855  0.00  0.00    +0.000 C 
ATOM      9  C   UNL     1      -1.839  11.563  19.489  0.00  0.00    +0.000 C 
ATOM     10  N   UNL     1      -1.776  12.070  20.866  0.00  0.00    +0.000 N 
ATOM     11  C   UNL     1      -2.578  13.147  21.228  0.00  0.00    +0.000 C 
ATOM     12  O   UNL     1      -3.415  13.629  20.463  0.00  0.00    +0.000 OA
ATOM     13  C   UNL     1      -0.896  11.267  21.727  0.00  0.00    +0.000 C 
ATOM     14  C   UNL     1       0.528  11.248  21.143  0.00  0.00    +0.000 C 
BRANCH  11  15
ATOM     15  C   UNL     1      -2.462  13.763  22.580  0.00  0.00    +0.000 A 
ATOM     16  C   UNL     1      -3.391  13.520  23.594  0.00  0.00    +0.000 A 
ATOM     17  C   UNL     1      -3.279  14.174  24.822  0.00  0.00    +0.000 A 
ATOM     18  C   UNL     1      -2.188  15.005  25.071  0.00  0.00    +0.000 A 
ATOM     19  C   UNL     1      -1.204  15.174  24.098  0.00  0.00    +0.000 A 
ATOM     20  C   UNL     1      -1.341  14.558  22.851  0.00  0.00    +0.000 A 
ENDBRANCH  11  15
ENDBRANCH   4   7
BRANCH   1  22
ATOM     21  O   UNL     1       3.977   5.990  17.153  0.00  0.00    +0.000 OA
ATOM     22  C   UNL     1       3.152   5.969  18.057  0.00  0.00    +0.000 C 
BRANCH  22  23
ATOM     23  C   UNL     1       2.777   4.670  18.682  0.00  0.00    +0.000 A 
ATOM     24  C   UNL     1       3.628   4.029  19.600  0.00  0.00    +0.000 A 
ATOM     25  C   UNL     1       3.309   2.760  20.086  0.00  0.00    +0.000 A 
ATOM     26  C   UNL     1       2.121   2.151  19.690  0.00  0.00    +0.000 A 
ATOM     27  C   UNL     1       1.255   2.818  18.828  0.00  0.00    +0.000 A 
ATOM     28  F   UNL     1       0.108   2.229  18.468  0.00  0.00    +0.000 F 
ATOM     29  C   UNL     1       1.568   4.075  18.322  0.00  0.00    +0.000 A 
ENDBRANCH  22  23
ENDBRANCH   1  22
TORSDOF 4
ENDMDL
MODEL 5
REMARK VINA RESULT:      -8.7      3.290      4.188
REMARK  Name = 
REMARK  4 active torsions:
REMARK  status: ('A' for Active; 'I' for Inactive)
REMARK    1  A    between atoms: C_2  and  C_3
REMARK    2  A    between atoms: C_2  and  C_23
REMARK    3  A    between atoms: C_6  and  N_7
REMARK    4  A    between atoms: C_11  and  C_13
REMARK                            x       y       z     vdW  Elec       q    Type
REMARK                         _______ _______ _______ _____ _____    ______ ____
ROOT
ATOM      1  C   UNL     1       2.576   7.352  18.561  0.00  0.00    +0.000 A 
ATOM      2  C   UNL     1       2.082   7.439  19.860  0.00  0.00    +0.000 A 
ATOM      3  C   UNL     1       1.368   8.579  20.260  0.00  0.00    +0.000 A 
ATOM      4  C   UNL     1       1.131   9.658  19.392  0.00  0.00    +0.000 A 
ATOM      5  C   UNL     1       1.597   9.513  18.078  0.00  0.00    +0.000 A 
ATOM      6  C   UNL     1       2.287   8.373  17.657  0.00  0.00    +0.000 A 
ENDROOT
BRANCH   4   7
ATOM      7  N   UNL     1       0.471  10.798  19.805  0.00  0.00    +0.000 N 
ATOM      8  C   UNL     1      -0.402  11.576  18.896  0.00  0.00    +0.000 C 
ATOM      9  C   UNL     1      -1.822  11.731  19.491  0.00  0.00    +0.000 C 
ATOM     10  N   UNL     1      -1.783  12.186  20.888  0.00  0.00    +0.000 N 
ATOM     11  C   UNL     1      -2.555  13.280  21.264  0.00  0.00    +0.000 C 
ATOM     12  O   UNL     1      -3.348  13.822  20.492  0.00  0.00    +0.000 OA
ATOM     13  C   UNL     1      -0.963  11.319  21.745  0.00  0.00    +0.000 C 
ATOM     14  C   UNL     1       0.477  11.264  21.204  0.00  0.00    +0.000 C 
BRANCH  11  15
ATOM     15  C   UNL     1      -2.458  13.842  22.641  0.00  0.00    +0.000 A 
ATOM     16  C   UNL     1      -3.439  13.618  23.610  0.00  0.00    +0.000 A 
ATOM     17  C   UNL     1      -3.339  14.224  24.864  0.00  0.00    +0.000 A 
ATOM     18  C   UNL     1      -2.215  14.982  25.183  0.00  0.00    +0.000 A 
ATOM     19  C   UNL     1      -1.185  15.128  24.255  0.00  0.00    +0.000 A 
ATOM     20  C   UNL     1      -1.306  14.563  22.982  0.00  0.00    +0.000 A 
ENDBRANCH  11  15
ENDBRANCH   4   7
BRANCH   1  22
ATOM     21  O   UNL     1       4.458   6.344  17.560  0.00  0.00    +0.000 OA
ATOM     22  C   UNL     1       3.409   6.180  18.170  0.00  0.00    +0.000 C 
BRANCH  22  23
ATOM     23  C   UNL     1       2.972   4.803  18.527  0.00  0.00    +0.000 A 
ATOM     24  C   UNL     1       1.771   4.265  18.029  0.00  0.00    +0.000 A 
ATOM     25  C   UNL     1       1.325   3.017  18.466  0.00  0.00    +0.000 A 
ATOM     26  C   UNL     1       2.099   2.286  19.364  0.00  0.00    +0.000 A 
ATOM     27  C   UNL     1       3.315   2.799  19.805  0.00  0.00    +0.000 A 
ATOM     28  F   UNL     1       4.058   2.080  20.656  0.00  0.00    +0.000 F 
ATOM     29  C   UNL     1       3.764   4.048  19.393  0.00  0.00    +0.000 A 
ENDBRANCH  22  23
ENDBRANCH   1  22
TORSDOF 4
ENDMDL
MODEL 6
REMARK VINA RESULT:      -8.7      3.754      4.976
REMARK  Name = 
REMARK  4 active torsions:
REMARK  status: ('A' for Active; 'I' for Inactive)
REMARK    1  A    between atoms: C_2  and  C_3
REMARK    2  A    between atoms: C_2  and  C_23
REMARK    3  A    between atoms: C_6  and  N_7
REMARK    4  A    between atoms: C_11  and  C_13
REMARK                            x       y       z     vdW  Elec       q    Type
REMARK                         _______ _______ _______ _____ _____    ______ ____
ROOT
ATOM      1  C   UNL     1       3.215   5.694  18.917  0.00  0.00    +0.000 A 
ATOM      2  C   UNL     1       2.497   5.896  20.093  0.00  0.00    +0.000 A 
ATOM      3  C   UNL     1       1.823   7.110  20.299  0.00  0.00    +0.000 A 
ATOM      4  C   UNL     1       1.846   8.150  19.354  0.00  0.00    +0.000 A 
ATOM      5  C   UNL     1       2.535   7.890  18.160  0.00  0.00    +0.000 A 
ATOM      6  C   UNL     1       3.189   6.677  17.930  0.00  0.00    +0.000 A 
ENDROOT
BRANCH   4   7
ATOM      7  N   UNL     1       1.222   9.360  19.582  0.00  0.00    +0.000 N 
ATOM      8  C   UNL     1       0.653  10.172  18.483  0.00  0.00    +0.000 C 
ATOM      9  C   UNL     1      -0.842  10.478  18.738  0.00  0.00    +0.000 C 
ATOM     10  N   UNL     1      -1.073  10.987  20.097  0.00  0.00    +0.000 N 
ATOM     11  C   UNL     1      -1.801  12.159  20.265  0.00  0.00    +0.000 C 
ATOM     12  O   UNL     1      -2.346  12.735  19.322  0.00  0.00    +0.000 OA
ATOM     13  C   UNL     1      -0.551  10.088  21.136  0.00  0.00    +0.000 C 
ATOM     14  C   UNL     1       0.961   9.884  20.936  0.00  0.00    +0.000 C 
BRANCH  11  15
ATOM     15  C   UNL     1      -1.960  12.769  21.615  0.00  0.00    +0.000 A 
ATOM     16  C   UNL     1      -0.955  13.534  22.212  0.00  0.00    +0.000 A 
ATOM     17  C   UNL     1      -1.123  14.027  23.508  0.00  0.00    +0.000 A 
ATOM     18  C   UNL     1      -2.329  13.832  24.176  0.00  0.00    +0.000 A 
ATOM     19  C   UNL     1      -3.373  13.154  23.548  0.00  0.00    +0.000 A 
ATOM     20  C   UNL     1      -3.190  12.618  22.270  0.00  0.00    +0.000 A 
ENDBRANCH  11  15
ENDBRANCH   4   7
BRANCH   1  22
ATOM     21  O   UNL     1       3.725   3.444  19.404  0.00  0.00    +0.000 OA
ATOM     22  C   UNL     1       4.000   4.439  18.746  0.00  0.00    +0.000 C 
BRANCH  22  23
ATOM     23  C   UNL     1       5.120   4.388  17.767  0.00  0.00    +0.000 A 
ATOM     24  C   UNL     1       6.443   4.669  18.155  0.00  0.00    +0.000 A 
ATOM     25  C   UNL     1       7.458   4.726  17.199  0.00  0.00    +0.000 A 
ATOM     26  C   UNL     1       7.162   4.460  15.864  0.00  0.00    +0.000 A 
ATOM     27  C   UNL     1       5.863   4.123  15.499  0.00  0.00    +0.000 A 
ATOM     28  F   UNL     1       5.594   3.853  14.215  0.00  0.00    +0.000 F 
ATOM     29  C   UNL     1       4.837   4.080  16.436  0.00  0.00    +0.000 A 
ENDBRANCH  22  23
ENDBRANCH   1  22
TORSDOF 4
ENDMDL
MODEL 7
REMARK VINA RESULT:      -8.6      0.871      1.249
REMARK  Name = 
REMARK  4 active torsions:
REMARK  status: ('A' for Active; 'I' for Inactive)
REMARK    1  A    between atoms: C_2  and  C_3
REMARK    2  A    between atoms: C_2  and  C_23
REMARK    3  A    between atoms: C_6  and  N_7
REMARK    4  A    between atoms: C_11  and  C_13
REMARK                            x       y       z     vdW  Elec       q    Type
REMARK                         _______ _______ _______ _____ _____    ______ ____
ROOT
ATOM      1  C   UNL     1       2.431   7.284  19.012  0.00  0.00    +0.000 A 
ATOM      2  C   UNL     1       1.833   7.741  20.184  0.00  0.00    +0.000 A 
ATOM      3  C   UNL     1       1.265   9.023  20.223  0.00  0.00    +0.000 A 
ATOM      4  C   UNL     1       1.276   9.883  19.111  0.00  0.00    +0.000 A 
ATOM      5  C   UNL     1       1.839   9.369  17.934  0.00  0.00    +0.000 A 
ATOM      6  C   UNL     1       2.386   8.084  17.872  0.00  0.00    +0.000 A 
ENDROOT
BRANCH   4   7
ATOM      7  N   UNL     1       0.759  11.161  19.169  0.00  0.00    +0.000 N 
ATOM      8  C   UNL     1      -0.036  11.637  20.324  0.00  0.00    +0.000 C 
ATOM      9  C   UNL     1       0.579  12.922  20.927  0.00  0.00    +0.000 C 
ATOM     10  N   UNL     1       0.873  13.925  19.894  0.00  0.00    +0.000 N 
ATOM     11  C   UNL     1       0.411  15.226  20.064  0.00  0.00    +0.000 C 
ATOM     12  O   UNL     1      -0.151  15.594  21.097  0.00  0.00    +0.000 OA
ATOM     13  C   UNL     1       1.732  13.402  18.823  0.00  0.00    +0.000 C 
ATOM     14  C   UNL     1       1.055  12.192  18.157  0.00  0.00    +0.000 C 
BRANCH  11  15
ATOM     15  C   UNL     1       0.589  16.243  18.990  0.00  0.00    +0.000 A 
ATOM     16  C   UNL     1       1.844  16.572  18.473  0.00  0.00    +0.000 A 
ATOM     17  C   UNL     1       1.968  17.581  17.517  0.00  0.00    +0.000 A 
ATOM     18  C   UNL     1       0.830  18.203  17.009  0.00  0.00    +0.000 A 
ATOM     19  C   UNL     1      -0.434  17.810  17.448  0.00  0.00    +0.000 A 
ATOM     20  C   UNL     1      -0.557  16.835  18.441  0.00  0.00    +0.000 A 
ENDBRANCH  11  15
ENDBRANCH   4   7
BRANCH   1  22
ATOM     21  O   UNL     1       4.310   5.880  18.770  0.00  0.00    +0.000 OA
ATOM     22  C   UNL     1       3.110   5.958  19.005  0.00  0.00    +0.000 C 
BRANCH  22  23
ATOM     23  C   UNL     1       2.335   4.720  19.291  0.00  0.00    +0.000 A 
ATOM     24  C   UNL     1       1.671   4.021  18.267  0.00  0.00    +0.000 A 
ATOM     25  C   UNL     1       0.857   2.929  18.574  0.00  0.00    +0.000 A 
ATOM     26  C   UNL     1       0.742   2.508  19.896  0.00  0.00    +0.000 A 
ATOM     27  C   UNL     1       1.451   3.168  20.896  0.00  0.00    +0.000 A 
ATOM     28  F   UNL     1       1.345   2.743  22.161  0.00  0.00    +0.000 F 
ATOM     29  C   UNL     1       2.251   4.268  20.608  0.00  0.00    +0.000 A 
ENDBRANCH  22  23
ENDBRANCH   1  22
TORSDOF 4
ENDMDL
MODEL 8
REMARK VINA RESULT:      -8.6      0.809      1.422
REMARK  Name = 
REMARK  4 active torsions:
REMARK  status: ('A' for Active; 'I' for Inactive)
REMARK    1  A    between atoms: C_2  and  C_3
REMARK    2  A    between atoms: C_2  and  C_23
REMARK    3  A    between atoms: C_6  and  N_7
REMARK    4  A    between atoms: C_11  and  C_13
REMARK                            x       y       z     vdW  Elec       q    Type
REMARK                         _______ _______ _______ _____ _____    ______ ____
ROOT
ATOM      1  C   UNL     1       2.333   7.489  18.899  0.00  0.00    +0.000 A 
ATOM      2  C   UNL     1       2.364   8.384  17.832  0.00  0.00    +0.000 A 
ATOM      3  C   UNL     1       1.774   9.650  17.967  0.00  0.00    +0.000 A 
ATOM      4  C   UNL     1       1.139  10.059  19.152  0.00  0.00    +0.000 A 
ATOM      5  C   UNL     1       1.174   9.153  20.221  0.00  0.00    +0.000 A 
ATOM      6  C   UNL     1       1.780   7.899  20.111  0.00  0.00    +0.000 A 
ENDROOT
BRANCH   4   7
ATOM      7  N   UNL     1       0.517  11.287  19.263  0.00  0.00    +0.000 N 
ATOM      8  C   UNL     1      -0.553  11.541  20.253  0.00  0.00    +0.000 C 
ATOM      9  C   UNL     1      -0.198  12.748  21.154  0.00  0.00    +0.000 C 
ATOM     10  N   UNL     1       0.235  13.910  20.367  0.00  0.00    +0.000 N 
ATOM     11  C   UNL     1      -0.359  15.145  20.601  0.00  0.00    +0.000 C 
ATOM     12  O   UNL     1      -1.167  15.323  21.514  0.00  0.00    +0.000 OA
ATOM     13  C   UNL     1       1.354  13.599  19.466  0.00  0.00    +0.000 C 
ATOM     14  C   UNL     1       0.946  12.474  18.499  0.00  0.00    +0.000 C 
BRANCH  11  15
ATOM     15  C   UNL     1      -0.029  16.322  19.748  0.00  0.00    +0.000 A 
ATOM     16  C   UNL     1      -0.653  16.552  18.520  0.00  0.00    +0.000 A 
ATOM     17  C   UNL     1      -0.261  17.630  17.724  0.00  0.00    +0.000 A 
ATOM     18  C   UNL     1       0.692  18.531  18.192  0.00  0.00    +0.000 A 
ATOM     19  C   UNL     1       1.248  18.363  19.460  0.00  0.00    +0.000 A 
ATOM     20  C   UNL     1       0.892  17.258  20.237  0.00  0.00    +0.000 A 
ENDBRANCH  11  15
ENDBRANCH   4   7
BRANCH   1  22
ATOM     21  O   UNL     1       3.853   5.929  17.997  0.00  0.00    +0.000 OA
ATOM     22  C   UNL     1       2.882   6.116  18.719  0.00  0.00    +0.000 C 
BRANCH  22  23
ATOM     23  C   UNL     1       2.255   4.963  19.422  0.00  0.00    +0.000 A 
ATOM     24  C   UNL     1       2.463   4.745  20.796  0.00  0.00    +0.000 A 
ATOM     25  C   UNL     1       1.959   3.596  21.408  0.00  0.00    +0.000 A 
ATOM     26  C   UNL     1       1.210   2.691  20.662  0.00  0.00    +0.000 A 
ATOM     27  C   UNL     1       0.957   2.946  19.317  0.00  0.00    +0.000 A 
ATOM     28  F   UNL     1       0.221   2.076  18.614  0.00  0.00    +0.000 F 
ATOM     29  C   UNL     1       1.467   4.076  18.688  0.00  0.00    +0.000 A 
ENDBRANCH  22  23
ENDBRANCH   1  22
TORSDOF 4
ENDMDL
MODEL 9
REMARK VINA RESULT:      -8.6      3.736      4.954
REMARK  Name = 
REMARK  4 active torsions:
REMARK  status: ('A' for Active; 'I' for Inactive)
REMARK    1  A    between atoms: C_2  and  C_3
REMARK    2  A    between atoms: C_2  and  C_23
REMARK    3  A    between atoms: C_6  and  N_7
REMARK    4  A    between atoms: C_11  and  C_13
REMARK                            x       y       z     vdW  Elec       q    Type
REMARK                         _______ _______ _______ _____ _____    ______ ____
ROOT
ATOM      1  C   UNL     1       2.818   6.429  18.786  0.00  0.00    +0.000 A 
ATOM      2  C   UNL     1       2.769   7.438  17.828  0.00  0.00    +0.000 A 
ATOM      3  C   UNL     1       2.136   8.654  18.127  0.00  0.00    +0.000 A 
ATOM      4  C   UNL     1       1.535   8.900  19.373  0.00  0.00    +0.000 A 
ATOM      5  C   UNL     1       1.650   7.882  20.330  0.00  0.00    +0.000 A 
ATOM      6  C   UNL     1       2.300   6.676  20.056  0.00  0.00    +0.000 A 
ENDROOT
BRANCH   4   7
ATOM      7  N   UNL     1       0.872  10.079  19.645  0.00  0.00    +0.000 N 
ATOM      8  C   UNL     1      -0.011  10.733  18.653  0.00  0.00    +0.000 C 
ATOM      9  C   UNL     1      -1.428  10.955  19.234  0.00  0.00    +0.000 C 
ATOM     10  N   UNL     1      -1.383  11.582  20.562  0.00  0.00    +0.000 N 
ATOM     11  C   UNL     1      -2.158  12.711  20.804  0.00  0.00    +0.000 C 
ATOM     12  O   UNL     1      -2.959  13.147  19.976  0.00  0.00    +0.000 OA
ATOM     13  C   UNL     1      -0.551  10.833  21.515  0.00  0.00    +0.000 C 
ATOM     14  C   UNL     1       0.885  10.718  20.974  0.00  0.00    +0.000 C 
BRANCH  11  15
ATOM     15  C   UNL     1      -2.055  13.442  22.098  0.00  0.00    +0.000 A 
ATOM     16  C   UNL     1      -1.010  14.327  22.374  0.00  0.00    +0.000 A 
ATOM     17  C   UNL     1      -0.917  14.935  23.627  0.00  0.00    +0.000 A 
ATOM     18  C   UNL     1      -1.916  14.731  24.576  0.00  0.00    +0.000 A 
ATOM     19  C   UNL     1      -3.013  13.926  24.272  0.00  0.00    +0.000 A 
ATOM     20  C   UNL     1      -3.082  13.277  23.036  0.00  0.00    +0.000 A 
ENDBRANCH  11  15
ENDBRANCH   4   7
BRANCH   1  22
ATOM     21  O   UNL     1       2.733   4.092  18.487  0.00  0.00    +0.000 OA
ATOM     22  C   UNL     1       3.412   5.109  18.432  0.00  0.00    +0.000 C 
BRANCH  22  23
ATOM     23  C   UNL     1       4.835   5.023  18.001  0.00  0.00    +0.000 A 
ATOM     24  C   UNL     1       5.186   4.510  16.739  0.00  0.00    +0.000 A 
ATOM     25  C   UNL     1       6.529   4.333  16.403  0.00  0.00    +0.000 A 
ATOM     26  C   UNL     1       7.520   4.709  17.305  0.00  0.00    +0.000 A 
ATOM     27  C   UNL     1       7.164   5.272  18.527  0.00  0.00    +0.000 A 
ATOM     28  F   UNL     1       8.127   5.645  19.380  0.00  0.00    +0.000 F 
ATOM     29  C   UNL     1       5.831   5.438  18.885  0.00  0.00    +0.000 A 
ENDBRANCH  22  23
ENDBRANCH   1  22
TORSDOF 4
ENDMDL
