MODEL 1
REMARK VINA RESULT:      -8.4      0.000      0.000
REMARK  Name = 
REMARK  5 active torsions:
REMARK  status: ('A' for Active; 'I' for Inactive)
REMARK    1  A    between atoms: C_1  and  N_2
REMARK    2  A    between atoms: C_5  and  C_6
REMARK    3  A    between atoms: N_8  and  C_9
REMARK    4  A    between atoms: C_13  and  C_14
REMARK    5  A    between atoms: C_17  and  C_18
REMARK                            x       y       z     vdW  Elec       q    Type
REMARK                         _______ _______ _______ _____ _____    ______ ____
ROOT
ATOM      1  C   UNL     1      -1.652  11.875  21.626  0.00  0.00    +0.000 A 
ATOM      2  C   UNL     1      -1.621  11.550  22.982  0.00  0.00    +0.000 A 
ATOM      3  C   UNL     1      -0.879  10.471  23.433  0.00  0.00    +0.000 A 
ATOM      4  C   UNL     1      -0.157   9.705  22.525  0.00  0.00    +0.000 A 
ATOM      5  C   UNL     1      -0.134  10.004  21.147  0.00  0.00    +0.000 A 
ATOM      6  C   UNL     1      -0.922  11.089  20.712  0.00  0.00    +0.000 A 
ENDROOT
BRANCH   5   7
ATOM      7  C   UNL     1       0.750   9.222  20.239  0.00  0.00    +0.000 A 
ATOM      8  C   UNL     1       1.088   9.628  18.936  0.00  0.00    +0.000 A 
ATOM      9  C   UNL     1       1.928   8.845  18.111  0.00  0.00    +0.000 A 
ATOM     10  C   UNL     1       2.448   7.636  18.576  0.00  0.00    +0.000 A 
ATOM     11  C   UNL     1       2.125   7.236  19.875  0.00  0.00    +0.000 A 
ATOM     12  C   UNL     1       1.305   8.013  20.689  0.00  0.00    +0.000 A 
BRANCH  10  13
ATOM     13  C   UNL     1       3.381   6.786  17.845  0.00  0.00    +0.000 A 
ATOM     14  N   UNL     1       4.348   7.265  17.078  0.00  0.00    +0.000 NA
ATOM     15  C   UNL     1       4.986   6.192  16.531  0.00  0.00    +0.000 A 
ATOM     16  C   UNL     1       6.050   6.180  15.624  0.00  0.00    +0.000 A 
ATOM     17  C   UNL     1       6.500   4.941  15.181  0.00  0.00    +0.000 A 
ATOM     18  F   UNL     1       7.501   4.896  14.290  0.00  0.00    +0.000 F 
ATOM     19  C   UNL     1       5.936   3.751  15.631  0.00  0.00    +0.000 A 
ATOM     20  C   UNL     1       4.887   3.748  16.566  0.00  0.00    +0.000 A 
ATOM     21  C   UNL     1       4.433   5.000  16.988  0.00  0.00    +0.000 A 
ATOM     22  N   UNL     1       3.443   5.405  17.860  0.00  0.00    +0.000 N 
ATOM     23  H   UNL     1       2.867   4.802  18.423  0.00  0.00    +0.000 HD
ENDBRANCH  10  13
ENDBRANCH   5   7
BRANCH   1  26
ATOM     24  C   UNL     1      -3.773  13.117  21.226  0.00  0.00    +0.000 C 
ATOM     25  O   UNL     1      -4.544  12.347  21.798  0.00  0.00    +0.000 OA
ATOM     26  N   UNL     1      -2.398  12.973  21.137  0.00  0.00    +0.000 N 
ATOM     27  H   UNL     1      -1.865  13.760  20.795  0.00  0.00    +0.000 HD
BRANCH  24  32
ATOM     28  C   UNL     1      -6.147  18.194  20.034  0.00  0.00    +0.000 C 
ATOM     29  N   UNL     1      -5.571  16.987  20.633  0.00  0.00    +0.000 NA
ATOM     30  C   UNL     1      -6.365  15.813  20.244  0.00  0.00    +0.000 C 
ATOM     31  C   UNL     1      -5.823  14.551  20.908  0.00  0.00    +0.000 C 
ATOM     32  C   UNL     1      -4.344  14.361  20.569  0.00  0.00    +0.000 C 
ATOM     33  C   UNL     1      -3.534  15.614  20.895  0.00  0.00    +0.000 C 
ATOM     34  C   UNL     1      -4.164  16.843  20.234  0.00  0.00    +0.000 C 
ENDBRANCH  24  32
ENDBRANCH   1  26
TORSDOF 4
ENDMDL
MODEL 2
REMARK VINA RESULT:      -8.4      4.760     12.047
REMARK  Name = 
REMARK  5 active torsions:
REMARK  status: ('A' for Active; 'I' for Inactive)
REMARK    1  A    between atoms: C_1  and  N_2
REMARK    2  A    between atoms: C_5  and  C_6
REMARK    3  A    between atoms: N_8  and  C_9
REMARK    4  A    between atoms: C_13  and  C_14
REMARK    5  A    between atoms: C_17  and  C_18
REMARK                            x       y       z     vdW  Elec       q    Type
REMARK                         _______ _______ _______ _____ _____    ______ ____
ROOT
ATOM      1  C   UNL     1       3.216   5.123  18.783  0.00  0.00    +0.000 A 
ATOM      2  C   UNL     1       2.660   4.083  19.529  0.00  0.00    +0.000 A 
ATOM      3  C   UNL     1       1.777   4.349  20.562  0.00  0.00    +0.000 A 
ATOM      4  C   UNL     1       1.439   5.665  20.856  0.00  0.00    +0.000 A 
ATOM      5  C   UNL     1       1.952   6.751  20.119  0.00  0.00    +0.000 A 
ATOM      6  C   UNL     1       2.873   6.453  19.093  0.00  0.00    +0.000 A 
ENDROOT
BRANCH   5   7
ATOM      7  C   UNL     1       1.465   8.129  20.402  0.00  0.00    +0.000 A 
ATOM      8  C   UNL     1       1.313   9.123  19.419  0.00  0.00    +0.000 A 
ATOM      9  C   UNL     1       0.851  10.420  19.742  0.00  0.00    +0.000 A 
ATOM     10  C   UNL     1       0.531  10.748  21.061  0.00  0.00    +0.000 A 
ATOM     11  C   UNL     1       0.667   9.758  22.038  0.00  0.00    +0.000 A 
ATOM     12  C   UNL     1       1.114   8.480  21.716  0.00  0.00    +0.000 A 
BRANCH  10  13
ATOM     13  C   UNL     1      -0.025  12.024  21.498  0.00  0.00    +0.000 A 
ATOM     14  N   UNL     1      -0.456  12.244  22.730  0.00  0.00    +0.000 NA
ATOM     15  C   UNL     1      -0.937  13.518  22.759  0.00  0.00    +0.000 A 
ATOM     16  C   UNL     1      -1.532  14.201  23.824  0.00  0.00    +0.000 A 
ATOM     17  C   UNL     1      -1.980  15.495  23.584  0.00  0.00    +0.000 A 
ATOM     18  F   UNL     1      -2.580  16.168  24.577  0.00  0.00    +0.000 F 
ATOM     19  C   UNL     1      -1.829  16.107  22.343  0.00  0.00    +0.000 A 
ATOM     20  C   UNL     1      -1.205  15.444  21.273  0.00  0.00    +0.000 A 
ATOM     21  C   UNL     1      -0.775  14.137  21.524  0.00  0.00    +0.000 A 
ATOM     22  N   UNL     1      -0.150  13.181  20.751  0.00  0.00    +0.000 N 
ATOM     23  H   UNL     1       0.172  13.302  19.805  0.00  0.00    +0.000 HD
ENDBRANCH  10  13
ENDBRANCH   5   7
BRANCH   1  26
ATOM     24  C   UNL     1       5.430   4.453  17.858  0.00  0.00    +0.000 C 
ATOM     25  O   UNL     1       5.984   4.156  18.916  0.00  0.00    +0.000 OA
ATOM     26  N   UNL     1       4.119   4.881  17.721  0.00  0.00    +0.000 N 
ATOM     27  H   UNL     1       3.734   4.923  16.788  0.00  0.00    +0.000 HD
BRANCH  24  32
ATOM     28  C   UNL     1       7.619   5.018  12.594  0.00  0.00    +0.000 C 
ATOM     29  N   UNL     1       6.894   5.124  13.863  0.00  0.00    +0.000 NA
ATOM     30  C   UNL     1       6.118   3.897  14.095  0.00  0.00    +0.000 C 
ATOM     31  C   UNL     1       5.303   4.009  15.379  0.00  0.00    +0.000 C 
ATOM     32  C   UNL     1       6.215   4.324  16.565  0.00  0.00    +0.000 C 
ATOM     33  C   UNL     1       7.083   5.550  16.289  0.00  0.00    +0.000 C 
ATOM     34  C   UNL     1       7.832   5.385  14.964  0.00  0.00    +0.000 C 
ENDBRANCH  24  32
ENDBRANCH   1  26
TORSDOF 4
ENDMDL
MODEL 3
REMARK VINA RESULT:      -8.3      4.810     11.943
REMARK  Name = 
REMARK  5 active torsions:
REMARK  status: ('A' for Active; 'I' for Inactive)
REMARK    1  A    between atoms: C_1  and  N_2
REMARK    2  A    between atoms: C_5  and  C_6
REMARK    3  A    between atoms: N_8  and  C_9
REMARK    4  A    between atoms: C_13  and  C_14
REMARK    5  A    between atoms: C_17  and  C_18
REMARK                            x       y       z     vdW  Elec       q    Type
REMARK                         _______ _______ _______ _____ _____    ______ ____
ROOT
ATOM      1  C   UNL     1       3.110   4.982  18.682  0.00  0.00    +0.000 A 
ATOM      2  C   UNL     1       2.483   3.927  19.345  0.00  0.00    +0.000 A 
ATOM      3  C   UNL     1       1.584   4.171  20.370  0.00  0.00    +0.000 A 
ATOM      4  C   UNL     1       1.303   5.482  20.740  0.00  0.00    +0.000 A 
ATOM      5  C   UNL     1       1.889   6.585  20.087  0.00  0.00    +0.000 A 
ATOM      6  C   UNL     1       2.823   6.306  19.068  0.00  0.00    +0.000 A 
ENDROOT
BRANCH   5   7
ATOM      7  C   UNL     1       1.463   7.966  20.446  0.00  0.00    +0.000 A 
ATOM      8  C   UNL     1       1.342   9.014  19.517  0.00  0.00    +0.000 A 
ATOM      9  C   UNL     1       0.937  10.310  19.911  0.00  0.00    +0.000 A 
ATOM     10  C   UNL     1       0.644  10.583  21.249  0.00  0.00    +0.000 A 
ATOM     11  C   UNL     1       0.749   9.540  22.172  0.00  0.00    +0.000 A 
ATOM     12  C   UNL     1       1.139   8.262  21.780  0.00  0.00    +0.000 A 
BRANCH  10  13
ATOM     13  C   UNL     1       0.146  11.857  21.756  0.00  0.00    +0.000 A 
ATOM     14  N   UNL     1       0.665  13.025  21.414  0.00  0.00    +0.000 NA
ATOM     15  C   UNL     1      -0.020  13.979  22.105  0.00  0.00    +0.000 A 
ATOM     16  C   UNL     1       0.179  15.363  22.112  0.00  0.00    +0.000 A 
ATOM     17  C   UNL     1      -0.637  16.123  22.942  0.00  0.00    +0.000 A 
ATOM     18  F   UNL     1      -0.453  17.451  22.992  0.00  0.00    +0.000 F 
ATOM     19  C   UNL     1      -1.631  15.545  23.725  0.00  0.00    +0.000 A 
ATOM     20  C   UNL     1      -1.863  14.159  23.705  0.00  0.00    +0.000 A 
ATOM     21  C   UNL     1      -1.024  13.406  22.879  0.00  0.00    +0.000 A 
ATOM     22  N   UNL     1      -0.927  12.057  22.604  0.00  0.00    +0.000 N 
ATOM     23  H   UNL     1      -1.539  11.337  22.951  0.00  0.00    +0.000 HD
ENDBRANCH  10  13
ENDBRANCH   5   7
BRANCH   1  26
ATOM     24  C   UNL     1       5.365   4.424  17.783  0.00  0.00    +0.000 C 
ATOM     25  O   UNL     1       5.934   4.201  18.851  0.00  0.00    +0.000 OA
ATOM     26  N   UNL     1       4.029   4.761  17.630  0.00  0.00    +0.000 N 
ATOM     27  H   UNL     1       3.646   4.746  16.695  0.00  0.00    +0.000 HD
BRANCH  24  32
ATOM     28  C   UNL     1       7.660   5.068  12.573  0.00  0.00    +0.000 C 
ATOM     29  N   UNL     1       6.923   5.166  13.836  0.00  0.00    +0.000 NA
ATOM     30  C   UNL     1       6.076   3.977  14.009  0.00  0.00    +0.000 C 
ATOM     31  C   UNL     1       5.250   4.085  15.287  0.00  0.00    +0.000 C 
ATOM     32  C   UNL     1       6.161   4.302  16.496  0.00  0.00    +0.000 C 
ATOM     33  C   UNL     1       7.100   5.486  16.279  0.00  0.00    +0.000 C 
ATOM     34  C   UNL     1       7.858   5.330  14.958  0.00  0.00    +0.000 C 
ENDBRANCH  24  32
ENDBRANCH   1  26
TORSDOF 4
ENDMDL
MODEL 4
REMARK VINA RESULT:      -8.3      1.935      2.436
REMARK  Name = 
REMARK  5 active torsions:
REMARK  status: ('A' for Active; 'I' for Inactive)
REMARK    1  A    between atoms: C_1  and  N_2
REMARK    2  A    between atoms: C_5  and  C_6
REMARK    3  A    between atoms: N_8  and  C_9
REMARK    4  A    between atoms: C_13  and  C_14
REMARK    5  A    between atoms: C_17  and  C_18
REMARK                            x       y       z     vdW  Elec       q    Type
REMARK                         _______ _______ _______ _____ _____    ______ ____
ROOT
ATOM      1  C   UNL     1      -0.716  11.975  21.582  0.00  0.00    +0.000 A 
ATOM      2  C   UNL     1      -1.199  11.495  22.799  0.00  0.00    +0.000 A 
ATOM      3  C   UNL     1      -0.959  10.187  23.188  0.00  0.00    +0.000 A 
ATOM      4  C   UNL     1      -0.227   9.346  22.358  0.00  0.00    +0.000 A 
ATOM      5  C   UNL     1       0.306   9.787  21.130  0.00  0.00    +0.000 A 
ATOM      6  C   UNL     1       0.020  11.113  20.744  0.00  0.00    +0.000 A 
ENDROOT
BRANCH   5   7
ATOM      7  C   UNL     1       1.181   8.879  20.337  0.00  0.00    +0.000 A 
ATOM      8  C   UNL     1       1.641   7.634  20.801  0.00  0.00    +0.000 A 
ATOM      9  C   UNL     1       2.475   6.811  20.010  0.00  0.00    +0.000 A 
ATOM     10  C   UNL     1       2.866   7.221  18.734  0.00  0.00    +0.000 A 
ATOM     11  C   UNL     1       2.400   8.451  18.264  0.00  0.00    +0.000 A 
ATOM     12  C   UNL     1       1.571   9.255  19.042  0.00  0.00    +0.000 A 
BRANCH  10  13
ATOM     13  C   UNL     1       3.658   6.424  17.803  0.00  0.00    +0.000 A 
ATOM     14  N   UNL     1       4.395   6.955  16.840  0.00  0.00    +0.000 NA
ATOM     15  C   UNL     1       4.955   5.919  16.154  0.00  0.00    +0.000 A 
ATOM     16  C   UNL     1       5.784   5.965  15.029  0.00  0.00    +0.000 A 
ATOM     17  C   UNL     1       6.194   4.753  14.487  0.00  0.00    +0.000 A 
ATOM     18  F   UNL     1       6.968   4.762  13.391  0.00  0.00    +0.000 F 
ATOM     19  C   UNL     1       5.820   3.534  15.044  0.00  0.00    +0.000 A 
ATOM     20  C   UNL     1       5.013   3.473  16.192  0.00  0.00    +0.000 A 
ATOM     21  C   UNL     1       4.593   4.699  16.716  0.00  0.00    +0.000 A 
ATOM     22  N   UNL     1       3.805   5.050  17.793  0.00  0.00    +0.000 N 
ATOM     23  H   UNL     1       3.408   4.416  18.468  0.00  0.00    +0.000 HD
ENDBRANCH  10  13
ENDBRANCH   5   7
BRANCH   1  26
ATOM     24  C   UNL     1      -0.332  14.434  21.685  0.00  0.00    +0.000 C 
ATOM     25  O   UNL     1       0.547  14.443  22.546  0.00  0.00    +0.000 OA
ATOM     26  N   UNL     1      -0.944  13.306  21.160  0.00  0.00    +0.000 N 
ATOM     27  H   UNL     1      -1.520  13.423  20.339  0.00  0.00    +0.000 HD
BRANCH  24  32
ATOM     28  C   UNL     1      -2.782  18.631  18.650  0.00  0.00    +0.000 C 
ATOM     29  N   UNL     1      -2.330  17.372  19.249  0.00  0.00    +0.000 NA
ATOM     30  C   UNL     1      -0.878  17.233  19.074  0.00  0.00    +0.000 C 
ATOM     31  C   UNL     1      -0.393  15.899  19.634  0.00  0.00    +0.000 C 
ATOM     32  C   UNL     1      -0.793  15.758  21.102  0.00  0.00    +0.000 C 
ATOM     33  C   UNL     1      -2.290  15.988  21.295  0.00  0.00    +0.000 C 
ATOM     34  C   UNL     1      -2.709  17.320  20.669  0.00  0.00    +0.000 C 
ENDBRANCH  24  32
ENDBRANCH   1  26
TORSDOF 4
ENDMDL
MODEL 5
REMARK VINA RESULT:      -8.3      3.037      3.672
REMARK  Name = 
REMARK  5 active torsions:
REMARK  status: ('A' for Active; 'I' for Inactive)
REMARK    1  A    between atoms: C_1  and  N_2
REMARK    2  A    between atoms: C_5  and  C_6
REMARK    3  A    between atoms: N_8  and  C_9
REMARK    4  A    between atoms: C_13  and  C_14
REMARK    5  A    between atoms: C_17  and  C_18
REMARK                            x       y       z     vdW  Elec       q    Type
REMARK                         _______ _______ _______ _____ _____    ______ ____
ROOT
ATOM      1  C   UNL     1      -0.813  12.943  19.901  0.00  0.00    +0.000 A 
ATOM      2  C   UNL     1      -0.006  13.942  19.357  0.00  0.00    +0.000 A 
ATOM      3  C   UNL     1       1.215  13.630  18.782  0.00  0.00    +0.000 A 
ATOM      4  C   UNL     1       1.639  12.306  18.746  0.00  0.00    +0.000 A 
ATOM      5  C   UNL     1       0.852  11.255  19.259  0.00  0.00    +0.000 A 
ATOM      6  C   UNL     1      -0.372  11.606  19.866  0.00  0.00    +0.000 A 
ENDROOT
BRANCH   5   7
ATOM      7  C   UNL     1       1.303   9.846  19.088  0.00  0.00    +0.000 A 
ATOM      8  C   UNL     1       1.740   9.307  17.865  0.00  0.00    +0.000 A 
ATOM      9  C   UNL     1       2.153   7.960  17.754  0.00  0.00    +0.000 A 
ATOM     10  C   UNL     1       2.137   7.122  18.872  0.00  0.00    +0.000 A 
ATOM     11  C   UNL     1       1.717   7.658  20.091  0.00  0.00    +0.000 A 
ATOM     12  C   UNL     1       1.319   8.988  20.199  0.00  0.00    +0.000 A 
BRANCH  10  13
ATOM     13  C   UNL     1       2.611   5.743  18.893  0.00  0.00    +0.000 A 
ATOM     14  N   UNL     1       3.274   5.220  19.912  0.00  0.00    +0.000 NA
ATOM     15  C   UNL     1       3.586   3.939  19.566  0.00  0.00    +0.000 A 
ATOM     16  C   UNL     1       4.312   2.992  20.294  0.00  0.00    +0.000 A 
ATOM     17  C   UNL     1       4.530   1.755  19.696  0.00  0.00    +0.000 A 
ATOM     18  F   UNL     1       5.246   0.833  20.356  0.00  0.00    +0.000 F 
ATOM     19  C   UNL     1       4.031   1.452  18.433  0.00  0.00    +0.000 A 
ATOM     20  C   UNL     1       3.273   2.384  17.704  0.00  0.00    +0.000 A 
ATOM     21  C   UNL     1       3.078   3.628  18.309  0.00  0.00    +0.000 A 
ATOM     22  N   UNL     1       2.422   4.778  17.921  0.00  0.00    +0.000 N 
ATOM     23  H   UNL     1       1.885   4.898  17.078  0.00  0.00    +0.000 HD
ENDBRANCH  10  13
ENDBRANCH   5   7
BRANCH   1  26
ATOM     24  C   UNL     1      -2.433  12.928  21.793  0.00  0.00    +0.000 C 
ATOM     25  O   UNL     1      -1.708  12.422  22.648  0.00  0.00    +0.000 OA
ATOM     26  N   UNL     1      -2.065  13.233  20.492  0.00  0.00    +0.000 N 
ATOM     27  H   UNL     1      -2.696  13.803  19.947  0.00  0.00    +0.000 HD
BRANCH  24  32
ATOM     28  C   UNL     1      -7.913  12.959  23.467  0.00  0.00    +0.000 C 
ATOM     29  N   UNL     1      -6.525  12.650  23.111  0.00  0.00    +0.000 NA
ATOM     30  C   UNL     1      -6.298  12.951  21.691  0.00  0.00    +0.000 C 
ATOM     31  C   UNL     1      -4.877  12.577  21.281  0.00  0.00    +0.000 C 
ATOM     32  C   UNL     1      -3.859  13.290  22.170  0.00  0.00    +0.000 C 
ATOM     33  C   UNL     1      -4.147  13.046  23.650  0.00  0.00    +0.000 C 
ATOM     34  C   UNL     1      -5.601  13.398  23.975  0.00  0.00    +0.000 C 
ENDBRANCH  24  32
ENDBRANCH   1  26
TORSDOF 4
ENDMDL
MODEL 6
REMARK VINA RESULT:      -8.1      4.757     11.914
REMARK  Name = 
REMARK  5 active torsions:
REMARK  status: ('A' for Active; 'I' for Inactive)
REMARK    1  A    between atoms: C_1  and  N_2
REMARK    2  A    between atoms: C_5  and  C_6
REMARK    3  A    between atoms: N_8  and  C_9
REMARK    4  A    between atoms: C_13  and  C_14
REMARK    5  A    between atoms: C_17  and  C_18
REMARK                            x       y       z     vdW  Elec       q    Type
REMARK                         _______ _______ _______ _____ _____    ______ ____
ROOT
ATOM      1  C   UNL     1       3.225   4.942  18.737  0.00  0.00    +0.000 A 
ATOM      2  C   UNL     1       2.691   3.905  19.502  0.00  0.00    +0.000 A 
ATOM      3  C   UNL     1       1.837   4.173  20.558  0.00  0.00    +0.000 A 
ATOM      4  C   UNL     1       1.507   5.490  20.858  0.00  0.00    +0.000 A 
ATOM      5  C   UNL     1       1.998   6.574  20.102  0.00  0.00    +0.000 A 
ATOM      6  C   UNL     1       2.890   6.273  19.052  0.00  0.00    +0.000 A 
ENDROOT
BRANCH   5   7
ATOM      7  C   UNL     1       1.518   7.953  20.395  0.00  0.00    +0.000 A 
ATOM      8  C   UNL     1       1.178   8.407  21.681  0.00  0.00    +0.000 A 
ATOM      9  C   UNL     1       0.722   9.727  21.904  0.00  0.00    +0.000 A 
ATOM     10  C   UNL     1       0.599  10.622  20.839  0.00  0.00    +0.000 A 
ATOM     11  C   UNL     1       0.950  10.178  19.562  0.00  0.00    +0.000 A 
ATOM     12  C   UNL     1       1.406   8.881  19.346  0.00  0.00    +0.000 A 
BRANCH  10  13
ATOM     13  C   UNL     1       0.213  12.023  20.961  0.00  0.00    +0.000 A 
ATOM     14  N   UNL     1       0.053  12.632  22.125  0.00  0.00    +0.000 NA
ATOM     15  C   UNL     1      -0.342  13.908  21.853  0.00  0.00    +0.000 A 
ATOM     16  C   UNL     1      -0.671  14.928  22.749  0.00  0.00    +0.000 A 
ATOM     17  C   UNL     1      -1.087  16.142  22.213  0.00  0.00    +0.000 A 
ATOM     18  F   UNL     1      -1.436  17.133  23.047  0.00  0.00    +0.000 F 
ATOM     19  C   UNL     1      -1.156  16.353  20.839  0.00  0.00    +0.000 A 
ATOM     20  C   UNL     1      -0.799  15.346  19.927  0.00  0.00    +0.000 A 
ATOM     21  C   UNL     1      -0.400  14.126  20.480  0.00  0.00    +0.000 A 
ATOM     22  N   UNL     1       0.003  12.925  19.934  0.00  0.00    +0.000 N 
ATOM     23  H   UNL     1       0.134  12.734  18.954  0.00  0.00    +0.000 HD
ENDBRANCH  10  13
ENDBRANCH   5   7
BRANCH   1  26
ATOM     24  C   UNL     1       5.455   4.435  17.750  0.00  0.00    +0.000 C 
ATOM     25  O   UNL     1       6.092   4.312  18.796  0.00  0.00    +0.000 OA
ATOM     26  N   UNL     1       4.098   4.697  17.651  0.00  0.00    +0.000 N 
ATOM     27  H   UNL     1       3.666   4.600  16.743  0.00  0.00    +0.000 HD
BRANCH  24  32
ATOM     28  C   UNL     1       7.566   4.945  12.448  0.00  0.00    +0.000 C 
ATOM     29  N   UNL     1       6.890   5.086  13.741  0.00  0.00    +0.000 NA
ATOM     30  C   UNL     1       5.978   3.953  13.950  0.00  0.00    +0.000 C 
ATOM     31  C   UNL     1       5.215   4.111  15.262  0.00  0.00    +0.000 C 
ATOM     32  C   UNL     1       6.187   4.266  16.431  0.00  0.00    +0.000 C 
ATOM     33  C   UNL     1       7.190   5.389  16.174  0.00  0.00    +0.000 C 
ATOM     34  C   UNL     1       7.880   5.188  14.823  0.00  0.00    +0.000 C 
ENDBRANCH  24  32
ENDBRANCH   1  26
TORSDOF 4
ENDMDL
MODEL 7
REMARK VINA RESULT:      -8.1      1.582      1.853
REMARK  Name = 
REMARK  5 active torsions:
REMARK  status: ('A' for Active; 'I' for Inactive)
REMARK    1  A    between atoms: C_1  and  N_2
REMARK    2  A    between atoms: C_5  and  C_6
REMARK    3  A    between atoms: N_8  and  C_9
REMARK    4  A    between atoms: C_13  and  C_14
REMARK    5  A    between atoms: C_17  and  C_18
REMARK                            x       y       z     vdW  Elec       q    Type
REMARK                         _______ _______ _______ _____ _____    ______ ____
ROOT
ATOM      1  C   UNL     1      -0.949  11.579  21.817  0.00  0.00    +0.000 A 
ATOM      2  C   UNL     1      -1.173  10.979  23.056  0.00  0.00    +0.000 A 
ATOM      3  C   UNL     1      -0.710   9.700  23.316  0.00  0.00    +0.000 A 
ATOM      4  C   UNL     1      -0.014   9.007  22.332  0.00  0.00    +0.000 A 
ATOM      5  C   UNL     1       0.262   9.575  21.072  0.00  0.00    +0.000 A 
ATOM      6  C   UNL     1      -0.248  10.867  20.824  0.00  0.00    +0.000 A 
ENDROOT
BRANCH   5   7
ATOM      7  C   UNL     1       1.113   8.835  20.100  0.00  0.00    +0.000 A 
ATOM      8  C   UNL     1       1.335   9.253  18.776  0.00  0.00    +0.000 A 
ATOM      9  C   UNL     1       2.148   8.510  17.890  0.00  0.00    +0.000 A 
ATOM     10  C   UNL     1       2.759   7.328  18.316  0.00  0.00    +0.000 A 
ATOM     11  C   UNL     1       2.552   6.917  19.635  0.00  0.00    +0.000 A 
ATOM     12  C   UNL     1       1.757   7.656  20.507  0.00  0.00    +0.000 A 
BRANCH  10  13
ATOM     13  C   UNL     1       3.676   6.523  17.517  0.00  0.00    +0.000 A 
ATOM     14  N   UNL     1       4.489   7.037  16.608  0.00  0.00    +0.000 NA
ATOM     15  C   UNL     1       5.159   5.995  16.041  0.00  0.00    +0.000 A 
ATOM     16  C   UNL     1       6.100   6.023  15.008  0.00  0.00    +0.000 A 
ATOM     17  C   UNL     1       6.614   4.805  14.577  0.00  0.00    +0.000 A 
ATOM     18  F   UNL     1       7.499   4.794  13.569  0.00  0.00    +0.000 F 
ATOM     19  C   UNL     1       6.231   3.599  15.158  0.00  0.00    +0.000 A 
ATOM     20  C   UNL     1       5.309   3.559  16.217  0.00  0.00    +0.000 A 
ATOM     21  C   UNL     1       4.788   4.790  16.628  0.00  0.00    +0.000 A 
ATOM     22  N   UNL     1       3.877   5.157  17.596  0.00  0.00    +0.000 N 
ATOM     23  H   UNL     1       3.436   4.541  18.259  0.00  0.00    +0.000 HD
ENDBRANCH  10  13
ENDBRANCH   5   7
BRANCH   1  26
ATOM     24  C   UNL     1      -0.603  13.987  21.285  0.00  0.00    +0.000 C 
ATOM     25  O   UNL     1       0.626  13.984  21.225  0.00  0.00    +0.000 OA
ATOM     26  N   UNL     1      -1.408  12.884  21.525  0.00  0.00    +0.000 N 
ATOM     27  H   UNL     1      -2.402  12.987  21.375  0.00  0.00    +0.000 HD
BRANCH  24  32
ATOM     28  C   UNL     1      -3.953  18.624  21.610  0.00  0.00    +0.000 C 
ATOM     29  N   UNL     1      -3.212  17.376  21.808  0.00  0.00    +0.000 NA
ATOM     30  C   UNL     1      -3.561  16.419  20.748  0.00  0.00    +0.000 C 
ATOM     31  C   UNL     1      -2.850  15.087  20.969  0.00  0.00    +0.000 C 
ATOM     32  C   UNL     1      -1.338  15.296  21.055  0.00  0.00    +0.000 C 
ATOM     33  C   UNL     1      -0.981  16.353  22.097  0.00  0.00    +0.000 C 
ATOM     34  C   UNL     1      -1.766  17.642  21.839  0.00  0.00    +0.000 C 
ENDBRANCH  24  32
ENDBRANCH   1  26
TORSDOF 4
ENDMDL
MODEL 8
REMARK VINA RESULT:      -8.0      4.749     12.217
REMARK  Name = 
REMARK  5 active torsions:
REMARK  status: ('A' for Active; 'I' for Inactive)
REMARK    1  A    between atoms: C_1  and  N_2
REMARK    2  A    between atoms: C_5  and  C_6
REMARK    3  A    between atoms: N_8  and  C_9
REMARK    4  A    between atoms: C_13  and  C_14
REMARK    5  A    between atoms: C_17  and  C_18
REMARK                            x       y       z     vdW  Elec       q    Type
REMARK                         _______ _______ _______ _____ _____    ______ ____
ROOT
ATOM      1  C   UNL     1       3.174   5.251  18.405  0.00  0.00    +0.000 A 
ATOM      2  C   UNL     1       3.003   4.153  19.247  0.00  0.00    +0.000 A 
ATOM      3  C   UNL     1       2.381   4.295  20.477  0.00  0.00    +0.000 A 
ATOM      4  C   UNL     1       1.921   5.546  20.874  0.00  0.00    +0.000 A 
ATOM      5  C   UNL     1       2.045   6.684  20.051  0.00  0.00    +0.000 A 
ATOM      6  C   UNL     1       2.710   6.516  18.818  0.00  0.00    +0.000 A 
ENDROOT
BRANCH   5   7
ATOM      7  C   UNL     1       1.430   7.971  20.476  0.00  0.00    +0.000 A 
ATOM      8  C   UNL     1       1.152   9.033  19.598  0.00  0.00    +0.000 A 
ATOM      9  C   UNL     1       0.570  10.239  20.054  0.00  0.00    +0.000 A 
ATOM     10  C   UNL     1       0.255  10.404  21.404  0.00  0.00    +0.000 A 
ATOM     11  C   UNL     1       0.517   9.346  22.277  0.00  0.00    +0.000 A 
ATOM     12  C   UNL     1       1.081   8.157  21.823  0.00  0.00    +0.000 A 
BRANCH  10  13
ATOM     13  C   UNL     1      -0.415  11.569  21.973  0.00  0.00    +0.000 A 
ATOM     14  N   UNL     1      -1.484  11.484  22.748  0.00  0.00    +0.000 NA
ATOM     15  C   UNL     1      -1.853  12.760  23.055  0.00  0.00    +0.000 A 
ATOM     16  C   UNL     1      -2.942  13.193  23.816  0.00  0.00    +0.000 A 
ATOM     17  C   UNL     1      -3.125  14.565  23.949  0.00  0.00    +0.000 A 
ATOM     18  F   UNL     1      -4.176  15.014  24.651  0.00  0.00    +0.000 F 
ATOM     19  C   UNL     1      -2.252  15.482  23.371  0.00  0.00    +0.000 A 
ATOM     20  C   UNL     1      -1.136  15.060  22.629  0.00  0.00    +0.000 A 
ATOM     21  C   UNL     1      -0.975  13.679  22.489  0.00  0.00    +0.000 A 
ATOM     22  N   UNL     1      -0.042  12.894  21.843  0.00  0.00    +0.000 N 
ATOM     23  H   UNL     1       0.781  13.224  21.366  0.00  0.00    +0.000 HD
ENDBRANCH  10  13
ENDBRANCH   5   7
BRANCH   1  26
ATOM     24  C   UNL     1       5.132   5.419  16.875  0.00  0.00    +0.000 C 
ATOM     25  O   UNL     1       5.980   5.751  17.703  0.00  0.00    +0.000 OA
ATOM     26  N   UNL     1       3.802   5.134  17.143  0.00  0.00    +0.000 N 
ATOM     27  H   UNL     1       3.257   4.706  16.409  0.00  0.00    +0.000 HD
BRANCH  24  32
ATOM     28  C   UNL     1       7.194   3.665  11.825  0.00  0.00    +0.000 C 
ATOM     29  N   UNL     1       6.757   3.834  13.213  0.00  0.00    +0.000 NA
ATOM     30  C   UNL     1       7.458   4.975  13.819  0.00  0.00    +0.000 C 
ATOM     31  C   UNL     1       7.068   5.131  15.285  0.00  0.00    +0.000 C 
ATOM     32  C   UNL     1       5.552   5.272  15.423  0.00  0.00    +0.000 C 
ATOM     33  C   UNL     1       4.821   4.131  14.719  0.00  0.00    +0.000 C 
ATOM     34  C   UNL     1       5.298   4.006  13.270  0.00  0.00    +0.000 C 
ENDBRANCH  24  32
ENDBRANCH   1  26
TORSDOF 4
ENDMDL
MODEL 9
REMARK VINA RESULT:      -8.0      2.967      3.493
REMARK  Name = 
REMARK  5 active torsions:
REMARK  status: ('A' for Active; 'I' for Inactive)
REMARK    1  A    between atoms: C_1  and  N_2
REMARK    2  A    between atoms: C_5  and  C_6
REMARK    3  A    between atoms: N_8  and  C_9
REMARK    4  A    between atoms: C_13  and  C_14
REMARK    5  A    between atoms: C_17  and  C_18
REMARK                            x       y       z     vdW  Elec       q    Type
REMARK                         _______ _______ _______ _____ _____    ______ ____
ROOT
ATOM      1  C   UNL     1      -0.855  13.529  19.968  0.00  0.00    +0.000 A 
ATOM      2  C   UNL     1       0.028  14.524  19.547  0.00  0.00    +0.000 A 
ATOM      3  C   UNL     1       1.277  14.196  19.048  0.00  0.00    +0.000 A 
ATOM      4  C   UNL     1       1.655  12.861  18.965  0.00  0.00    +0.000 A 
ATOM      5  C   UNL     1       0.794  11.814  19.352  0.00  0.00    +0.000 A 
ATOM      6  C   UNL     1      -0.460  12.179  19.885  0.00  0.00    +0.000 A 
ENDROOT
BRANCH   5   7
ATOM      7  C   UNL     1       1.205  10.401  19.131  0.00  0.00    +0.000 A 
ATOM      8  C   UNL     1       1.748   9.923  17.925  0.00  0.00    +0.000 A 
ATOM      9  C   UNL     1       2.119   8.568  17.764  0.00  0.00    +0.000 A 
ATOM     10  C   UNL     1       1.953   7.661  18.814  0.00  0.00    +0.000 A 
ATOM     11  C   UNL     1       1.427   8.136  20.018  0.00  0.00    +0.000 A 
ATOM     12  C   UNL     1       1.071   9.472  20.175  0.00  0.00    +0.000 A 
BRANCH  10  13
ATOM     13  C   UNL     1       2.368   6.263  18.788  0.00  0.00    +0.000 A 
ATOM     14  N   UNL     1       3.172   5.729  19.693  0.00  0.00    +0.000 NA
ATOM     15  C   UNL     1       3.370   4.431  19.330  0.00  0.00    +0.000 A 
ATOM     16  C   UNL     1       4.171   3.466  19.948  0.00  0.00    +0.000 A 
ATOM     17  C   UNL     1       4.235   2.211  19.352  0.00  0.00    +0.000 A 
ATOM     18  F   UNL     1       5.015   1.270  19.904  0.00  0.00    +0.000 F 
ATOM     19  C   UNL     1       3.519   1.908  18.198  0.00  0.00    +0.000 A 
ATOM     20  C   UNL     1       2.686   2.859  17.584  0.00  0.00    +0.000 A 
ATOM     21  C   UNL     1       2.645   4.121  18.184  0.00  0.00    +0.000 A 
ATOM     22  N   UNL     1       1.979   5.292  17.885  0.00  0.00    +0.000 N 
ATOM     23  H   UNL     1       1.313   5.420  17.141  0.00  0.00    +0.000 HD
ENDBRANCH  10  13
ENDBRANCH   5   7
BRANCH   1  26
ATOM     24  C   UNL     1      -2.400  14.387  21.722  0.00  0.00    +0.000 C 
ATOM     25  O   UNL     1      -1.558  14.755  22.541  0.00  0.00    +0.000 OA
ATOM     26  N   UNL     1      -2.138  13.835  20.478  0.00  0.00    +0.000 N 
ATOM     27  H   UNL     1      -2.910  13.740  19.835  0.00  0.00    +0.000 HD
BRANCH  24  32
ATOM     28  C   UNL     1      -7.644  14.207  24.023  0.00  0.00    +0.000 C 
ATOM     29  N   UNL     1      -6.227  14.074  23.676  0.00  0.00    +0.000 NA
ATOM     30  C   UNL     1      -6.097  13.448  22.352  0.00  0.00    +0.000 C 
ATOM     31  C   UNL     1      -4.628  13.240  21.996  0.00  0.00    +0.000 C 
ATOM     32  C   UNL     1      -3.869  14.564  22.062  0.00  0.00    +0.000 C 
ATOM     33  C   UNL     1      -4.074  15.256  23.408  0.00  0.00    +0.000 C 
ATOM     34  C   UNL     1      -5.568  15.387  23.718  0.00  0.00    +0.000 C 
ENDBRANCH  24  32
ENDBRANCH   1  26
TORSDOF 4
ENDMDL
