MODEL 1
REMARK VINA RESULT:      -7.5      0.000      0.000
REMARK  Name = 
REMARK  2 active torsions:
REMARK  status: ('A' for Active; 'I' for Inactive)
REMARK    1  A    between atoms: C_2  and  C_4
REMARK    2  A    between atoms: C_9  and  C_10
REMARK                            x       y       z     vdW  Elec       q    Type
REMARK                         _______ _______ _______ _____ _____    ______ ____
ROOT
ATOM      1  C   UNL     1       3.348   2.676  20.260  0.00  0.00    +0.000 A 
ATOM      2  C   UNL     1       2.378   2.516  21.265  0.00  0.00    +0.000 A 
ATOM      3  C   UNL     1       1.342   3.434  21.386  0.00  0.00    +0.000 A 
ATOM      4  C   UNL     1       1.307   4.490  20.498  0.00  0.00    +0.000 A 
ATOM      5  N   UNL     1       2.214   4.668  19.516  0.00  0.00    +0.000 NA
ATOM      6  C   UNL     1       3.240   3.773  19.400  0.00  0.00    +0.000 A 
ENDROOT
BRANCH   6   7
ATOM      7  C   UNL     1       4.129   4.057  18.255  0.00  0.00    +0.000 A 
ATOM      8  C   UNL     1       3.972   3.764  16.912  0.00  0.00    +0.000 A 
ATOM      9  C   UNL     1       5.078   4.168  16.093  0.00  0.00    +0.000 A 
ATOM     10  C   UNL     1       5.307   3.996  14.706  0.00  0.00    +0.000 A 
ATOM     11  C   UNL     1       6.470   4.494  14.114  0.00  0.00    +0.000 A 
ATOM     12  C   UNL     1       7.410   5.172  14.878  0.00  0.00    +0.000 A 
ATOM     13  C   UNL     1       7.212   5.353  16.249  0.00  0.00    +0.000 A 
ATOM     14  C   UNL     1       6.045   4.834  16.846  0.00  0.00    +0.000 A 
ATOM     15  S   UNL     1       5.606   4.902  18.505  0.00  0.00    +0.000 S 
ENDBRANCH   6   7
BRANCH   1  17
ATOM     16  N   UNL     1       4.513   0.855  19.148  0.00  0.00    +0.000 N 
ATOM     17  C   UNL     1       4.476   1.713  20.216  0.00  0.00    +0.000 C 
ATOM     18  O   UNL     1       5.334   1.658  21.082  0.00  0.00    +0.000 OA
ATOM     19  H   UNL     1       5.294   0.213  19.103  0.00  0.00    +0.000 HD
ATOM     20  H   UNL     1       3.882   0.898  18.361  0.00  0.00    +0.000 HD
ENDBRANCH   1  17
TORSDOF 2
ENDMDL
MODEL 2
REMARK VINA RESULT:      -7.4      2.348      6.019
REMARK  Name = 
REMARK  2 active torsions:
REMARK  status: ('A' for Active; 'I' for Inactive)
REMARK    1  A    between atoms: C_2  and  C_4
REMARK    2  A    between atoms: C_9  and  C_10
REMARK                            x       y       z     vdW  Elec       q    Type
REMARK                         _______ _______ _______ _____ _____    ______ ____
ROOT
ATOM      1  C   UNL     1       6.746   4.896  16.273  0.00  0.00    +0.000 A 
ATOM      2  C   UNL     1       7.546   5.058  15.129  0.00  0.00    +0.000 A 
ATOM      3  C   UNL     1       7.059   4.693  13.880  0.00  0.00    +0.000 A 
ATOM      4  C   UNL     1       5.783   4.171  13.810  0.00  0.00    +0.000 A 
ATOM      5  N   UNL     1       4.984   4.013  14.885  0.00  0.00    +0.000 NA
ATOM      6  C   UNL     1       5.462   4.361  16.117  0.00  0.00    +0.000 A 
ENDROOT
BRANCH   6   7
ATOM      7  C   UNL     1       4.470   4.185  17.196  0.00  0.00    +0.000 A 
ATOM      8  C   UNL     1       3.998   3.028  17.791  0.00  0.00    +0.000 A 
ATOM      9  C   UNL     1       2.997   3.254  18.793  0.00  0.00    +0.000 A 
ATOM     10  C   UNL     1       2.250   2.335  19.570  0.00  0.00    +0.000 A 
ATOM     11  C   UNL     1       1.323   2.793  20.510  0.00  0.00    +0.000 A 
ATOM     12  C   UNL     1       1.132   4.154  20.698  0.00  0.00    +0.000 A 
ATOM     13  C   UNL     1       1.852   5.084  19.943  0.00  0.00    +0.000 A 
ATOM     14  C   UNL     1       2.774   4.617  18.984  0.00  0.00    +0.000 A 
ATOM     15  S   UNL     1       3.739   5.561  17.922  0.00  0.00    +0.000 S 
ENDBRANCH   6   7
BRANCH   1  17
ATOM     16  N   UNL     1       7.346   6.555  17.945  0.00  0.00    +0.000 N 
ATOM     17  C   UNL     1       7.334   5.230  17.593  0.00  0.00    +0.000 C 
ATOM     18  O   UNL     1       7.803   4.388  18.341  0.00  0.00    +0.000 OA
ATOM     19  H   UNL     1       7.726   6.783  18.854  0.00  0.00    +0.000 HD
ATOM     20  H   UNL     1       6.908   7.290  17.410  0.00  0.00    +0.000 HD
ENDBRANCH   1  17
TORSDOF 2
ENDMDL
MODEL 3
REMARK VINA RESULT:      -7.2      2.411      6.099
REMARK  Name = 
REMARK  2 active torsions:
REMARK  status: ('A' for Active; 'I' for Inactive)
REMARK    1  A    between atoms: C_2  and  C_4
REMARK    2  A    between atoms: C_9  and  C_10
REMARK                            x       y       z     vdW  Elec       q    Type
REMARK                         _______ _______ _______ _____ _____    ______ ____
ROOT
ATOM      1  C   UNL     1       6.728   4.905  16.258  0.00  0.00    +0.000 A 
ATOM      2  C   UNL     1       7.535   4.996  15.111  0.00  0.00    +0.000 A 
ATOM      3  C   UNL     1       7.031   4.617  13.873  0.00  0.00    +0.000 A 
ATOM      4  C   UNL     1       5.731   4.155  13.817  0.00  0.00    +0.000 A 
ATOM      5  N   UNL     1       4.926   4.066  14.895  0.00  0.00    +0.000 NA
ATOM      6  C   UNL     1       5.421   4.427  16.116  0.00  0.00    +0.000 A 
ENDROOT
BRANCH   6   7
ATOM      7  C   UNL     1       4.422   4.329  17.199  0.00  0.00    +0.000 A 
ATOM      8  C   UNL     1       3.790   5.327  17.920  0.00  0.00    +0.000 A 
ATOM      9  C   UNL     1       2.896   4.840  18.931  0.00  0.00    +0.000 A 
ATOM     10  C   UNL     1       2.124   5.539  19.890  0.00  0.00    +0.000 A 
ATOM     11  C   UNL     1       1.300   4.843  20.779  0.00  0.00    +0.000 A 
ATOM     12  C   UNL     1       1.225   3.459  20.725  0.00  0.00    +0.000 A 
ATOM     13  C   UNL     1       1.979   2.743  19.791  0.00  0.00    +0.000 A 
ATOM     14  C   UNL     1       2.820   3.448  18.907  0.00  0.00    +0.000 A 
ATOM     15  S   UNL     1       3.859   2.787  17.709  0.00  0.00    +0.000 S 
ENDBRANCH   6   7
BRANCH   1  17
ATOM     16  N   UNL     1       7.410   6.583  17.879  0.00  0.00    +0.000 N 
ATOM     17  C   UNL     1       7.333   5.250  17.568  0.00  0.00    +0.000 C 
ATOM     18  O   UNL     1       7.759   4.409  18.342  0.00  0.00    +0.000 OA
ATOM     19  H   UNL     1       7.801   6.819  18.782  0.00  0.00    +0.000 HD
ATOM     20  H   UNL     1       7.009   7.322  17.321  0.00  0.00    +0.000 HD
ENDBRANCH   1  17
TORSDOF 2
ENDMDL
MODEL 4
REMARK VINA RESULT:      -7.2      3.175      6.107
REMARK  Name = 
REMARK  2 active torsions:
REMARK  status: ('A' for Active; 'I' for Inactive)
REMARK    1  A    between atoms: C_2  and  C_4
REMARK    2  A    between atoms: C_9  and  C_10
REMARK                            x       y       z     vdW  Elec       q    Type
REMARK                         _______ _______ _______ _____ _____    ______ ____
ROOT
ATOM      1  C   UNL     1       6.075   6.530  17.634  0.00  0.00    +0.000 A 
ATOM      2  C   UNL     1       7.350   7.119  17.577  0.00  0.00    +0.000 A 
ATOM      3  C   UNL     1       8.301   6.816  18.545  0.00  0.00    +0.000 A 
ATOM      4  C   UNL     1       7.947   5.934  19.546  0.00  0.00    +0.000 A 
ATOM      5  N   UNL     1       6.738   5.342  19.624  0.00  0.00    +0.000 NA
ATOM      6  C   UNL     1       5.797   5.645  18.681  0.00  0.00    +0.000 A 
ENDROOT
BRANCH   6   7
ATOM      7  C   UNL     1       4.539   4.891  18.855  0.00  0.00    +0.000 A 
ATOM      8  C   UNL     1       3.495   5.094  19.740  0.00  0.00    +0.000 A 
ATOM      9  C   UNL     1       2.444   4.123  19.636  0.00  0.00    +0.000 A 
ATOM     10  C   UNL     1       1.258   3.967  20.394  0.00  0.00    +0.000 A 
ATOM     11  C   UNL     1       0.360   2.938  20.098  0.00  0.00    +0.000 A 
ATOM     12  C   UNL     1       0.618   2.063  19.052  0.00  0.00    +0.000 A 
ATOM     13  C   UNL     1       1.782   2.191  18.291  0.00  0.00    +0.000 A 
ATOM     14  C   UNL     1       2.693   3.220  18.603  0.00  0.00    +0.000 A 
ATOM     15  S   UNL     1       4.195   3.549  17.837  0.00  0.00    +0.000 S 
ENDBRANCH   6   7
BRANCH   1  17
ATOM     16  N   UNL     1       5.358   6.650  15.315  0.00  0.00    +0.000 N 
ATOM     17  C   UNL     1       5.070   6.939  16.623  0.00  0.00    +0.000 C 
ATOM     18  O   UNL     1       4.035   7.517  16.914  0.00  0.00    +0.000 OA
ATOM     19  H   UNL     1       4.663   6.908  14.626  0.00  0.00    +0.000 HD
ATOM     20  H   UNL     1       6.155   6.109  15.013  0.00  0.00    +0.000 HD
ENDBRANCH   1  17
TORSDOF 2
ENDMDL
MODEL 5
REMARK VINA RESULT:      -7.1      3.143      5.988
REMARK  Name = 
REMARK  2 active torsions:
REMARK  status: ('A' for Active; 'I' for Inactive)
REMARK    1  A    between atoms: C_2  and  C_4
REMARK    2  A    between atoms: C_9  and  C_10
REMARK                            x       y       z     vdW  Elec       q    Type
REMARK                         _______ _______ _______ _____ _____    ______ ____
ROOT
ATOM      1  C   UNL     1       6.053   6.485  17.579  0.00  0.00    +0.000 A 
ATOM      2  C   UNL     1       7.325   7.083  17.518  0.00  0.00    +0.000 A 
ATOM      3  C   UNL     1       8.273   6.801  18.493  0.00  0.00    +0.000 A 
ATOM      4  C   UNL     1       7.923   5.930  19.506  0.00  0.00    +0.000 A 
ATOM      5  N   UNL     1       6.717   5.331  19.588  0.00  0.00    +0.000 NA
ATOM      6  C   UNL     1       5.778   5.613  18.637  0.00  0.00    +0.000 A 
ENDROOT
BRANCH   6   7
ATOM      7  C   UNL     1       4.524   4.853  18.817  0.00  0.00    +0.000 A 
ATOM      8  C   UNL     1       4.116   3.662  18.245  0.00  0.00    +0.000 A 
ATOM      9  C   UNL     1       2.801   3.245  18.640  0.00  0.00    +0.000 A 
ATOM     10  C   UNL     1       2.028   2.130  18.232  0.00  0.00    +0.000 A 
ATOM     11  C   UNL     1       0.756   1.916  18.771  0.00  0.00    +0.000 A 
ATOM     12  C   UNL     1       0.242   2.789  19.719  0.00  0.00    +0.000 A 
ATOM     13  C   UNL     1       0.981   3.900  20.136  0.00  0.00    +0.000 A 
ATOM     14  C   UNL     1       2.256   4.121  19.578  0.00  0.00    +0.000 A 
ATOM     15  S   UNL     1       3.323   5.426  19.906  0.00  0.00    +0.000 S 
ENDBRANCH   6   7
BRANCH   1  17
ATOM     16  N   UNL     1       5.334   6.547  15.258  0.00  0.00    +0.000 N 
ATOM     17  C   UNL     1       5.049   6.872  16.558  0.00  0.00    +0.000 C 
ATOM     18  O   UNL     1       4.018   7.464  16.835  0.00  0.00    +0.000 OA
ATOM     19  H   UNL     1       4.639   6.790  14.563  0.00  0.00    +0.000 HD
ATOM     20  H   UNL     1       6.128   5.993  14.970  0.00  0.00    +0.000 HD
ENDBRANCH   1  17
TORSDOF 2
ENDMDL
MODEL 6
REMARK VINA RESULT:      -7.0      0.790      1.434
REMARK  Name = 
REMARK  2 active torsions:
REMARK  status: ('A' for Active; 'I' for Inactive)
REMARK    1  A    between atoms: C_2  and  C_4
REMARK    2  A    between atoms: C_9  and  C_10
REMARK                            x       y       z     vdW  Elec       q    Type
REMARK                         _______ _______ _______ _____ _____    ______ ____
ROOT
ATOM      1  C   UNL     1       3.453   2.644  20.371  0.00  0.00    +0.000 A 
ATOM      2  C   UNL     1       2.506   2.513  21.401  0.00  0.00    +0.000 A 
ATOM      3  C   UNL     1       1.497   3.457  21.544  0.00  0.00    +0.000 A 
ATOM      4  C   UNL     1       1.465   4.511  20.654  0.00  0.00    +0.000 A 
ATOM      5  N   UNL     1       2.351   4.662  19.648  0.00  0.00    +0.000 NA
ATOM      6  C   UNL     1       3.350   3.741  19.509  0.00  0.00    +0.000 A 
ENDROOT
BRANCH   6   7
ATOM      7  C   UNL     1       4.216   3.998  18.340  0.00  0.00    +0.000 A 
ATOM      8  C   UNL     1       5.489   4.536  18.277  0.00  0.00    +0.000 A 
ATOM      9  C   UNL     1       6.002   4.667  16.943  0.00  0.00    +0.000 A 
ATOM     10  C   UNL     1       7.222   5.214  16.477  0.00  0.00    +0.000 A 
ATOM     11  C   UNL     1       7.517   5.221  15.110  0.00  0.00    +0.000 A 
ATOM     12  C   UNL     1       6.621   4.683  14.198  0.00  0.00    +0.000 A 
ATOM     13  C   UNL     1       5.408   4.140  14.630  0.00  0.00    +0.000 A 
ATOM     14  C   UNL     1       5.107   4.150  16.007  0.00  0.00    +0.000 A 
ATOM     15  S   UNL     1       3.675   3.577  16.763  0.00  0.00    +0.000 S 
ENDBRANCH   6   7
BRANCH   1  17
ATOM     16  N   UNL     1       4.562   0.815  19.217  0.00  0.00    +0.000 N 
ATOM     17  C   UNL     1       4.554   1.653  20.301  0.00  0.00    +0.000 C 
ATOM     18  O   UNL     1       5.416   1.560  21.160  0.00  0.00    +0.000 OA
ATOM     19  H   UNL     1       5.325   0.153  19.156  0.00  0.00    +0.000 HD
ATOM     20  H   UNL     1       3.927   0.889  18.436  0.00  0.00    +0.000 HD
ENDBRANCH   1  17
TORSDOF 2
ENDMDL
MODEL 7
REMARK VINA RESULT:      -7.0      1.857      2.760
REMARK  Name = 
REMARK  2 active torsions:
REMARK  status: ('A' for Active; 'I' for Inactive)
REMARK    1  A    between atoms: C_2  and  C_4
REMARK    2  A    between atoms: C_9  and  C_10
REMARK                            x       y       z     vdW  Elec       q    Type
REMARK                         _______ _______ _______ _____ _____    ______ ____
ROOT
ATOM      1  C   UNL     1       2.611   4.881  20.039  0.00  0.00    +0.000 A 
ATOM      2  C   UNL     1       1.919   4.529  21.211  0.00  0.00    +0.000 A 
ATOM      3  C   UNL     1       2.054   3.253  21.743  0.00  0.00    +0.000 A 
ATOM      4  C   UNL     1       2.876   2.361  21.085  0.00  0.00    +0.000 A 
ATOM      5  N   UNL     1       3.562   2.668  19.965  0.00  0.00    +0.000 NA
ATOM      6  C   UNL     1       3.425   3.919  19.433  0.00  0.00    +0.000 A 
ENDROOT
BRANCH   6   7
ATOM      7  C   UNL     1       4.269   4.137  18.241  0.00  0.00    +0.000 A 
ATOM      8  C   UNL     1       4.025   3.840  16.912  0.00  0.00    +0.000 A 
ATOM      9  C   UNL     1       5.109   4.170  16.032  0.00  0.00    +0.000 A 
ATOM     10  C   UNL     1       5.255   3.970  14.638  0.00  0.00    +0.000 A 
ATOM     11  C   UNL     1       6.414   4.392  13.980  0.00  0.00    +0.000 A 
ATOM     12  C   UNL     1       7.429   5.022  14.685  0.00  0.00    +0.000 A 
ATOM     13  C   UNL     1       7.313   5.229  16.063  0.00  0.00    +0.000 A 
ATOM     14  C   UNL     1       6.150   4.786  16.725  0.00  0.00    +0.000 A 
ATOM     15  S   UNL     1       5.803   4.897  18.403  0.00  0.00    +0.000 S 
ENDBRANCH   6   7
BRANCH   1  17
ATOM     16  N   UNL     1       2.314   7.273  20.355  0.00  0.00    +0.000 N 
ATOM     17  C   UNL     1       2.379   6.230  19.468  0.00  0.00    +0.000 C 
ATOM     18  O   UNL     1       2.237   6.427  18.272  0.00  0.00    +0.000 OA
ATOM     19  H   UNL     1       2.178   8.197  19.965  0.00  0.00    +0.000 HD
ATOM     20  H   UNL     1       2.498   7.191  21.344  0.00  0.00    +0.000 HD
ENDBRANCH   1  17
TORSDOF 2
ENDMDL
MODEL 8
REMARK VINA RESULT:      -7.0      1.203      1.271
REMARK  Name = 
REMARK  2 active torsions:
REMARK  status: ('A' for Active; 'I' for Inactive)
REMARK    1  A    between atoms: C_2  and  C_4
REMARK    2  A    between atoms: C_9  and  C_10
REMARK                            x       y       z     vdW  Elec       q    Type
REMARK                         _______ _______ _______ _____ _____    ______ ____
ROOT
ATOM      1  C   UNL     1       3.296   3.483  19.705  0.00  0.00    +0.000 A 
ATOM      2  C   UNL     1       2.428   3.622  20.801  0.00  0.00    +0.000 A 
ATOM      3  C   UNL     1       1.857   4.857  21.085  0.00  0.00    +0.000 A 
ATOM      4  C   UNL     1       2.175   5.921  20.265  0.00  0.00    +0.000 A 
ATOM      5  N   UNL     1       2.994   5.820  19.199  0.00  0.00    +0.000 NA
ATOM      6  C   UNL     1       3.565   4.610  18.921  0.00  0.00    +0.000 A 
ENDROOT
BRANCH   6   7
ATOM      7  C   UNL     1       4.398   4.628  17.701  0.00  0.00    +0.000 A 
ATOM      8  C   UNL     1       4.145   4.110  16.444  0.00  0.00    +0.000 A 
ATOM      9  C   UNL     1       5.220   4.292  15.511  0.00  0.00    +0.000 A 
ATOM     10  C   UNL     1       5.355   3.859  14.169  0.00  0.00    +0.000 A 
ATOM     11  C   UNL     1       6.506   4.171  13.439  0.00  0.00    +0.000 A 
ATOM     12  C   UNL     1       7.522   4.916  14.018  0.00  0.00    +0.000 A 
ATOM     13  C   UNL     1       7.417   5.352  15.342  0.00  0.00    +0.000 A 
ATOM     14  C   UNL     1       6.262   5.022  16.080  0.00  0.00    +0.000 A 
ATOM     15  S   UNL     1       5.928   5.412  17.719  0.00  0.00    +0.000 S 
ENDBRANCH   6   7
BRANCH   1  17
ATOM     16  N   UNL     1       5.076   1.905  20.203  0.00  0.00    +0.000 N 
ATOM     17  C   UNL     1       3.939   2.165  19.483  0.00  0.00    +0.000 C 
ATOM     18  O   UNL     1       3.504   1.340  18.696  0.00  0.00    +0.000 OA
ATOM     19  H   UNL     1       5.503   0.997  20.070  0.00  0.00    +0.000 HD
ATOM     20  H   UNL     1       5.445   2.508  20.923  0.00  0.00    +0.000 HD
ENDBRANCH   1  17
TORSDOF 2
ENDMDL
MODEL 9
REMARK VINA RESULT:      -6.8      3.737      6.424
REMARK  Name = 
REMARK  2 active torsions:
REMARK  status: ('A' for Active; 'I' for Inactive)
REMARK    1  A    between atoms: C_2  and  C_4
REMARK    2  A    between atoms: C_9  and  C_10
REMARK                            x       y       z     vdW  Elec       q    Type
REMARK                         _______ _______ _______ _____ _____    ______ ____
ROOT
ATOM      1  C   UNL     1       3.424   4.701  17.476  0.00  0.00    +0.000 A 
ATOM      2  C   UNL     1       4.347   3.948  16.729  0.00  0.00    +0.000 A 
ATOM      3  C   UNL     1       5.506   4.544  16.249  0.00  0.00    +0.000 A 
ATOM      4  C   UNL     1       5.710   5.881  16.527  0.00  0.00    +0.000 A 
ATOM      5  N   UNL     1       4.853   6.630  17.249  0.00  0.00    +0.000 NA
ATOM      6  C   UNL     1       3.706   6.051  17.715  0.00  0.00    +0.000 A 
ENDROOT
BRANCH   6   7
ATOM      7  C   UNL     1       2.884   6.967  18.531  0.00  0.00    +0.000 A 
ATOM      8  C   UNL     1       2.534   6.897  19.868  0.00  0.00    +0.000 A 
ATOM      9  C   UNL     1       1.682   7.965  20.305  0.00  0.00    +0.000 A 
ATOM     10  C   UNL     1       1.079   8.204  21.564  0.00  0.00    +0.000 A 
ATOM     11  C   UNL     1       0.286   9.337  21.765  0.00  0.00    +0.000 A 
ATOM     12  C   UNL     1       0.089  10.245  20.734  0.00  0.00    +0.000 A 
ATOM     13  C   UNL     1       0.668  10.032  19.480  0.00  0.00    +0.000 A 
ATOM     14  C   UNL     1       1.454   8.880  19.277  0.00  0.00    +0.000 A 
ATOM     15  S   UNL     1       2.230   8.392  17.825  0.00  0.00    +0.000 S 
ENDBRANCH   6   7
BRANCH   1  17
ATOM     16  N   UNL     1       2.271   3.096  18.890  0.00  0.00    +0.000 N 
ATOM     17  C   UNL     1       2.167   4.043  17.905  0.00  0.00    +0.000 C 
ATOM     18  O   UNL     1       1.081   4.304  17.412  0.00  0.00    +0.000 OA
ATOM     19  H   UNL     1       1.411   2.662  19.200  0.00  0.00    +0.000 HD
ATOM     20  H   UNL     1       3.122   2.888  19.392  0.00  0.00    +0.000 HD
ENDBRANCH   1  17
TORSDOF 2
ENDMDL
