MODEL 1
REMARK VINA RESULT:      -8.9      0.000      0.000
REMARK  Name = 
REMARK  8 active torsions:
REMARK  status: ('A' for Active; 'I' for Inactive)
REMARK    1  A    between atoms: C_1  and  N_2
REMARK    2  A    between atoms: N_2  and  C_3
REMARK    3  A    between atoms: N_2  and  S_9
REMARK    4  A    between atoms: S_9  and  C_12
REMARK    5  A    between atoms: C_15  and  N_16
REMARK    6  A    between atoms: C_17  and  C_19
REMARK    7  A    between atoms: C_24  and  C_25
REMARK    8  A    between atoms: C_25  and  O_27
REMARK                            x       y       z     vdW  Elec       q    Type
REMARK                         _______ _______ _______ _____ _____    ______ ____
ROOT
ATOM      1  C   UNL     1       0.331  10.635  19.835  0.00  0.00    +0.000 A 
ATOM      2  C   UNL     1       1.134  10.093  18.832  0.00  0.00    +0.000 A 
ATOM      3  C   UNL     1       1.789   8.876  19.045  0.00  0.00    +0.000 A 
ATOM      4  C   UNL     1       1.665   8.195  20.262  0.00  0.00    +0.000 A 
ATOM      5  C   UNL     1       0.935   8.804  21.294  0.00  0.00    +0.000 A 
ATOM      6  C   UNL     1       0.272  10.024  21.087  0.00  0.00    +0.000 A 
ENDROOT
BRANCH   4   7
ATOM      7  N   UNL     1       2.201   6.903  20.502  0.00  0.00    +0.000 N 
ATOM      8  C   UNL     1       2.768   6.060  19.562  0.00  0.00    +0.000 C 
ATOM      9  O   UNL     1       3.059   6.401  18.416  0.00  0.00    +0.000 OA
ATOM     10  H   UNL     1       2.077   6.548  21.440  0.00  0.00    +0.000 HD
BRANCH   8  11
ATOM     11  C   UNL     1       3.093   4.621  20.033  0.00  0.00    +0.000 C 
ATOM     12  C   UNL     1       2.054   3.977  20.969  0.00  0.00    +0.000 C 
ATOM     13  C   UNL     1       0.745   3.616  20.277  0.00  0.00    +0.000 C 
ATOM     14  C   UNL     1       0.954   2.802  19.005  0.00  0.00    +0.000 C 
ATOM     15  C   UNL     1       1.977   3.440  18.073  0.00  0.00    +0.000 C 
ATOM     16  C   UNL     1       3.318   3.730  18.773  0.00  0.00    +0.000 C 
BRANCH  16  17
ATOM     17  C   UNL     1       4.086   2.457  19.100  0.00  0.00    +0.000 C 
ATOM     18  O   UNL     1       4.811   2.307  20.070  0.00  0.00    +0.000 OA
BRANCH  17  19
ATOM     19  O   UNL     1       3.928   1.478  18.179  0.00  0.00    +0.000 OA
ATOM     20  H   UNL     1       3.083   0.994  18.241  0.00  0.00    +0.000 HD
ENDBRANCH  17  19
ENDBRANCH  16  17
ENDBRANCH   8  11
ENDBRANCH   4   7
BRANCH   1  21
ATOM     21  S   UNL     1      -0.552  12.156  19.524  0.00  0.00    +0.000 S 
ATOM     22  O   UNL     1      -0.149  12.611  18.207  0.00  0.00    +0.000 OA
ATOM     23  O   UNL     1      -0.366  13.005  20.682  0.00  0.00    +0.000 OA
BRANCH  21  25
ATOM     24  C   UNL     1      -3.145  12.327  20.320  0.00  0.00    +0.000 C 
ATOM     25  N   UNL     1      -2.186  11.665  19.421  0.00  0.00    +0.000 N 
BRANCH  25  26
ATOM     26  C   UNL     1      -2.665  11.195  18.155  0.00  0.00    +0.000 A 
ATOM     27  C   UNL     1      -3.831  11.768  17.638  0.00  0.00    +0.000 A 
ATOM     28  C   UNL     1      -4.344  11.342  16.411  0.00  0.00    +0.000 A 
ATOM     29  C   UNL     1      -3.693  10.336  15.694  0.00  0.00    +0.000 A 
ATOM     30  C   UNL     1      -2.530   9.763  16.208  0.00  0.00    +0.000 A 
ATOM     31  C   UNL     1      -2.016  10.187  17.438  0.00  0.00    +0.000 A 
ENDBRANCH  25  26
ENDBRANCH  21  25
ENDBRANCH   1  21
TORSDOF 7
ENDMDL
MODEL 2
REMARK VINA RESULT:      -8.6      0.510      1.168
REMARK  Name = 
REMARK  8 active torsions:
REMARK  status: ('A' for Active; 'I' for Inactive)
REMARK    1  A    between atoms: C_1  and  N_2
REMARK    2  A    between atoms: N_2  and  C_3
REMARK    3  A    between atoms: N_2  and  S_9
REMARK    4  A    between atoms: S_9  and  C_12
REMARK    5  A    between atoms: C_15  and  N_16
REMARK    6  A    between atoms: C_17  and  C_19
REMARK    7  A    between atoms: C_24  and  C_25
REMARK    8  A    between atoms: C_25  and  O_27
REMARK                            x       y       z     vdW  Elec       q    Type
REMARK                         _______ _______ _______ _____ _____    ______ ____
ROOT
ATOM      1  C   UNL     1       0.442  10.463  19.875  0.00  0.00    +0.000 A 
ATOM      2  C   UNL     1       0.113   9.674  20.977  0.00  0.00    +0.000 A 
ATOM      3  C   UNL     1       0.694   8.411  21.129  0.00  0.00    +0.000 A 
ATOM      4  C   UNL     1       1.594   7.914  20.179  0.00  0.00    +0.000 A 
ATOM      5  C   UNL     1       1.837   8.678  19.028  0.00  0.00    +0.000 A 
ATOM      6  C   UNL     1       1.260   9.948  18.869  0.00  0.00    +0.000 A 
ENDROOT
BRANCH   4   7
ATOM      7  N   UNL     1       2.311   6.698  20.330  0.00  0.00    +0.000 N 
ATOM      8  C   UNL     1       2.574   5.770  19.337  0.00  0.00    +0.000 C 
ATOM      9  O   UNL     1       2.384   5.970  18.138  0.00  0.00    +0.000 OA
ATOM     10  H   UNL     1       2.580   6.467  21.276  0.00  0.00    +0.000 HD
BRANCH   8  11
ATOM     11  C   UNL     1       3.197   4.429  19.796  0.00  0.00    +0.000 C 
ATOM     12  C   UNL     1       2.680   3.879  21.138  0.00  0.00    +0.000 C 
ATOM     13  C   UNL     1       1.246   3.367  21.081  0.00  0.00    +0.000 C 
ATOM     14  C   UNL     1       1.014   2.390  19.934  0.00  0.00    +0.000 C 
ATOM     15  C   UNL     1       1.518   2.933  18.602  0.00  0.00    +0.000 C 
ATOM     16  C   UNL     1       2.991   3.378  18.662  0.00  0.00    +0.000 C 
BRANCH  16  17
ATOM     17  C   UNL     1       3.945   2.198  18.792  0.00  0.00    +0.000 C 
ATOM     18  O   UNL     1       3.720   1.069  18.387  0.00  0.00    +0.000 OA
BRANCH  17  19
ATOM     19  O   UNL     1       5.090   2.498  19.448  0.00  0.00    +0.000 OA
ATOM     20  H   UNL     1       5.762   2.953  18.906  0.00  0.00    +0.000 HD
ENDBRANCH  17  19
ENDBRANCH  16  17
ENDBRANCH   8  11
ENDBRANCH   4   7
BRANCH   1  21
ATOM     21  S   UNL     1      -0.256  12.100  19.730  0.00  0.00    +0.000 S 
ATOM     22  O   UNL     1       0.157  12.617  18.440  0.00  0.00    +0.000 OA
ATOM     23  O   UNL     1       0.070  12.816  20.946  0.00  0.00    +0.000 OA
BRANCH  21  25
ATOM     24  C   UNL     1      -2.801  12.670  20.495  0.00  0.00    +0.000 C 
ATOM     25  N   UNL     1      -1.941  11.820  19.657  0.00  0.00    +0.000 N 
BRANCH  25  26
ATOM     26  C   UNL     1      -2.482  11.317  18.429  0.00  0.00    +0.000 A 
ATOM     27  C   UNL     1      -3.687  11.859  17.969  0.00  0.00    +0.000 A 
ATOM     28  C   UNL     1      -4.261  11.402  16.782  0.00  0.00    +0.000 A 
ATOM     29  C   UNL     1      -3.634  10.393  16.048  0.00  0.00    +0.000 A 
ATOM     30  C   UNL     1      -2.433   9.849  16.505  0.00  0.00    +0.000 A 
ATOM     31  C   UNL     1      -1.858  10.306  17.695  0.00  0.00    +0.000 A 
ENDBRANCH  25  26
ENDBRANCH  21  25
ENDBRANCH   1  21
TORSDOF 7
ENDMDL
MODEL 3
REMARK VINA RESULT:      -8.5      2.263      3.271
REMARK  Name = 
REMARK  8 active torsions:
REMARK  status: ('A' for Active; 'I' for Inactive)
REMARK    1  A    between atoms: C_1  and  N_2
REMARK    2  A    between atoms: N_2  and  C_3
REMARK    3  A    between atoms: N_2  and  S_9
REMARK    4  A    between atoms: S_9  and  C_12
REMARK    5  A    between atoms: C_15  and  N_16
REMARK    6  A    between atoms: C_17  and  C_19
REMARK    7  A    between atoms: C_24  and  C_25
REMARK    8  A    between atoms: C_25  and  O_27
REMARK                            x       y       z     vdW  Elec       q    Type
REMARK                         _______ _______ _______ _____ _____    ______ ____
ROOT
ATOM      1  C   UNL     1       0.280  10.652  19.874  0.00  0.00    +0.000 A 
ATOM      2  C   UNL     1       0.956  10.085  18.794  0.00  0.00    +0.000 A 
ATOM      3  C   UNL     1       1.618   8.864  18.948  0.00  0.00    +0.000 A 
ATOM      4  C   UNL     1       1.628   8.202  20.182  0.00  0.00    +0.000 A 
ATOM      5  C   UNL     1       1.029   8.833  21.281  0.00  0.00    +0.000 A 
ATOM      6  C   UNL     1       0.360  10.058  21.134  0.00  0.00    +0.000 A 
ENDROOT
BRANCH   4   7
ATOM      7  N   UNL     1       2.175   6.906  20.378  0.00  0.00    +0.000 N 
ATOM      8  C   UNL     1       2.914   6.178  19.462  0.00  0.00    +0.000 C 
ATOM      9  O   UNL     1       3.363   6.641  18.414  0.00  0.00    +0.000 OA
ATOM     10  H   UNL     1       1.923   6.456  21.247  0.00  0.00    +0.000 HD
BRANCH   8  11
ATOM     11  C   UNL     1       3.223   4.708  19.839  0.00  0.00    +0.000 C 
ATOM     12  C   UNL     1       2.304   4.087  20.906  0.00  0.00    +0.000 C 
ATOM     13  C   UNL     1       0.886   3.822  20.416  0.00  0.00    +0.000 C 
ATOM     14  C   UNL     1       0.849   3.043  19.106  0.00  0.00    +0.000 C 
ATOM     15  C   UNL     1       1.753   3.659  18.044  0.00  0.00    +0.000 C 
ATOM     16  C   UNL     1       3.200   3.852  18.536  0.00  0.00    +0.000 C 
BRANCH  16  17
ATOM     17  C   UNL     1       3.933   2.528  18.705  0.00  0.00    +0.000 C 
ATOM     18  O   UNL     1       3.564   1.460  18.243  0.00  0.00    +0.000 OA
BRANCH  17  19
ATOM     19  O   UNL     1       5.048   2.620  19.466  0.00  0.00    +0.000 OA
ATOM     20  H   UNL     1       5.662   3.331  19.203  0.00  0.00    +0.000 HD
ENDBRANCH  17  19
ENDBRANCH  16  17
ENDBRANCH   8  11
ENDBRANCH   4   7
BRANCH   1  21
ATOM     21  S   UNL     1      -0.617  12.179  19.644  0.00  0.00    +0.000 S 
ATOM     22  O   UNL     1      -2.000  11.818  19.402  0.00  0.00    +0.000 OA
ATOM     23  O   UNL     1       0.116  12.965  18.673  0.00  0.00    +0.000 OA
BRANCH  21  25
ATOM     24  C   UNL     1       0.520  13.930  21.383  0.00  0.00    +0.000 C 
ATOM     25  N   UNL     1      -0.541  12.932  21.176  0.00  0.00    +0.000 N 
BRANCH  25  26
ATOM     26  C   UNL     1      -1.764  13.089  21.906  0.00  0.00    +0.000 A 
ATOM     27  C   UNL     1      -2.073  12.141  22.887  0.00  0.00    +0.000 A 
ATOM     28  C   UNL     1      -3.255  12.243  23.622  0.00  0.00    +0.000 A 
ATOM     29  C   UNL     1      -4.140  13.295  23.377  0.00  0.00    +0.000 A 
ATOM     30  C   UNL     1      -3.836  14.241  22.398  0.00  0.00    +0.000 A 
ATOM     31  C   UNL     1      -2.652  14.139  21.659  0.00  0.00    +0.000 A 
ENDBRANCH  25  26
ENDBRANCH  21  25
ENDBRANCH   1  21
TORSDOF 7
ENDMDL
MODEL 4
REMARK VINA RESULT:      -8.5      2.518      3.786
REMARK  Name = 
REMARK  8 active torsions:
REMARK  status: ('A' for Active; 'I' for Inactive)
REMARK    1  A    between atoms: C_1  and  N_2
REMARK    2  A    between atoms: N_2  and  C_3
REMARK    3  A    between atoms: N_2  and  S_9
REMARK    4  A    between atoms: S_9  and  C_12
REMARK    5  A    between atoms: C_15  and  N_16
REMARK    6  A    between atoms: C_17  and  C_19
REMARK    7  A    between atoms: C_24  and  C_25
REMARK    8  A    between atoms: C_25  and  O_27
REMARK                            x       y       z     vdW  Elec       q    Type
REMARK                         _______ _______ _______ _____ _____    ______ ____
ROOT
ATOM      1  C   UNL     1       0.726  10.406  20.446  0.00  0.00    +0.000 A 
ATOM      2  C   UNL     1       0.763   9.605  21.587  0.00  0.00    +0.000 A 
ATOM      3  C   UNL     1       1.263   8.302  21.508  0.00  0.00    +0.000 A 
ATOM      4  C   UNL     1       1.714   7.777  20.291  0.00  0.00    +0.000 A 
ATOM      5  C   UNL     1       1.577   8.560  19.135  0.00  0.00    +0.000 A 
ATOM      6  C   UNL     1       1.079   9.871  19.207  0.00  0.00    +0.000 A 
ENDROOT
BRANCH   4   7
ATOM      7  N   UNL     1       2.343   6.511  20.162  0.00  0.00    +0.000 N 
ATOM      8  C   UNL     1       1.752   5.275  20.360  0.00  0.00    +0.000 C 
ATOM      9  O   UNL     1       0.541   5.102  20.489  0.00  0.00    +0.000 OA
ATOM     10  H   UNL     1       3.338   6.536  19.984  0.00  0.00    +0.000 HD
BRANCH   8  11
ATOM     11  C   UNL     1       2.699   4.050  20.359  0.00  0.00    +0.000 C 
ATOM     12  C   UNL     1       2.009   2.674  20.337  0.00  0.00    +0.000 C 
ATOM     13  C   UNL     1       1.337   2.345  19.010  0.00  0.00    +0.000 C 
ATOM     14  C   UNL     1       2.263   2.541  17.815  0.00  0.00    +0.000 C 
ATOM     15  C   UNL     1       2.943   3.905  17.828  0.00  0.00    +0.000 C 
ATOM     16  C   UNL     1       3.678   4.187  19.152  0.00  0.00    +0.000 C 
BRANCH  16  17
ATOM     17  C   UNL     1       4.920   3.323  19.319  0.00  0.00    +0.000 C 
ATOM     18  O   UNL     1       5.051   2.440  20.151  0.00  0.00    +0.000 OA
BRANCH  17  19
ATOM     19  O   UNL     1       5.921   3.644  18.467  0.00  0.00    +0.000 OA
ATOM     20  H   UNL     1       6.235   4.565  18.536  0.00  0.00    +0.000 HD
ENDBRANCH  17  19
ENDBRANCH  16  17
ENDBRANCH   8  11
ENDBRANCH   4   7
BRANCH   1  21
ATOM     21  S   UNL     1       0.147  12.091  20.576  0.00  0.00    +0.000 S 
ATOM     22  O   UNL     1       1.110  12.800  21.396  0.00  0.00    +0.000 OA
ATOM     23  O   UNL     1      -1.247  12.037  20.963  0.00  0.00    +0.000 OA
BRANCH  21  25
ATOM     24  C   UNL     1      -0.940  12.729  18.168  0.00  0.00    +0.000 C 
ATOM     25  N   UNL     1       0.285  12.694  18.983  0.00  0.00    +0.000 N 
BRANCH  25  26
ATOM     26  C   UNL     1       1.292  13.681  18.726  0.00  0.00    +0.000 A 
ATOM     27  C   UNL     1       2.559  13.241  18.330  0.00  0.00    +0.000 A 
ATOM     28  C   UNL     1       3.578  14.160  18.073  0.00  0.00    +0.000 A 
ATOM     29  C   UNL     1       3.336  15.527  18.215  0.00  0.00    +0.000 A 
ATOM     30  C   UNL     1       2.074  15.969  18.612  0.00  0.00    +0.000 A 
ATOM     31  C   UNL     1       1.052  15.049  18.871  0.00  0.00    +0.000 A 
ENDBRANCH  25  26
ENDBRANCH  21  25
ENDBRANCH   1  21
TORSDOF 7
ENDMDL
MODEL 5
REMARK VINA RESULT:      -8.5      2.348      3.509
REMARK  Name = 
REMARK  8 active torsions:
REMARK  status: ('A' for Active; 'I' for Inactive)
REMARK    1  A    between atoms: C_1  and  N_2
REMARK    2  A    between atoms: N_2  and  C_3
REMARK    3  A    between atoms: N_2  and  S_9
REMARK    4  A    between atoms: S_9  and  C_12
REMARK    5  A    between atoms: C_15  and  N_16
REMARK    6  A    between atoms: C_17  and  C_19
REMARK    7  A    between atoms: C_24  and  C_25
REMARK    8  A    between atoms: C_25  and  O_27
REMARK                            x       y       z     vdW  Elec       q    Type
REMARK                         _______ _______ _______ _____ _____    ______ ____
ROOT
ATOM      1  C   UNL     1       0.491  10.586  20.719  0.00  0.00    +0.000 A 
ATOM      2  C   UNL     1       0.351   9.822  21.877  0.00  0.00    +0.000 A 
ATOM      3  C   UNL     1       0.846   8.515  21.915  0.00  0.00    +0.000 A 
ATOM      4  C   UNL     1       1.469   7.949  20.796  0.00  0.00    +0.000 A 
ATOM      5  C   UNL     1       1.512   8.696  19.609  0.00  0.00    +0.000 A 
ATOM      6  C   UNL     1       1.021  10.010  19.564  0.00  0.00    +0.000 A 
ENDROOT
BRANCH   4   7
ATOM      7  N   UNL     1       2.100   6.677  20.802  0.00  0.00    +0.000 N 
ATOM      8  C   UNL     1       2.586   5.996  19.699  0.00  0.00    +0.000 C 
ATOM      9  O   UNL     1       2.709   6.492  18.581  0.00  0.00    +0.000 OA
ATOM     10  H   UNL     1       2.116   6.205  21.695  0.00  0.00    +0.000 HD
BRANCH   8  11
ATOM     11  C   UNL     1       3.045   4.537  19.940  0.00  0.00    +0.000 C 
ATOM     12  C   UNL     1       2.209   3.733  20.951  0.00  0.00    +0.000 C 
ATOM     13  C   UNL     1       0.817   3.371  20.447  0.00  0.00    +0.000 C 
ATOM     14  C   UNL     1       0.840   2.713  19.072  0.00  0.00    +0.000 C 
ATOM     15  C   UNL     1       1.663   3.510  18.065  0.00  0.00    +0.000 C 
ATOM     16  C   UNL     1       3.090   3.803  18.564  0.00  0.00    +0.000 C 
BRANCH  16  17
ATOM     17  C   UNL     1       3.954   2.550  18.609  0.00  0.00    +0.000 C 
ATOM     18  O   UNL     1       3.642   1.468  18.138  0.00  0.00    +0.000 OA
BRANCH  17  19
ATOM     19  O   UNL     1       5.123   2.722  19.268  0.00  0.00    +0.000 OA
ATOM     20  H   UNL     1       5.652   3.484  18.965  0.00  0.00    +0.000 HD
ENDBRANCH  17  19
ENDBRANCH  16  17
ENDBRANCH   8  11
ENDBRANCH   4   7
BRANCH   1  21
ATOM     21  S   UNL     1      -0.086  12.276  20.709  0.00  0.00    +0.000 S 
ATOM     22  O   UNL     1       0.854  13.043  21.503  0.00  0.00    +0.000 OA
ATOM     23  O   UNL     1      -1.492  12.252  21.057  0.00  0.00    +0.000 OA
BRANCH  21  25
ATOM     24  C   UNL     1      -1.095  12.714  18.224  0.00  0.00    +0.000 C 
ATOM     25  N   UNL     1       0.100  12.761  19.081  0.00  0.00    +0.000 N 
BRANCH  25  26
ATOM     26  C   UNL     1       1.101  13.743  18.786  0.00  0.00    +0.000 A 
ATOM     27  C   UNL     1       0.746  15.093  18.871  0.00  0.00    +0.000 A 
ATOM     28  C   UNL     1       1.681  16.090  18.589  0.00  0.00    +0.000 A 
ATOM     29  C   UNL     1       2.980  15.742  18.215  0.00  0.00    +0.000 A 
ATOM     30  C   UNL     1       3.338  14.396  18.128  0.00  0.00    +0.000 A 
ATOM     31  C   UNL     1       2.401  13.396  18.409  0.00  0.00    +0.000 A 
ENDBRANCH  25  26
ENDBRANCH  21  25
ENDBRANCH   1  21
TORSDOF 7
ENDMDL
MODEL 6
REMARK VINA RESULT:      -8.4      0.911      1.082
REMARK  Name = 
REMARK  8 active torsions:
REMARK  status: ('A' for Active; 'I' for Inactive)
REMARK    1  A    between atoms: C_1  and  N_2
REMARK    2  A    between atoms: N_2  and  C_3
REMARK    3  A    between atoms: N_2  and  S_9
REMARK    4  A    between atoms: S_9  and  C_12
REMARK    5  A    between atoms: C_15  and  N_16
REMARK    6  A    between atoms: C_17  and  C_19
REMARK    7  A    between atoms: C_24  and  C_25
REMARK    8  A    between atoms: C_25  and  O_27
REMARK                            x       y       z     vdW  Elec       q    Type
REMARK                         _______ _______ _______ _____ _____    ______ ____
ROOT
ATOM      1  C   UNL     1       0.657  10.610  19.444  0.00  0.00    +0.000 A 
ATOM      2  C   UNL     1       1.298  10.197  18.276  0.00  0.00    +0.000 A 
ATOM      3  C   UNL     1       1.927   8.950  18.229  0.00  0.00    +0.000 A 
ATOM      4  C   UNL     1       1.940   8.108  19.347  0.00  0.00    +0.000 A 
ATOM      5  C   UNL     1       1.379   8.580  20.543  0.00  0.00    +0.000 A 
ATOM      6  C   UNL     1       0.743   9.830  20.598  0.00  0.00    +0.000 A 
ENDROOT
BRANCH   4   7
ATOM      7  N   UNL     1       2.452   6.784  19.333  0.00  0.00    +0.000 N 
ATOM      8  C   UNL     1       2.089   5.753  20.183  0.00  0.00    +0.000 C 
ATOM      9  O   UNL     1       1.126   5.796  20.948  0.00  0.00    +0.000 OA
ATOM     10  H   UNL     1       3.209   6.618  18.685  0.00  0.00    +0.000 HD
BRANCH   8  11
ATOM     11  C   UNL     1       2.938   4.461  20.100  0.00  0.00    +0.000 C 
ATOM     12  C   UNL     1       2.499   3.314  21.028  0.00  0.00    +0.000 C 
ATOM     13  C   UNL     1       1.187   2.659  20.614  0.00  0.00    +0.000 C 
ATOM     14  C   UNL     1       1.168   2.247  19.147  0.00  0.00    +0.000 C 
ATOM     15  C   UNL     1       1.596   3.382  18.224  0.00  0.00    +0.000 C 
ATOM     16  C   UNL     1       2.960   3.982  18.615  0.00  0.00    +0.000 C 
BRANCH  16  17
ATOM     17  C   UNL     1       4.112   3.028  18.336  0.00  0.00    +0.000 C 
ATOM     18  O   UNL     1       4.033   2.014  17.660  0.00  0.00    +0.000 OA
BRANCH  17  19
ATOM     19  O   UNL     1       5.267   3.380  18.947  0.00  0.00    +0.000 OA
ATOM     20  H   UNL     1       5.227   4.223  19.438  0.00  0.00    +0.000 HD
ENDBRANCH  17  19
ENDBRANCH  16  17
ENDBRANCH   8  11
ENDBRANCH   4   7
BRANCH   1  21
ATOM     21  S   UNL     1      -0.199  12.177  19.468  0.00  0.00    +0.000 S 
ATOM     22  O   UNL     1       0.033  12.799  18.179  0.00  0.00    +0.000 OA
ATOM     23  O   UNL     1       0.182  12.856  20.689  0.00  0.00    +0.000 OA
BRANCH  21  25
ATOM     24  C   UNL     1      -2.687  12.429  20.533  0.00  0.00    +0.000 C 
ATOM     25  N   UNL     1      -1.850  11.739  19.539  0.00  0.00    +0.000 N 
BRANCH  25  26
ATOM     26  C   UNL     1      -2.474  11.286  18.331  0.00  0.00    +0.000 A 
ATOM     27  C   UNL     1      -3.665  11.902  17.934  0.00  0.00    +0.000 A 
ATOM     28  C   UNL     1      -4.317  11.496  16.768  0.00  0.00    +0.000 A 
ATOM     29  C   UNL     1      -3.782  10.465  15.994  0.00  0.00    +0.000 A 
ATOM     30  C   UNL     1      -2.595   9.848  16.387  0.00  0.00    +0.000 A 
ATOM     31  C   UNL     1      -1.941  10.253  17.556  0.00  0.00    +0.000 A 
ENDBRANCH  25  26
ENDBRANCH  21  25
ENDBRANCH   1  21
TORSDOF 7
ENDMDL
MODEL 7
REMARK VINA RESULT:      -8.3      1.179      1.910
REMARK  Name = 
REMARK  8 active torsions:
REMARK  status: ('A' for Active; 'I' for Inactive)
REMARK    1  A    between atoms: C_1  and  N_2
REMARK    2  A    between atoms: N_2  and  C_3
REMARK    3  A    between atoms: N_2  and  S_9
REMARK    4  A    between atoms: S_9  and  C_12
REMARK    5  A    between atoms: C_15  and  N_16
REMARK    6  A    between atoms: C_17  and  C_19
REMARK    7  A    between atoms: C_24  and  C_25
REMARK    8  A    between atoms: C_25  and  O_27
REMARK                            x       y       z     vdW  Elec       q    Type
REMARK                         _______ _______ _______ _____ _____    ______ ____
ROOT
ATOM      1  C   UNL     1      -0.058  10.816  20.864  0.00  0.00    +0.000 A 
ATOM      2  C   UNL     1      -0.518   9.781  21.678  0.00  0.00    +0.000 A 
ATOM      3  C   UNL     1       0.097   8.527  21.626  0.00  0.00    +0.000 A 
ATOM      4  C   UNL     1       1.164   8.284  20.752  0.00  0.00    +0.000 A 
ATOM      5  C   UNL     1       1.548   9.305  19.870  0.00  0.00    +0.000 A 
ATOM      6  C   UNL     1       0.938  10.569  19.919  0.00  0.00    +0.000 A 
ENDROOT
BRANCH   4   7
ATOM      7  N   UNL     1       1.911   7.077  20.733  0.00  0.00    +0.000 N 
ATOM      8  C   UNL     1       2.465   6.470  19.619  0.00  0.00    +0.000 C 
ATOM      9  O   UNL     1       2.547   7.003  18.513  0.00  0.00    +0.000 OA
ATOM     10  H   UNL     1       1.966   6.587  21.615  0.00  0.00    +0.000 HD
BRANCH   8  11
ATOM     11  C   UNL     1       3.057   5.055  19.829  0.00  0.00    +0.000 C 
ATOM     12  C   UNL     1       2.376   4.202  20.914  0.00  0.00    +0.000 C 
ATOM     13  C   UNL     1       0.980   3.726  20.533  0.00  0.00    +0.000 C 
ATOM     14  C   UNL     1       0.938   3.053  19.166  0.00  0.00    +0.000 C 
ATOM     15  C   UNL     1       1.605   3.898  18.086  0.00  0.00    +0.000 C 
ATOM     16  C   UNL     1       3.042   4.309  18.459  0.00  0.00    +0.000 C 
BRANCH  16  17
ATOM     17  C   UNL     1       4.003   3.128  18.438  0.00  0.00    +0.000 C 
ATOM     18  O   UNL     1       3.671   1.957  18.355  0.00  0.00    +0.000 OA
BRANCH  17  19
ATOM     19  O   UNL     1       5.302   3.486  18.561  0.00  0.00    +0.000 OA
ATOM     20  H   UNL     1       5.653   3.439  19.471  0.00  0.00    +0.000 HD
ENDBRANCH  17  19
ENDBRANCH  16  17
ENDBRANCH   8  11
ENDBRANCH   4   7
BRANCH   1  21
ATOM     21  S   UNL     1      -0.810  12.431  20.990  0.00  0.00    +0.000 S 
ATOM     22  O   UNL     1       0.247  13.357  21.346  0.00  0.00    +0.000 OA
ATOM     23  O   UNL     1      -1.980  12.295  21.833  0.00  0.00    +0.000 OA
BRANCH  21  25
ATOM     24  C   UNL     1      -0.323  13.508  18.543  0.00  0.00    +0.000 C 
ATOM     25  N   UNL     1      -1.287  12.786  19.388  0.00  0.00    +0.000 N 
BRANCH  25  26
ATOM     26  C   UNL     1      -2.201  11.887  18.748  0.00  0.00    +0.000 A 
ATOM     27  C   UNL     1      -1.676  10.900  17.908  0.00  0.00    +0.000 A 
ATOM     28  C   UNL     1      -2.523  10.002  17.256  0.00  0.00    +0.000 A 
ATOM     29  C   UNL     1      -3.904  10.089  17.437  0.00  0.00    +0.000 A 
ATOM     30  C   UNL     1      -4.432  11.073  18.273  0.00  0.00    +0.000 A 
ATOM     31  C   UNL     1      -3.584  11.974  18.926  0.00  0.00    +0.000 A 
ENDBRANCH  25  26
ENDBRANCH  21  25
ENDBRANCH   1  21
TORSDOF 7
ENDMDL
MODEL 8
REMARK VINA RESULT:      -8.3      0.572      1.456
REMARK  Name = 
REMARK  8 active torsions:
REMARK  status: ('A' for Active; 'I' for Inactive)
REMARK    1  A    between atoms: C_1  and  N_2
REMARK    2  A    between atoms: N_2  and  C_3
REMARK    3  A    between atoms: N_2  and  S_9
REMARK    4  A    between atoms: S_9  and  C_12
REMARK    5  A    between atoms: C_15  and  N_16
REMARK    6  A    between atoms: C_17  and  C_19
REMARK    7  A    between atoms: C_24  and  C_25
REMARK    8  A    between atoms: C_25  and  O_27
REMARK                            x       y       z     vdW  Elec       q    Type
REMARK                         _______ _______ _______ _____ _____    ______ ____
ROOT
ATOM      1  C   UNL     1       0.175  10.788  19.815  0.00  0.00    +0.000 A 
ATOM      2  C   UNL     1      -0.199   9.971  20.882  0.00  0.00    +0.000 A 
ATOM      3  C   UNL     1       0.399   8.718  21.043  0.00  0.00    +0.000 A 
ATOM      4  C   UNL     1       1.362   8.258  20.137  0.00  0.00    +0.000 A 
ATOM      5  C   UNL     1       1.653   9.048  19.016  0.00  0.00    +0.000 A 
ATOM      6  C   UNL     1       1.059  10.309  18.848  0.00  0.00    +0.000 A 
ENDROOT
BRANCH   4   7
ATOM      7  N   UNL     1       2.095   7.053  20.307  0.00  0.00    +0.000 N 
ATOM      8  C   UNL     1       2.506   6.193  19.304  0.00  0.00    +0.000 C 
ATOM      9  O   UNL     1       2.456   6.458  18.104  0.00  0.00    +0.000 OA
ATOM     10  H   UNL     1       2.254   6.774  21.265  0.00  0.00    +0.000 HD
BRANCH   8  11
ATOM     11  C   UNL     1       3.112   4.843  19.760  0.00  0.00    +0.000 C 
ATOM     12  C   UNL     1       2.461   4.206  21.001  0.00  0.00    +0.000 C 
ATOM     13  C   UNL     1       1.060   3.664  20.749  0.00  0.00    +0.000 C 
ATOM     14  C   UNL     1       0.991   2.748  19.533  0.00  0.00    +0.000 C 
ATOM     15  C   UNL     1       1.629   3.377  18.299  0.00  0.00    +0.000 C 
ATOM     16  C   UNL     1       3.071   3.854  18.555  0.00  0.00    +0.000 C 
BRANCH  16  17
ATOM     17  C   UNL     1       4.039   2.692  18.733  0.00  0.00    +0.000 C 
ATOM     18  O   UNL     1       3.796   1.530  18.451  0.00  0.00    +0.000 OA
BRANCH  17  19
ATOM     19  O   UNL     1       5.222   3.053  19.282  0.00  0.00    +0.000 OA
ATOM     20  H   UNL     1       5.192   3.874  19.809  0.00  0.00    +0.000 HD
ENDBRANCH  17  19
ENDBRANCH  16  17
ENDBRANCH   8  11
ENDBRANCH   4   7
BRANCH   1  21
ATOM     21  S   UNL     1      -0.548  12.413  19.659  0.00  0.00    +0.000 S 
ATOM     22  O   UNL     1      -0.226  12.888  18.328  0.00  0.00    +0.000 OA
ATOM     23  O   UNL     1      -0.150  13.174  20.825  0.00  0.00    +0.000 OA
BRANCH  21  25
ATOM     24  C   UNL     1      -3.021  12.877  20.689  0.00  0.00    +0.000 C 
ATOM     25  N   UNL     1      -2.231  12.117  19.707  0.00  0.00    +0.000 N 
BRANCH  25  26
ATOM     26  C   UNL     1      -2.874  11.717  18.490  0.00  0.00    +0.000 A 
ATOM     27  C   UNL     1      -2.083  11.169  17.476  0.00  0.00    +0.000 A 
ATOM     28  C   UNL     1      -2.658  10.768  16.269  0.00  0.00    +0.000 A 
ATOM     29  C   UNL     1      -4.031  10.919  16.067  0.00  0.00    +0.000 A 
ATOM     30  C   UNL     1      -4.823  11.467  17.076  0.00  0.00    +0.000 A 
ATOM     31  C   UNL     1      -4.247  11.870  18.286  0.00  0.00    +0.000 A 
ENDBRANCH  25  26
ENDBRANCH  21  25
ENDBRANCH   1  21
TORSDOF 7
ENDMDL
MODEL 9
REMARK VINA RESULT:      -8.2      2.593      3.833
REMARK  Name = 
REMARK  8 active torsions:
REMARK  status: ('A' for Active; 'I' for Inactive)
REMARK    1  A    between atoms: C_1  and  N_2
REMARK    2  A    between atoms: N_2  and  C_3
REMARK    3  A    between atoms: N_2  and  S_9
REMARK    4  A    between atoms: S_9  and  C_12
REMARK    5  A    between atoms: C_15  and  N_16
REMARK    6  A    between atoms: C_17  and  C_19
REMARK    7  A    between atoms: C_24  and  C_25
REMARK    8  A    between atoms: C_25  and  O_27
REMARK                            x       y       z     vdW  Elec       q    Type
REMARK                         _______ _______ _______ _____ _____    ______ ____
ROOT
ATOM      1  C   UNL     1       0.046  11.194  19.608  0.00  0.00    +0.000 A 
ATOM      2  C   UNL     1      -0.242  10.475  20.768  0.00  0.00    +0.000 A 
ATOM      3  C   UNL     1       0.361   9.233  20.987  0.00  0.00    +0.000 A 
ATOM      4  C   UNL     1       1.243   8.686  20.047  0.00  0.00    +0.000 A 
ATOM      5  C   UNL     1       1.443   9.375  18.842  0.00  0.00    +0.000 A 
ATOM      6  C   UNL     1       0.845  10.624  18.616  0.00  0.00    +0.000 A 
ENDROOT
BRANCH   4   7
ATOM      7  N   UNL     1       1.981   7.491  20.259  0.00  0.00    +0.000 N 
ATOM      8  C   UNL     1       2.566   6.703  19.282  0.00  0.00    +0.000 C 
ATOM      9  O   UNL     1       2.688   7.040  18.105  0.00  0.00    +0.000 OA
ATOM     10  H   UNL     1       2.004   7.158  21.212  0.00  0.00    +0.000 HD
BRANCH   8  11
ATOM     11  C   UNL     1       3.141   5.344  19.749  0.00  0.00    +0.000 C 
ATOM     12  C   UNL     1       2.356   4.637  20.869  0.00  0.00    +0.000 C 
ATOM     13  C   UNL     1       1.009   4.084  20.419  0.00  0.00    +0.000 C 
ATOM     14  C   UNL     1       1.112   3.227  19.163  0.00  0.00    +0.000 C 
ATOM     15  C   UNL     1       1.883   3.925  18.049  0.00  0.00    +0.000 C 
ATOM     16  C   UNL     1       3.272   4.412  18.505  0.00  0.00    +0.000 C 
BRANCH  16  17
ATOM     17  C   UNL     1       4.236   3.260  18.748  0.00  0.00    +0.000 C 
ATOM     18  O   UNL     1       5.096   3.239  19.615  0.00  0.00    +0.000 OA
BRANCH  17  19
ATOM     19  O   UNL     1       4.089   2.237  17.875  0.00  0.00    +0.000 OA
ATOM     20  H   UNL     1       4.740   2.225  17.149  0.00  0.00    +0.000 HD
ENDBRANCH  17  19
ENDBRANCH  16  17
ENDBRANCH   8  11
ENDBRANCH   4   7
BRANCH   1  21
ATOM     21  S   UNL     1      -0.680  12.809  19.374  0.00  0.00    +0.000 S 
ATOM     22  O   UNL     1      -1.902  12.834  20.154  0.00  0.00    +0.000 OA
ATOM     23  O   UNL     1      -0.714  13.062  17.949  0.00  0.00    +0.000 OA
BRANCH  21  25
ATOM     24  C   UNL     1       0.717  13.644  21.551  0.00  0.00    +0.000 C 
ATOM     25  N   UNL     1       0.432  13.868  20.125  0.00  0.00    +0.000 N 
BRANCH  25  26
ATOM     26  C   UNL     1       1.467  14.437  19.313  0.00  0.00    +0.000 A 
ATOM     27  C   UNL     1       2.606  13.666  19.062  0.00  0.00    +0.000 A 
ATOM     28  C   UNL     1       3.646  14.173  18.281  0.00  0.00    +0.000 A 
ATOM     29  C   UNL     1       3.554  15.461  17.750  0.00  0.00    +0.000 A 
ATOM     30  C   UNL     1       2.420  16.234  18.000  0.00  0.00    +0.000 A 
ATOM     31  C   UNL     1       1.377  15.726  18.783  0.00  0.00    +0.000 A 
ENDBRANCH  25  26
ENDBRANCH  21  25
ENDBRANCH   1  21
TORSDOF 7
ENDMDL
