MODEL 1
REMARK VINA RESULT:      -8.6      0.000      0.000
REMARK  Name = 
REMARK  8 active torsions:
REMARK  status: ('A' for Active; 'I' for Inactive)
REMARK    1  A    between atoms: C_1  and  C_2
REMARK    2  A    between atoms: C_4  and  C_5
REMARK    3  A    between atoms: C_6  and  N_7
REMARK    4  A    between atoms: C_8  and  C_10
REMARK    5  A    between atoms: C_10  and  O_11
REMARK    6  A    between atoms: O_11  and  C_12
REMARK    7  A    between atoms: C_21  and  C_22
REMARK    8  A    between atoms: C_23  and  C_24
REMARK                            x       y       z     vdW  Elec       q    Type
REMARK                         _______ _______ _______ _____ _____    ______ ____
ROOT
ATOM      1  N   UNL     1       3.282   5.370  18.592  0.00  0.00    +0.000 N 
ATOM      2  C   UNL     1       2.747   4.342  17.815  0.00  0.00    +0.000 C 
ATOM      3  O   UNL     1       1.555   4.204  17.545  0.00  0.00    +0.000 OA
ATOM      4  H   UNL     1       4.168   5.158  19.027  0.00  0.00    +0.000 HD
ENDROOT
BRANCH   1  10
ATOM      5  C   UNL     1       0.299   9.375  21.459  0.00  0.00    +0.000 C 
ATOM      6  C   UNL     1       1.029   8.301  20.708  0.00  0.00    +0.000 A 
ATOM      7  C   UNL     1       1.187   7.014  21.215  0.00  0.00    +0.000 A 
ATOM      8  C   UNL     1       1.913   6.033  20.507  0.00  0.00    +0.000 A 
ATOM      9  C   UNL     1       1.997   4.656  21.113  0.00  0.00    +0.000 C 
ATOM     10  C   UNL     1       2.489   6.350  19.252  0.00  0.00    +0.000 A 
ATOM     11  C   UNL     1       2.367   7.665  18.757  0.00  0.00    +0.000 A 
ATOM     12  C   UNL     1       3.058   8.191  17.530  0.00  0.00    +0.000 C 
ATOM     13  C   UNL     1       1.606   8.608  19.478  0.00  0.00    +0.000 A 
ENDBRANCH   1  10
BRANCH   2  14
ATOM     14  C   UNL     1       3.800   3.327  17.326  0.00  0.00    +0.000 C 
BRANCH  14  15
ATOM     15  O   UNL     1       5.113   3.865  17.572  0.00  0.00    +0.000 OA
BRANCH  15  16
ATOM     16  C   UNL     1       5.778   4.257  16.429  0.00  0.00    +0.000 A 
ATOM     17  N   UNL     1       5.448   3.664  15.263  0.00  0.00    +0.000 NA
ATOM     18  C   UNL     1       6.154   4.024  14.162  0.00  0.00    +0.000 A 
ATOM     19  C   UNL     1       5.870   3.416  12.954  0.00  0.00    +0.000 A 
ATOM     20  C   UNL     1       6.586   3.739  11.796  0.00  0.00    +0.000 A 
ATOM     21  C   UNL     1       7.600   4.686  11.858  0.00  0.00    +0.000 A 
ATOM     22  C   UNL     1       7.894   5.293  13.078  0.00  0.00    +0.000 A 
ATOM     23  C   UNL     1       7.176   4.988  14.232  0.00  0.00    +0.000 A 
ATOM     24  N   UNL     1       7.497   5.581  15.388  0.00  0.00    +0.000 NA
ATOM     25  C   UNL     1       6.805   5.209  16.498  0.00  0.00    +0.000 A 
ATOM     26  C   UNL     1       7.259   5.883  17.754  0.00  0.00    +0.000 C 
ENDBRANCH  15  16
ENDBRANCH  14  15
ENDBRANCH   2  14
TORSDOF 4
ENDMDL
MODEL 2
REMARK VINA RESULT:      -8.4      0.201      1.756
REMARK  Name = 
REMARK  8 active torsions:
REMARK  status: ('A' for Active; 'I' for Inactive)
REMARK    1  A    between atoms: C_1  and  C_2
REMARK    2  A    between atoms: C_4  and  C_5
REMARK    3  A    between atoms: C_6  and  N_7
REMARK    4  A    between atoms: C_8  and  C_10
REMARK    5  A    between atoms: C_10  and  O_11
REMARK    6  A    between atoms: O_11  and  C_12
REMARK    7  A    between atoms: C_21  and  C_22
REMARK    8  A    between atoms: C_23  and  C_24
REMARK                            x       y       z     vdW  Elec       q    Type
REMARK                         _______ _______ _______ _____ _____    ______ ____
ROOT
ATOM      1  N   UNL     1       3.440   5.178  18.675  0.00  0.00    +0.000 N 
ATOM      2  C   UNL     1       2.883   4.252  17.791  0.00  0.00    +0.000 C 
ATOM      3  O   UNL     1       1.702   4.219  17.451  0.00  0.00    +0.000 OA
ATOM      4  H   UNL     1       4.284   4.871  19.137  0.00  0.00    +0.000 HD
ENDROOT
BRANCH   1  10
ATOM      5  C   UNL     1       0.135   9.105  21.287  0.00  0.00    +0.000 C 
ATOM      6  C   UNL     1       1.040   8.114  20.615  0.00  0.00    +0.000 A 
ATOM      7  C   UNL     1       1.712   8.405  19.430  0.00  0.00    +0.000 A 
ATOM      8  C   UNL     1       2.526   7.443  18.795  0.00  0.00    +0.000 A 
ATOM      9  C   UNL     1       3.247   7.859  17.540  0.00  0.00    +0.000 C 
ATOM     10  C   UNL     1       2.677   6.156  19.371  0.00  0.00    +0.000 A 
ATOM     11  C   UNL     1       1.964   5.847  20.547  0.00  0.00    +0.000 A 
ATOM     12  C   UNL     1       1.894   4.484  21.179  0.00  0.00    +0.000 C 
ATOM     13  C   UNL     1       1.186   6.845  21.169  0.00  0.00    +0.000 A 
ENDBRANCH   1  10
BRANCH   2  14
ATOM     14  C   UNL     1       3.894   3.207  17.276  0.00  0.00    +0.000 C 
BRANCH  14  15
ATOM     15  O   UNL     1       5.228   3.691  17.524  0.00  0.00    +0.000 OA
BRANCH  15  16
ATOM     16  C   UNL     1       5.871   4.155  16.394  0.00  0.00    +0.000 A 
ATOM     17  N   UNL     1       5.576   3.582  15.210  0.00  0.00    +0.000 NA
ATOM     18  C   UNL     1       6.261   4.016  14.123  0.00  0.00    +0.000 A 
ATOM     19  C   UNL     1       6.014   3.431  12.896  0.00  0.00    +0.000 A 
ATOM     20  C   UNL     1       6.711   3.831  11.750  0.00  0.00    +0.000 A 
ATOM     21  C   UNL     1       7.669   4.832  11.844  0.00  0.00    +0.000 A 
ATOM     22  C   UNL     1       7.927   5.416  13.083  0.00  0.00    +0.000 A 
ATOM     23  C   UNL     1       7.227   5.035  14.225  0.00  0.00    +0.000 A 
ATOM     24  N   UNL     1       7.512   5.608  15.401  0.00  0.00    +0.000 NA
ATOM     25  C   UNL     1       6.842   5.163  16.496  0.00  0.00    +0.000 A 
ATOM     26  C   UNL     1       7.255   5.821  17.775  0.00  0.00    +0.000 C 
ENDBRANCH  15  16
ENDBRANCH  14  15
ENDBRANCH   2  14
TORSDOF 4
ENDMDL
MODEL 3
REMARK VINA RESULT:      -8.3      2.410      4.106
REMARK  Name = 
REMARK  8 active torsions:
REMARK  status: ('A' for Active; 'I' for Inactive)
REMARK    1  A    between atoms: C_1  and  C_2
REMARK    2  A    between atoms: C_4  and  C_5
REMARK    3  A    between atoms: C_6  and  N_7
REMARK    4  A    between atoms: C_8  and  C_10
REMARK    5  A    between atoms: C_10  and  O_11
REMARK    6  A    between atoms: O_11  and  C_12
REMARK    7  A    between atoms: C_21  and  C_22
REMARK    8  A    between atoms: C_23  and  C_24
REMARK                            x       y       z     vdW  Elec       q    Type
REMARK                         _______ _______ _______ _____ _____    ______ ____
ROOT
ATOM      1  N   UNL     1       2.473   6.528  20.534  0.00  0.00    +0.000 N 
ATOM      2  C   UNL     1       1.799   5.308  20.585  0.00  0.00    +0.000 C 
ATOM      3  O   UNL     1       0.687   5.092  20.105  0.00  0.00    +0.000 OA
ATOM      4  H   UNL     1       3.164   6.664  21.258  0.00  0.00    +0.000 HD
ENDROOT
BRANCH   1  10
ATOM      5  C   UNL     1      -0.006  11.162  18.179  0.00  0.00    +0.000 C 
ATOM      6  C   UNL     1       0.690   9.978  18.783  0.00  0.00    +0.000 A 
ATOM      7  C   UNL     1       1.523   9.145  18.039  0.00  0.00    +0.000 A 
ATOM      8  C   UNL     1       2.134   8.013  18.621  0.00  0.00    +0.000 A 
ATOM      9  C   UNL     1       3.051   7.194  17.751  0.00  0.00    +0.000 C 
ATOM     10  C   UNL     1       1.910   7.715  19.988  0.00  0.00    +0.000 A 
ATOM     11  C   UNL     1       1.033   8.533  20.731  0.00  0.00    +0.000 A 
ATOM     12  C   UNL     1       0.573   8.250  22.134  0.00  0.00    +0.000 C 
ATOM     13  C   UNL     1       0.468   9.672  20.123  0.00  0.00    +0.000 A 
ENDBRANCH   1  10
BRANCH   2  14
ATOM     14  C   UNL     1       2.565   4.211  21.351  0.00  0.00    +0.000 C 
BRANCH  14  15
ATOM     15  O   UNL     1       2.900   3.152  20.434  0.00  0.00    +0.000 OA
BRANCH  15  16
ATOM     16  C   UNL     1       3.746   3.542  19.416  0.00  0.00    +0.000 A 
ATOM     17  N   UNL     1       4.799   4.325  19.725  0.00  0.00    +0.000 NA
ATOM     18  C   UNL     1       5.584   4.742  18.701  0.00  0.00    +0.000 A 
ATOM     19  C   UNL     1       6.653   5.575  18.972  0.00  0.00    +0.000 A 
ATOM     20  C   UNL     1       7.479   6.048  17.945  0.00  0.00    +0.000 A 
ATOM     21  C   UNL     1       7.221   5.677  16.631  0.00  0.00    +0.000 A 
ATOM     22  C   UNL     1       6.137   4.845  16.356  0.00  0.00    +0.000 A 
ATOM     23  C   UNL     1       5.320   4.358  17.374  0.00  0.00    +0.000 A 
ATOM     24  N   UNL     1       4.279   3.574  17.070  0.00  0.00    +0.000 NA
ATOM     25  C   UNL     1       3.478   3.169  18.091  0.00  0.00    +0.000 A 
ATOM     26  C   UNL     1       2.312   2.337  17.659  0.00  0.00    +0.000 C 
ENDBRANCH  15  16
ENDBRANCH  14  15
ENDBRANCH   2  14
TORSDOF 4
ENDMDL
MODEL 4
REMARK VINA RESULT:      -8.2      2.413      3.890
REMARK  Name = 
REMARK  8 active torsions:
REMARK  status: ('A' for Active; 'I' for Inactive)
REMARK    1  A    between atoms: C_1  and  C_2
REMARK    2  A    between atoms: C_4  and  C_5
REMARK    3  A    between atoms: C_6  and  N_7
REMARK    4  A    between atoms: C_8  and  C_10
REMARK    5  A    between atoms: C_10  and  O_11
REMARK    6  A    between atoms: O_11  and  C_12
REMARK    7  A    between atoms: C_21  and  C_22
REMARK    8  A    between atoms: C_23  and  C_24
REMARK                            x       y       z     vdW  Elec       q    Type
REMARK                         _______ _______ _______ _____ _____    ______ ____
ROOT
ATOM      1  N   UNL     1       2.512   6.479  20.497  0.00  0.00    +0.000 N 
ATOM      2  C   UNL     1       1.835   5.261  20.558  0.00  0.00    +0.000 C 
ATOM      3  O   UNL     1       0.740   5.032  20.046  0.00  0.00    +0.000 OA
ATOM      4  H   UNL     1       3.178   6.634  21.241  0.00  0.00    +0.000 HD
ENDROOT
BRANCH   1  10
ATOM      5  C   UNL     1       0.522  11.385  18.232  0.00  0.00    +0.000 C 
ATOM      6  C   UNL     1       0.988  10.090  18.829  0.00  0.00    +0.000 A 
ATOM      7  C   UNL     1       0.719   9.740  20.150  0.00  0.00    +0.000 A 
ATOM      8  C   UNL     1       1.203   8.534  20.701  0.00  0.00    +0.000 A 
ATOM      9  C   UNL     1       0.828   8.219  22.125  0.00  0.00    +0.000 C 
ATOM     10  C   UNL     1       1.970   7.651  19.900  0.00  0.00    +0.000 A 
ATOM     11  C   UNL     1       2.279   8.024  18.576  0.00  0.00    +0.000 A 
ATOM     12  C   UNL     1       3.213   7.275  17.666  0.00  0.00    +0.000 C 
ATOM     13  C   UNL     1       1.751   9.221  18.052  0.00  0.00    +0.000 A 
ENDBRANCH   1  10
BRANCH   2  14
ATOM     14  C   UNL     1       2.573   4.185  21.380  0.00  0.00    +0.000 C 
BRANCH  14  15
ATOM     15  O   UNL     1       2.954   3.109  20.500  0.00  0.00    +0.000 OA
BRANCH  15  16
ATOM     16  C   UNL     1       3.779   3.501  19.466  0.00  0.00    +0.000 A 
ATOM     17  N   UNL     1       4.831   4.295  19.753  0.00  0.00    +0.000 NA
ATOM     18  C   UNL     1       5.595   4.713  18.714  0.00  0.00    +0.000 A 
ATOM     19  C   UNL     1       6.661   5.556  18.961  0.00  0.00    +0.000 A 
ATOM     20  C   UNL     1       7.465   6.030  17.918  0.00  0.00    +0.000 A 
ATOM     21  C   UNL     1       7.189   5.650  16.611  0.00  0.00    +0.000 A 
ATOM     22  C   UNL     1       6.107   4.808  16.359  0.00  0.00    +0.000 A 
ATOM     23  C   UNL     1       5.312   4.319  17.393  0.00  0.00    +0.000 A 
ATOM     24  N   UNL     1       4.273   3.524  17.111  0.00  0.00    +0.000 NA
ATOM     25  C   UNL     1       3.492   3.119  18.147  0.00  0.00    +0.000 A 
ATOM     26  C   UNL     1       2.326   2.274  17.740  0.00  0.00    +0.000 C 
ENDBRANCH  15  16
ENDBRANCH  14  15
ENDBRANCH   2  14
TORSDOF 4
ENDMDL
MODEL 5
REMARK VINA RESULT:      -7.8      3.175      6.073
REMARK  Name = 
REMARK  8 active torsions:
REMARK  status: ('A' for Active; 'I' for Inactive)
REMARK    1  A    between atoms: C_1  and  C_2
REMARK    2  A    between atoms: C_4  and  C_5
REMARK    3  A    between atoms: C_6  and  N_7
REMARK    4  A    between atoms: C_8  and  C_10
REMARK    5  A    between atoms: C_10  and  O_11
REMARK    6  A    between atoms: O_11  and  C_12
REMARK    7  A    between atoms: C_21  and  C_22
REMARK    8  A    between atoms: C_23  and  C_24
REMARK                            x       y       z     vdW  Elec       q    Type
REMARK                         _______ _______ _______ _____ _____    ______ ____
ROOT
ATOM      1  N   UNL     1       0.461   9.426  19.382  0.00  0.00    +0.000 N 
ATOM      2  C   UNL     1       1.479   9.914  18.562  0.00  0.00    +0.000 C 
ATOM      3  O   UNL     1       1.931  11.058  18.598  0.00  0.00    +0.000 OA
ATOM      4  H   UNL     1      -0.046   8.637  19.007  0.00  0.00    +0.000 HD
ENDROOT
BRANCH   1  10
ATOM      5  C   UNL     1      -2.173  12.852  23.187  0.00  0.00    +0.000 C 
ATOM      6  C   UNL     1      -1.510  11.915  22.221  0.00  0.00    +0.000 A 
ATOM      7  C   UNL     1      -0.560  10.981  22.624  0.00  0.00    +0.000 A 
ATOM      8  C   UNL     1       0.080  10.138  21.690  0.00  0.00    +0.000 A 
ATOM      9  C   UNL     1       1.064   9.129  22.222  0.00  0.00    +0.000 C 
ATOM     10  C   UNL     1      -0.251  10.230  20.315  0.00  0.00    +0.000 A 
ATOM     11  C   UNL     1      -1.181  11.205  19.900  0.00  0.00    +0.000 A 
ATOM     12  C   UNL     1      -1.507  11.531  18.469  0.00  0.00    +0.000 C 
ATOM     13  C   UNL     1      -1.822  12.006  20.867  0.00  0.00    +0.000 A 
ENDBRANCH   1  10
BRANCH   2  14
ATOM     14  C   UNL     1       1.994   8.882  17.538  0.00  0.00    +0.000 C 
BRANCH  14  15
ATOM     15  O   UNL     1       3.190   8.271  18.058  0.00  0.00    +0.000 OA
BRANCH  15  16
ATOM     16  C   UNL     1       3.063   6.919  18.304  0.00  0.00    +0.000 A 
ATOM     17  N   UNL     1       2.217   6.522  19.276  0.00  0.00    +0.000 NA
ATOM     18  C   UNL     1       2.150   5.193  19.537  0.00  0.00    +0.000 A 
ATOM     19  C   UNL     1       1.321   4.749  20.549  0.00  0.00    +0.000 A 
ATOM     20  C   UNL     1       1.235   3.389  20.869  0.00  0.00    +0.000 A 
ATOM     21  C   UNL     1       1.997   2.468  20.161  0.00  0.00    +0.000 A 
ATOM     22  C   UNL     1       2.842   2.916  19.147  0.00  0.00    +0.000 A 
ATOM     23  C   UNL     1       2.921   4.266  18.812  0.00  0.00    +0.000 A 
ATOM     24  N   UNL     1       3.755   4.660  17.842  0.00  0.00    +0.000 NA
ATOM     25  C   UNL     1       3.839   5.994  17.590  0.00  0.00    +0.000 A 
ATOM     26  C   UNL     1       4.828   6.353  16.526  0.00  0.00    +0.000 C 
ENDBRANCH  15  16
ENDBRANCH  14  15
ENDBRANCH   2  14
TORSDOF 4
ENDMDL
MODEL 6
REMARK VINA RESULT:      -7.7      2.969      5.232
REMARK  Name = 
REMARK  8 active torsions:
REMARK  status: ('A' for Active; 'I' for Inactive)
REMARK    1  A    between atoms: C_1  and  C_2
REMARK    2  A    between atoms: C_4  and  C_5
REMARK    3  A    between atoms: C_6  and  N_7
REMARK    4  A    between atoms: C_8  and  C_10
REMARK    5  A    between atoms: C_10  and  O_11
REMARK    6  A    between atoms: O_11  and  C_12
REMARK    7  A    between atoms: C_21  and  C_22
REMARK    8  A    between atoms: C_23  and  C_24
REMARK                            x       y       z     vdW  Elec       q    Type
REMARK                         _______ _______ _______ _____ _____    ______ ____
ROOT
ATOM      1  N   UNL     1       1.140  10.364  20.040  0.00  0.00    +0.000 N 
ATOM      2  C   UNL     1       0.709   9.867  18.810  0.00  0.00    +0.000 C 
ATOM      3  O   UNL     1      -0.368  10.131  18.276  0.00  0.00    +0.000 OA
ATOM      4  H   UNL     1       1.832   9.798  20.509  0.00  0.00    +0.000 HD
ENDROOT
BRANCH   1  10
ATOM      5  C   UNL     1      -1.897  13.656  23.660  0.00  0.00    +0.000 C 
ATOM      6  C   UNL     1      -1.153  12.770  22.705  0.00  0.00    +0.000 A 
ATOM      7  C   UNL     1      -1.019  11.400  22.911  0.00  0.00    +0.000 A 
ATOM      8  C   UNL     1      -0.279  10.594  22.019  0.00  0.00    +0.000 A 
ATOM      9  C   UNL     1      -0.223   9.115  22.298  0.00  0.00    +0.000 C 
ATOM     10  C   UNL     1       0.336  11.180  20.883  0.00  0.00    +0.000 A 
ATOM     11  C   UNL     1       0.237  12.574  20.697  0.00  0.00    +0.000 A 
ATOM     12  C   UNL     1       0.967  13.355  19.641  0.00  0.00    +0.000 C 
ATOM     13  C   UNL     1      -0.538  13.340  21.592  0.00  0.00    +0.000 A 
ENDBRANCH   1  10
BRANCH   2  14
ATOM     14  C   UNL     1       1.708   8.893  18.154  0.00  0.00    +0.000 C 
BRANCH  14  15
ATOM     15  O   UNL     1       2.147   7.942  19.144  0.00  0.00    +0.000 OA
BRANCH  15  16
ATOM     16  C   UNL     1       2.866   6.887  18.622  0.00  0.00    +0.000 A 
ATOM     17  N   UNL     1       3.682   7.125  17.575  0.00  0.00    +0.000 NA
ATOM     18  C   UNL     1       4.336   6.062  17.044  0.00  0.00    +0.000 A 
ATOM     19  C   UNL     1       5.156   6.257  15.948  0.00  0.00    +0.000 A 
ATOM     20  C   UNL     1       5.834   5.188  15.353  0.00  0.00    +0.000 A 
ATOM     21  C   UNL     1       5.682   3.907  15.868  0.00  0.00    +0.000 A 
ATOM     22  C   UNL     1       4.848   3.707  16.967  0.00  0.00    +0.000 A 
ATOM     23  C   UNL     1       4.182   4.768  17.575  0.00  0.00    +0.000 A 
ATOM     24  N   UNL     1       3.378   4.535  18.619  0.00  0.00    +0.000 NA
ATOM     25  C   UNL     1       2.705   5.594  19.143  0.00  0.00    +0.000 A 
ATOM     26  C   UNL     1       1.792   5.239  20.274  0.00  0.00    +0.000 C 
ENDBRANCH  15  16
ENDBRANCH  14  15
ENDBRANCH   2  14
TORSDOF 4
ENDMDL
MODEL 7
REMARK VINA RESULT:      -7.7      3.304      6.420
REMARK  Name = 
REMARK  8 active torsions:
REMARK  status: ('A' for Active; 'I' for Inactive)
REMARK    1  A    between atoms: C_1  and  C_2
REMARK    2  A    between atoms: C_4  and  C_5
REMARK    3  A    between atoms: C_6  and  N_7
REMARK    4  A    between atoms: C_8  and  C_10
REMARK    5  A    between atoms: C_10  and  O_11
REMARK    6  A    between atoms: O_11  and  C_12
REMARK    7  A    between atoms: C_21  and  C_22
REMARK    8  A    between atoms: C_23  and  C_24
REMARK                            x       y       z     vdW  Elec       q    Type
REMARK                         _______ _______ _______ _____ _____    ______ ____
ROOT
ATOM      1  N   UNL     1       0.157   9.674  19.573  0.00  0.00    +0.000 N 
ATOM      2  C   UNL     1       1.232  10.042  18.763  0.00  0.00    +0.000 C 
ATOM      3  O   UNL     1       1.821  11.121  18.813  0.00  0.00    +0.000 OA
ATOM      4  H   UNL     1      -0.441   8.956  19.188  0.00  0.00    +0.000 HD
ENDROOT
BRANCH   1  10
ATOM      5  C   UNL     1      -2.580  13.064  23.338  0.00  0.00    +0.000 C 
ATOM      6  C   UNL     1      -1.843  12.226  22.335  0.00  0.00    +0.000 A 
ATOM      7  C   UNL     1      -2.075  12.329  20.966  0.00  0.00    +0.000 A 
ATOM      8  C   UNL     1      -1.399  11.501  20.045  0.00  0.00    +0.000 A 
ATOM      9  C   UNL     1      -1.682  11.710  18.580  0.00  0.00    +0.000 C 
ATOM     10  C   UNL     1      -0.456  10.550  20.511  0.00  0.00    +0.000 A 
ATOM     11  C   UNL     1      -0.252  10.416  21.900  0.00  0.00    +0.000 A 
ATOM     12  C   UNL     1       0.585   9.349  22.548  0.00  0.00    +0.000 C 
ATOM     13  C   UNL     1      -0.923  11.283  22.786  0.00  0.00    +0.000 A 
ENDBRANCH   1  10
BRANCH   2  14
ATOM     14  C   UNL     1       1.623   8.965  17.731  0.00  0.00    +0.000 C 
BRANCH  14  15
ATOM     15  O   UNL     1       2.933   8.461  18.060  0.00  0.00    +0.000 OA
BRANCH  15  16
ATOM     16  C   UNL     1       2.955   7.112  18.347  0.00  0.00    +0.000 A 
ATOM     17  N   UNL     1       2.155   6.654  19.331  0.00  0.00    +0.000 NA
ATOM     18  C   UNL     1       2.235   5.334  19.633  0.00  0.00    +0.000 A 
ATOM     19  C   UNL     1       1.458   4.832  20.659  0.00  0.00    +0.000 A 
ATOM     20  C   UNL     1       1.523   3.481  21.020  0.00  0.00    +0.000 A 
ATOM     21  C   UNL     1       2.382   2.629  20.339  0.00  0.00    +0.000 A 
ATOM     22  C   UNL     1       3.174   3.136  19.311  0.00  0.00    +0.000 A 
ATOM     23  C   UNL     1       3.105   4.476  18.935  0.00  0.00    +0.000 A 
ATOM     24  N   UNL     1       3.892   4.930  17.952  0.00  0.00    +0.000 NA
ATOM     25  C   UNL     1       3.829   6.256  17.660  0.00  0.00    +0.000 A 
ATOM     26  C   UNL     1       4.775   6.690  16.584  0.00  0.00    +0.000 C 
ENDBRANCH  15  16
ENDBRANCH  14  15
ENDBRANCH   2  14
TORSDOF 4
ENDMDL
MODEL 8
REMARK VINA RESULT:      -7.6      3.323      6.275
REMARK  Name = 
REMARK  8 active torsions:
REMARK  status: ('A' for Active; 'I' for Inactive)
REMARK    1  A    between atoms: C_1  and  C_2
REMARK    2  A    between atoms: C_4  and  C_5
REMARK    3  A    between atoms: C_6  and  N_7
REMARK    4  A    between atoms: C_8  and  C_10
REMARK    5  A    between atoms: C_10  and  O_11
REMARK    6  A    between atoms: O_11  and  C_12
REMARK    7  A    between atoms: C_21  and  C_22
REMARK    8  A    between atoms: C_23  and  C_24
REMARK                            x       y       z     vdW  Elec       q    Type
REMARK                         _______ _______ _______ _____ _____    ______ ____
ROOT
ATOM      1  N   UNL     1       1.343   9.851  19.600  0.00  0.00    +0.000 N 
ATOM      2  C   UNL     1       0.791   9.573  18.348  0.00  0.00    +0.000 C 
ATOM      3  O   UNL     1      -0.271  10.028  17.926  0.00  0.00    +0.000 OA
ATOM      4  H   UNL     1       1.983   9.151  19.947  0.00  0.00    +0.000 HD
ENDROOT
BRANCH   1  10
ATOM      5  C   UNL     1      -1.507  13.101  23.404  0.00  0.00    +0.000 C 
ATOM      6  C   UNL     1      -0.717  12.275  22.432  0.00  0.00    +0.000 A 
ATOM      7  C   UNL     1       0.052  12.848  21.422  0.00  0.00    +0.000 A 
ATOM      8  C   UNL     1       0.754  12.049  20.495  0.00  0.00    +0.000 A 
ATOM      9  C   UNL     1       1.594  12.755  19.462  0.00  0.00    +0.000 C 
ATOM     10  C   UNL     1       0.691  10.636  20.590  0.00  0.00    +0.000 A 
ATOM     11  C   UNL     1      -0.122  10.055  21.585  0.00  0.00    +0.000 A 
ATOM     12  C   UNL     1      -0.418   8.586  21.706  0.00  0.00    +0.000 C 
ATOM     13  C   UNL     1      -0.782  10.886  22.513  0.00  0.00    +0.000 A 
ENDBRANCH   1  10
BRANCH   2  14
ATOM     14  C   UNL     1       1.627   8.585  17.511  0.00  0.00    +0.000 C 
BRANCH  14  15
ATOM     15  O   UNL     1       2.865   8.324  18.200  0.00  0.00    +0.000 OA
BRANCH  15  16
ATOM     16  C   UNL     1       3.032   7.005  18.567  0.00  0.00    +0.000 A 
ATOM     17  N   UNL     1       2.325   6.538  19.616  0.00  0.00    +0.000 NA
ATOM     18  C   UNL     1       2.547   5.254  19.993  0.00  0.00    +0.000 A 
ATOM     19  C   UNL     1       1.868   4.748  21.084  0.00  0.00    +0.000 A 
ATOM     20  C   UNL     1       2.081   3.436  21.524  0.00  0.00    +0.000 A 
ATOM     21  C   UNL     1       2.989   2.627  20.853  0.00  0.00    +0.000 A 
ATOM     22  C   UNL     1       3.682   3.140  19.758  0.00  0.00    +0.000 A 
ATOM     23  C   UNL     1       3.466   4.439  19.305  0.00  0.00    +0.000 A 
ATOM     24  N   UNL     1       4.160   4.901  18.259  0.00  0.00    +0.000 NA
ATOM     25  C   UNL     1       3.955   6.193  17.890  0.00  0.00    +0.000 A 
ATOM     26  C   UNL     1       4.806   6.644  16.744  0.00  0.00    +0.000 C 
ENDBRANCH  15  16
ENDBRANCH  14  15
ENDBRANCH   2  14
TORSDOF 4
ENDMDL
MODEL 9
REMARK VINA RESULT:      -7.6      3.425      6.125
REMARK  Name = 
REMARK  8 active torsions:
REMARK  status: ('A' for Active; 'I' for Inactive)
REMARK    1  A    between atoms: C_1  and  C_2
REMARK    2  A    between atoms: C_4  and  C_5
REMARK    3  A    between atoms: C_6  and  N_7
REMARK    4  A    between atoms: C_8  and  C_10
REMARK    5  A    between atoms: C_10  and  O_11
REMARK    6  A    between atoms: O_11  and  C_12
REMARK    7  A    between atoms: C_21  and  C_22
REMARK    8  A    between atoms: C_23  and  C_24
REMARK                            x       y       z     vdW  Elec       q    Type
REMARK                         _______ _______ _______ _____ _____    ______ ____
ROOT
ATOM      1  N   UNL     1       1.288  10.168  19.594  0.00  0.00    +0.000 N 
ATOM      2  C   UNL     1       0.782   9.714  18.376  0.00  0.00    +0.000 C 
ATOM      3  O   UNL     1      -0.325   9.994  17.920  0.00  0.00    +0.000 OA
ATOM      4  H   UNL     1       2.008   9.586  20.000  0.00  0.00    +0.000 HD
ENDROOT
BRANCH   1  10
ATOM      5  C   UNL     1      -1.537  13.290  23.523  0.00  0.00    +0.000 C 
ATOM      6  C   UNL     1      -0.850  12.454  22.484  0.00  0.00    +0.000 A 
ATOM      7  C   UNL     1      -0.829  11.062  22.542  0.00  0.00    +0.000 A 
ATOM      8  C   UNL     1      -0.141  10.300  21.575  0.00  0.00    +0.000 A 
ATOM      9  C   UNL     1      -0.207   8.799  21.694  0.00  0.00    +0.000 C 
ATOM     10  C   UNL     1       0.538  10.951  20.514  0.00  0.00    +0.000 A 
ATOM     11  C   UNL     1       0.553  12.361  20.478  0.00  0.00    +0.000 A 
ATOM     12  C   UNL     1       1.361  13.188  19.517  0.00  0.00    +0.000 C 
ATOM     13  C   UNL     1      -0.173  13.087  21.444  0.00  0.00    +0.000 A 
ENDBRANCH   1  10
BRANCH   2  14
ATOM     14  C   UNL     1       1.739   8.766  17.626  0.00  0.00    +0.000 C 
BRANCH  14  15
ATOM     15  O   UNL     1       2.723   8.270  18.554  0.00  0.00    +0.000 OA
BRANCH  15  16
ATOM     16  C   UNL     1       2.747   6.894  18.659  0.00  0.00    +0.000 A 
ATOM     17  N   UNL     1       1.917   6.307  19.545  0.00  0.00    +0.000 NA
ATOM     18  C   UNL     1       1.997   4.959  19.672  0.00  0.00    +0.000 A 
ATOM     19  C   UNL     1       1.189   4.322  20.593  0.00  0.00    +0.000 A 
ATOM     20  C   UNL     1       1.252   2.935  20.774  0.00  0.00    +0.000 A 
ATOM     21  C   UNL     1       2.142   2.184  20.017  0.00  0.00    +0.000 A 
ATOM     22  C   UNL     1       2.965   2.827  19.094  0.00  0.00    +0.000 A 
ATOM     23  C   UNL     1       2.898   4.204  18.897  0.00  0.00    +0.000 A 
ATOM     24  N   UNL     1       3.715   4.788  18.012  0.00  0.00    +0.000 NA
ATOM     25  C   UNL     1       3.651   6.141  17.896  0.00  0.00    +0.000 A 
ATOM     26  C   UNL     1       4.630   6.717  16.922  0.00  0.00    +0.000 C 
ENDBRANCH  15  16
ENDBRANCH  14  15
ENDBRANCH   2  14
TORSDOF 4
ENDMDL
