MODEL 1
REMARK VINA RESULT:      -8.0      0.000      0.000
REMARK  Name = 
REMARK  6 active torsions:
REMARK  status: ('A' for Active; 'I' for Inactive)
REMARK    1  A    between atoms: C_1  and  C_2
REMARK    2  A    between atoms: C_2  and  C_3
REMARK    3  A    between atoms: C_2  and  N_21
REMARK    4  A    between atoms: C_3  and  N_4
REMARK    5  A    between atoms: N_19  and  C_20
REMARK    6  A    between atoms: C_22  and  C_24
REMARK                            x       y       z     vdW  Elec       q    Type
REMARK                         _______ _______ _______ _____ _____    ______ ____
ROOT
ATOM      1  N   UNL     1       0.644   8.516  20.484  0.00  0.00    +0.000 NA
ATOM      2  C   UNL     1       0.825   9.596  19.512  0.00  0.00    +0.000 C 
ATOM      3  C   UNL     1      -0.409  10.522  19.551  0.00  0.00    +0.000 C 
ATOM      4  C   UNL     1      -0.388  11.406  20.856  0.00  0.00    +0.000 C 
ATOM      5  C   UNL     1       0.253  10.521  21.987  0.00  0.00    +0.000 C 
ATOM      6  C   UNL     1       0.041   9.009  21.735  0.00  0.00    +0.000 C 
ATOM      7  C   UNL     1       0.373  12.662  20.388  0.00  0.00    +0.000 A 
ATOM      8  C   UNL     1       1.767  12.794  20.395  0.00  0.00    +0.000 A 
ATOM      9  C   UNL     1       2.388  13.755  19.587  0.00  0.00    +0.000 A 
ATOM     10  C   UNL     1       1.628  14.629  18.812  0.00  0.00    +0.000 A 
ATOM     11  C   UNL     1       0.246  14.569  18.851  0.00  0.00    +0.000 A 
ATOM     12  C   UNL     1      -0.371  13.579  19.615  0.00  0.00    +0.000 A 
ATOM     13  N   UNL     1      -1.761  13.441  19.528  0.00  0.00    +0.000 N 
ATOM     14  C   UNL     1      -2.503  12.639  20.343  0.00  0.00    +0.000 C 
ATOM     15  O   UNL     1      -3.725  12.750  20.366  0.00  0.00    +0.000 OA
ATOM     16  N   UNL     1      -1.781  11.846  21.224  0.00  0.00    +0.000 N 
ATOM     17  C   UNL     1      -2.148  12.080  22.612  0.00  0.00    +0.000 C 
ATOM     18  H   UNL     1      -2.303  14.088  18.976  0.00  0.00    +0.000 HD
ENDROOT
BRANCH   1  19
ATOM     19  C   UNL     1       1.876   7.723  20.660  0.00  0.00    +0.000 C 
BRANCH  19  21
ATOM     20  C   UNL     1       1.798   5.211  21.018  0.00  0.00    +0.000 C 
ATOM     21  C   UNL     1       1.840   6.327  19.973  0.00  0.00    +0.000 C 
BRANCH  21  22
ATOM     22  N   UNL     1       2.985   6.133  19.082  0.00  0.00    +0.000 N 
ATOM     23  C   UNL     1       2.909   5.296  17.991  0.00  0.00    +0.000 C 
ATOM     24  O   UNL     1       1.914   4.647  17.693  0.00  0.00    +0.000 OA
ATOM     25  H   UNL     1       3.751   6.789  19.162  0.00  0.00    +0.000 HD
BRANCH  23  26
ATOM     26  C   UNL     1       4.118   5.230  17.121  0.00  0.00    +0.000 A 
ATOM     27  C   UNL     1       4.874   6.374  16.812  0.00  0.00    +0.000 A 
ATOM     28  C   UNL     1       6.011   6.249  16.006  0.00  0.00    +0.000 A 
ATOM     29  C   UNL     1       6.384   5.004  15.524  0.00  0.00    +0.000 A 
ATOM     30  F   UNL     1       7.479   4.901  14.757  0.00  0.00    +0.000 F 
ATOM     31  C   UNL     1       5.653   3.866  15.832  0.00  0.00    +0.000 A 
ATOM     32  C   UNL     1       4.518   3.975  16.637  0.00  0.00    +0.000 A 
ENDBRANCH  23  26
ENDBRANCH  21  22
ENDBRANCH  19  21
ENDBRANCH   1  19
TORSDOF 4
ENDMDL
MODEL 2
REMARK VINA RESULT:      -7.7      3.880      9.728
REMARK  Name = 
REMARK  6 active torsions:
REMARK  status: ('A' for Active; 'I' for Inactive)
REMARK    1  A    between atoms: C_1  and  C_2
REMARK    2  A    between atoms: C_2  and  C_3
REMARK    3  A    between atoms: C_2  and  N_21
REMARK    4  A    between atoms: C_3  and  N_4
REMARK    5  A    between atoms: N_19  and  C_20
REMARK    6  A    between atoms: C_22  and  C_24
REMARK                            x       y       z     vdW  Elec       q    Type
REMARK                         _______ _______ _______ _____ _____    ______ ____
ROOT
ATOM      1  N   UNL     1       2.167   7.653  18.560  0.00  0.00    +0.000 NA
ATOM      2  C   UNL     1       3.584   7.543  18.211  0.00  0.00    +0.000 C 
ATOM      3  C   UNL     1       4.157   6.251  18.834  0.00  0.00    +0.000 C 
ATOM      4  C   UNL     1       3.645   4.989  18.043  0.00  0.00    +0.000 C 
ATOM      5  C   UNL     1       2.184   5.322  17.563  0.00  0.00    +0.000 C 
ATOM      6  C   UNL     1       1.487   6.348  18.487  0.00  0.00    +0.000 C 
ATOM      7  C   UNL     1       4.742   4.802  16.977  0.00  0.00    +0.000 A 
ATOM      8  C   UNL     1       4.761   5.450  15.735  0.00  0.00    +0.000 A 
ATOM      9  C   UNL     1       5.959   5.564  15.018  0.00  0.00    +0.000 A 
ATOM     10  C   UNL     1       7.133   4.988  15.500  0.00  0.00    +0.000 A 
ATOM     11  C   UNL     1       7.120   4.275  16.687  0.00  0.00    +0.000 A 
ATOM     12  C   UNL     1       5.939   4.204  17.426  0.00  0.00    +0.000 A 
ATOM     13  N   UNL     1       5.980   3.605  18.689  0.00  0.00    +0.000 N 
ATOM     14  C   UNL     1       4.877   3.316  19.436  0.00  0.00    +0.000 C 
ATOM     15  O   UNL     1       4.974   2.583  20.416  0.00  0.00    +0.000 OA
ATOM     16  N   UNL     1       3.669   3.764  18.920  0.00  0.00    +0.000 N 
ATOM     17  C   UNL     1       2.715   2.684  18.721  0.00  0.00    +0.000 C 
ATOM     18  H   UNL     1       6.832   3.177  19.023  0.00  0.00    +0.000 HD
ENDROOT
BRANCH   1  19
ATOM     19  C   UNL     1       1.501   8.742  17.818  0.00  0.00    +0.000 C 
BRANCH  19  21
ATOM     20  C   UNL     1       1.072   9.505  20.200  0.00  0.00    +0.000 C 
ATOM     21  C   UNL     1       0.902   9.858  18.721  0.00  0.00    +0.000 C 
BRANCH  21  22
ATOM     22  N   UNL     1      -0.510  10.096  18.424  0.00  0.00    +0.000 N 
ATOM     23  C   UNL     1      -1.040  11.367  18.434  0.00  0.00    +0.000 C 
ATOM     24  O   UNL     1      -0.399  12.375  18.706  0.00  0.00    +0.000 OA
ATOM     25  H   UNL     1      -1.029   9.337  18.000  0.00  0.00    +0.000 HD
BRANCH  23  26
ATOM     26  C   UNL     1      -2.475  11.491  18.052  0.00  0.00    +0.000 A 
ATOM     27  C   UNL     1      -2.932  11.156  16.766  0.00  0.00    +0.000 A 
ATOM     28  C   UNL     1      -4.295  11.272  16.468  0.00  0.00    +0.000 A 
ATOM     29  C   UNL     1      -5.180  11.711  17.440  0.00  0.00    +0.000 A 
ATOM     30  F   UNL     1      -6.483  11.813  17.140  0.00  0.00    +0.000 F 
ATOM     31  C   UNL     1      -4.743  12.033  18.717  0.00  0.00    +0.000 A 
ATOM     32  C   UNL     1      -3.388  11.919  19.028  0.00  0.00    +0.000 A 
ENDBRANCH  23  26
ENDBRANCH  21  22
ENDBRANCH  19  21
ENDBRANCH   1  19
TORSDOF 4
ENDMDL
MODEL 3
REMARK VINA RESULT:      -7.7      1.987      2.976
REMARK  Name = 
REMARK  6 active torsions:
REMARK  status: ('A' for Active; 'I' for Inactive)
REMARK    1  A    between atoms: C_1  and  C_2
REMARK    2  A    between atoms: C_2  and  C_3
REMARK    3  A    between atoms: C_2  and  N_21
REMARK    4  A    between atoms: C_3  and  N_4
REMARK    5  A    between atoms: N_19  and  C_20
REMARK    6  A    between atoms: C_22  and  C_24
REMARK                            x       y       z     vdW  Elec       q    Type
REMARK                         _______ _______ _______ _____ _____    ______ ____
ROOT
ATOM      1  N   UNL     1      -0.973  10.237  18.604  0.00  0.00    +0.000 NA
ATOM      2  C   UNL     1      -1.498  11.583  18.368  0.00  0.00    +0.000 C 
ATOM      3  C   UNL     1      -2.444  11.964  19.526  0.00  0.00    +0.000 C 
ATOM      4  C   UNL     1      -1.615  12.284  20.827  0.00  0.00    +0.000 C 
ATOM      5  C   UNL     1      -0.367  11.327  20.811  0.00  0.00    +0.000 C 
ATOM      6  C   UNL     1      -0.642  10.024  20.024  0.00  0.00    +0.000 C 
ATOM      7  C   UNL     1      -1.377  13.802  20.699  0.00  0.00    +0.000 A 
ATOM      8  C   UNL     1      -0.314  14.382  19.998  0.00  0.00    +0.000 A 
ATOM      9  C   UNL     1      -0.392  15.715  19.573  0.00  0.00    +0.000 A 
ATOM     10  C   UNL     1      -1.501  16.497  19.891  0.00  0.00    +0.000 A 
ATOM     11  C   UNL     1      -2.529  15.967  20.653  0.00  0.00    +0.000 A 
ATOM     12  C   UNL     1      -2.474  14.626  21.031  0.00  0.00    +0.000 A 
ATOM     13  N   UNL     1      -3.585  14.070  21.674  0.00  0.00    +0.000 N 
ATOM     14  C   UNL     1      -3.599  12.834  22.248  0.00  0.00    +0.000 C 
ATOM     15  O   UNL     1      -4.521  12.513  22.992  0.00  0.00    +0.000 OA
ATOM     16  N   UNL     1      -2.454  12.072  22.060  0.00  0.00    +0.000 N 
ATOM     17  C   UNL     1      -1.845  11.665  23.317  0.00  0.00    +0.000 C 
ATOM     18  H   UNL     1      -4.377  14.648  21.914  0.00  0.00    +0.000 HD
ENDROOT
BRANCH   1  19
ATOM     19  C   UNL     1       0.106   9.894  17.657  0.00  0.00    +0.000 C 
BRANCH  19  21
ATOM     20  C   UNL     1       2.271  11.162  18.037  0.00  0.00    +0.000 C 
ATOM     21  C   UNL     1       1.525   9.851  18.293  0.00  0.00    +0.000 C 
BRANCH  21  22
ATOM     22  N   UNL     1       2.311   8.724  17.790  0.00  0.00    +0.000 N 
ATOM     23  C   UNL     1       2.513   7.594  18.552  0.00  0.00    +0.000 C 
ATOM     24  O   UNL     1       2.082   7.449  19.689  0.00  0.00    +0.000 OA
ATOM     25  H   UNL     1       2.513   8.706  16.798  0.00  0.00    +0.000 HD
BRANCH  23  26
ATOM     26  C   UNL     1       3.274   6.487  17.907  0.00  0.00    +0.000 A 
ATOM     27  C   UNL     1       2.840   5.152  17.972  0.00  0.00    +0.000 A 
ATOM     28  C   UNL     1       3.585   4.155  17.331  0.00  0.00    +0.000 A 
ATOM     29  C   UNL     1       4.737   4.491  16.638  0.00  0.00    +0.000 A 
ATOM     30  F   UNL     1       5.437   3.524  16.026  0.00  0.00    +0.000 F 
ATOM     31  C   UNL     1       5.170   5.806  16.557  0.00  0.00    +0.000 A 
ATOM     32  C   UNL     1       4.435   6.811  17.189  0.00  0.00    +0.000 A 
ENDBRANCH  23  26
ENDBRANCH  21  22
ENDBRANCH  19  21
ENDBRANCH   1  19
TORSDOF 4
ENDMDL
MODEL 4
REMARK VINA RESULT:      -7.5      1.898      2.760
REMARK  Name = 
REMARK  6 active torsions:
REMARK  status: ('A' for Active; 'I' for Inactive)
REMARK    1  A    between atoms: C_1  and  C_2
REMARK    2  A    between atoms: C_2  and  C_3
REMARK    3  A    between atoms: C_2  and  N_21
REMARK    4  A    between atoms: C_3  and  N_4
REMARK    5  A    between atoms: N_19  and  C_20
REMARK    6  A    between atoms: C_22  and  C_24
REMARK                            x       y       z     vdW  Elec       q    Type
REMARK                         _______ _______ _______ _____ _____    ______ ____
ROOT
ATOM      1  N   UNL     1      -0.960  10.261  18.697  0.00  0.00    +0.000 NA
ATOM      2  C   UNL     1      -1.373  11.617  18.331  0.00  0.00    +0.000 C 
ATOM      3  C   UNL     1      -2.236  12.205  19.468  0.00  0.00    +0.000 C 
ATOM      4  C   UNL     1      -1.331  12.585  20.701  0.00  0.00    +0.000 C 
ATOM      5  C   UNL     1      -0.174  11.521  20.753  0.00  0.00    +0.000 C 
ATOM      6  C   UNL     1      -0.593  10.172  20.122  0.00  0.00    +0.000 C 
ATOM      7  C   UNL     1      -0.966  14.052  20.400  0.00  0.00    +0.000 A 
ATOM      8  C   UNL     1       0.116  14.454  19.608  0.00  0.00    +0.000 A 
ATOM      9  C   UNL     1       0.138  15.735  19.042  0.00  0.00    +0.000 A 
ATOM     10  C   UNL     1      -0.884  16.645  19.305  0.00  0.00    +0.000 A 
ATOM     11  C   UNL     1      -1.924  16.296  20.150  0.00  0.00    +0.000 A 
ATOM     12  C   UNL     1      -1.972  15.003  20.672  0.00  0.00    +0.000 A 
ATOM     13  N   UNL     1      -3.102  14.624  21.404  0.00  0.00    +0.000 N 
ATOM     14  C   UNL     1      -3.202  13.462  22.110  0.00  0.00    +0.000 C 
ATOM     15  O   UNL     1      -4.118  13.308  22.912  0.00  0.00    +0.000 OA
ATOM     16  N   UNL     1      -2.137  12.584  21.974  0.00  0.00    +0.000 N 
ATOM     17  C   UNL     1      -1.517  12.258  23.250  0.00  0.00    +0.000 C 
ATOM     18  H   UNL     1      -3.830  15.295  21.602  0.00  0.00    +0.000 HD
ENDROOT
BRANCH   1  19
ATOM     19  C   UNL     1       0.047   9.722  17.763  0.00  0.00    +0.000 C 
BRANCH  19  21
ATOM     20  C   UNL     1       2.172  11.093  17.977  0.00  0.00    +0.000 C 
ATOM     21  C   UNL     1       1.505   9.755  18.304  0.00  0.00    +0.000 C 
BRANCH  21  22
ATOM     22  N   UNL     1       2.307   8.655  17.770  0.00  0.00    +0.000 N 
ATOM     23  C   UNL     1       2.570   7.530  18.519  0.00  0.00    +0.000 C 
ATOM     24  O   UNL     1       2.184   7.368  19.670  0.00  0.00    +0.000 OA
ATOM     25  H   UNL     1       2.475   8.646  16.771  0.00  0.00    +0.000 HD
BRANCH  23  26
ATOM     26  C   UNL     1       3.342   6.448  17.844  0.00  0.00    +0.000 A 
ATOM     27  C   UNL     1       4.496   6.721  17.089  0.00  0.00    +0.000 A 
ATOM     28  C   UNL     1       5.193   5.663  16.493  0.00  0.00    +0.000 A 
ATOM     29  C   UNL     1       4.745   4.362  16.655  0.00  0.00    +0.000 A 
ATOM     30  F   UNL     1       5.428   3.360  16.082  0.00  0.00    +0.000 F 
ATOM     31  C   UNL     1       3.615   4.079  17.408  0.00  0.00    +0.000 A 
ATOM     32  C   UNL     1       2.912   5.123  18.010  0.00  0.00    +0.000 A 
ENDBRANCH  23  26
ENDBRANCH  21  22
ENDBRANCH  19  21
ENDBRANCH   1  19
TORSDOF 4
ENDMDL
MODEL 5
REMARK VINA RESULT:      -7.5      1.779      3.342
REMARK  Name = 
REMARK  6 active torsions:
REMARK  status: ('A' for Active; 'I' for Inactive)
REMARK    1  A    between atoms: C_1  and  C_2
REMARK    2  A    between atoms: C_2  and  C_3
REMARK    3  A    between atoms: C_2  and  N_21
REMARK    4  A    between atoms: C_3  and  N_4
REMARK    5  A    between atoms: N_19  and  C_20
REMARK    6  A    between atoms: C_22  and  C_24
REMARK                            x       y       z     vdW  Elec       q    Type
REMARK                         _______ _______ _______ _____ _____    ______ ____
ROOT
ATOM      1  N   UNL     1       0.854  10.356  19.514  0.00  0.00    +0.000 NA
ATOM      2  C   UNL     1      -0.563   9.992  19.526  0.00  0.00    +0.000 C 
ATOM      3  C   UNL     1      -1.343  11.026  20.366  0.00  0.00    +0.000 C 
ATOM      4  C   UNL     1      -1.480  12.382  19.574  0.00  0.00    +0.000 C 
ATOM      5  C   UNL     1      -0.161  12.545  18.732  0.00  0.00    +0.000 C 
ATOM      6  C   UNL     1       1.038  11.813  19.380  0.00  0.00    +0.000 C 
ATOM      7  C   UNL     1      -2.810  12.188  18.821  0.00  0.00    +0.000 A 
ATOM      8  C   UNL     1      -2.934  11.562  17.574  0.00  0.00    +0.000 A 
ATOM      9  C   UNL     1      -4.171  11.055  17.160  0.00  0.00    +0.000 A 
ATOM     10  C   UNL     1      -5.306  11.215  17.953  0.00  0.00    +0.000 A 
ATOM     11  C   UNL     1      -5.224  11.901  19.152  0.00  0.00    +0.000 A 
ATOM     12  C   UNL     1      -3.982  12.362  19.589  0.00  0.00    +0.000 A 
ATOM     13  N   UNL     1      -3.892  12.923  20.867  0.00  0.00    +0.000 N 
ATOM     14  C   UNL     1      -2.789  13.564  21.347  0.00  0.00    +0.000 C 
ATOM     15  O   UNL     1      -2.865  14.231  22.374  0.00  0.00    +0.000 OA
ATOM     16  N   UNL     1      -1.673  13.536  20.523  0.00  0.00    +0.000 N 
ATOM     17  C   UNL     1      -1.198  14.869  20.183  0.00  0.00    +0.000 C 
ATOM     18  H   UNL     1      -4.722  13.049  21.428  0.00  0.00    +0.000 HD
ENDROOT
BRANCH   1  19
ATOM     19  C   UNL     1       1.623   9.543  18.553  0.00  0.00    +0.000 C 
BRANCH  19  21
ATOM     20  C   UNL     1       1.841   7.899  20.474  0.00  0.00    +0.000 C 
ATOM     21  C   UNL     1       1.767   8.046  18.953  0.00  0.00    +0.000 C 
BRANCH  21  22
ATOM     22  N   UNL     1       2.941   7.430  18.335  0.00  0.00    +0.000 N 
ATOM     23  C   UNL     1       2.933   6.112  17.935  0.00  0.00    +0.000 C 
ATOM     24  O   UNL     1       1.977   5.360  18.078  0.00  0.00    +0.000 OA
ATOM     25  H   UNL     1       3.675   8.050  18.013  0.00  0.00    +0.000 HD
BRANCH  23  26
ATOM     26  C   UNL     1       4.165   5.616  17.260  0.00  0.00    +0.000 A 
ATOM     27  C   UNL     1       4.308   4.273  16.870  0.00  0.00    +0.000 A 
ATOM     28  C   UNL     1       5.479   3.866  16.221  0.00  0.00    +0.000 A 
ATOM     29  C   UNL     1       6.483   4.787  15.965  0.00  0.00    +0.000 A 
ATOM     30  F   UNL     1       7.597   4.382  15.338  0.00  0.00    +0.000 F 
ATOM     31  C   UNL     1       6.349   6.118  16.333  0.00  0.00    +0.000 A 
ATOM     32  C   UNL     1       5.185   6.537  16.979  0.00  0.00    +0.000 A 
ENDBRANCH  23  26
ENDBRANCH  21  22
ENDBRANCH  19  21
ENDBRANCH   1  19
TORSDOF 4
ENDMDL
MODEL 6
REMARK VINA RESULT:      -7.5      3.311      5.114
REMARK  Name = 
REMARK  6 active torsions:
REMARK  status: ('A' for Active; 'I' for Inactive)
REMARK    1  A    between atoms: C_1  and  C_2
REMARK    2  A    between atoms: C_2  and  C_3
REMARK    3  A    between atoms: C_2  and  N_21
REMARK    4  A    between atoms: C_3  and  N_4
REMARK    5  A    between atoms: N_19  and  C_20
REMARK    6  A    between atoms: C_22  and  C_24
REMARK                            x       y       z     vdW  Elec       q    Type
REMARK                         _______ _______ _______ _____ _____    ______ ____
ROOT
ATOM      1  N   UNL     1       1.507  12.372  20.525  0.00  0.00    +0.000 NA
ATOM      2  C   UNL     1       0.963  13.595  21.118  0.00  0.00    +0.000 C 
ATOM      3  C   UNL     1       1.919  14.769  20.818  0.00  0.00    +0.000 C 
ATOM      4  C   UNL     1       1.803  15.196  19.306  0.00  0.00    +0.000 C 
ATOM      5  C   UNL     1       1.523  13.882  18.488  0.00  0.00    +0.000 C 
ATOM      6  C   UNL     1       2.086  12.626  19.194  0.00  0.00    +0.000 C 
ATOM      7  C   UNL     1       0.706  16.278  19.354  0.00  0.00    +0.000 A 
ATOM      8  C   UNL     1      -0.668  16.018  19.283  0.00  0.00    +0.000 A 
ATOM      9  C   UNL     1      -1.589  16.965  19.748  0.00  0.00    +0.000 A 
ATOM     10  C   UNL     1      -1.157  18.198  20.232  0.00  0.00    +0.000 A 
ATOM     11  C   UNL     1       0.192  18.508  20.236  0.00  0.00    +0.000 A 
ATOM     12  C   UNL     1       1.113  17.545  19.822  0.00  0.00    +0.000 A 
ATOM     13  N   UNL     1       2.476  17.822  19.970  0.00  0.00    +0.000 N 
ATOM     14  C   UNL     1       3.474  17.052  19.452  0.00  0.00    +0.000 C 
ATOM     15  O   UNL     1       4.624  17.479  19.418  0.00  0.00    +0.000 OA
ATOM     16  N   UNL     1       3.068  15.872  18.844  0.00  0.00    +0.000 N 
ATOM     17  C   UNL     1       3.498  15.784  17.457  0.00  0.00    +0.000 C 
ATOM     18  H   UNL     1       2.779  18.724  20.308  0.00  0.00    +0.000 HD
ENDROOT
BRANCH   1  19
ATOM     19  C   UNL     1       0.541  11.258  20.580  0.00  0.00    +0.000 C 
BRANCH  19  21
ATOM     20  C   UNL     1      -1.055  10.230  18.895  0.00  0.00    +0.000 C 
ATOM     21  C   UNL     1       0.416  10.455  19.253  0.00  0.00    +0.000 C 
BRANCH  21  22
ATOM     22  N   UNL     1       1.112   9.170  19.329  0.00  0.00    +0.000 N 
ATOM     23  C   UNL     1       1.948   8.748  18.319  0.00  0.00    +0.000 C 
ATOM     24  O   UNL     1       2.157   9.382  17.292  0.00  0.00    +0.000 OA
ATOM     25  H   UNL     1       1.136   8.708  20.229  0.00  0.00    +0.000 HD
BRANCH  23  26
ATOM     26  C   UNL     1       2.651   7.452  18.539  0.00  0.00    +0.000 A 
ATOM     27  C   UNL     1       3.662   7.000  17.672  0.00  0.00    +0.000 A 
ATOM     28  C   UNL     1       4.303   5.785  17.939  0.00  0.00    +0.000 A 
ATOM     29  C   UNL     1       3.940   5.041  19.051  0.00  0.00    +0.000 A 
ATOM     30  F   UNL     1       4.567   3.881  19.294  0.00  0.00    +0.000 F 
ATOM     31  C   UNL     1       2.953   5.482  19.919  0.00  0.00    +0.000 A 
ATOM     32  C   UNL     1       2.308   6.694  19.668  0.00  0.00    +0.000 A 
ENDBRANCH  23  26
ENDBRANCH  21  22
ENDBRANCH  19  21
ENDBRANCH   1  19
TORSDOF 4
ENDMDL
MODEL 7
REMARK VINA RESULT:      -7.5      5.053      7.220
REMARK  Name = 
REMARK  6 active torsions:
REMARK  status: ('A' for Active; 'I' for Inactive)
REMARK    1  A    between atoms: C_1  and  C_2
REMARK    2  A    between atoms: C_2  and  C_3
REMARK    3  A    between atoms: C_2  and  N_21
REMARK    4  A    between atoms: C_3  and  N_4
REMARK    5  A    between atoms: N_19  and  C_20
REMARK    6  A    between atoms: C_22  and  C_24
REMARK                            x       y       z     vdW  Elec       q    Type
REMARK                         _______ _______ _______ _____ _____    ______ ____
ROOT
ATOM      1  N   UNL     1       2.206  13.978  18.690  0.00  0.00    +0.000 NA
ATOM      2  C   UNL     1       1.047  14.420  19.467  0.00  0.00    +0.000 C 
ATOM      3  C   UNL     1      -0.227  13.775  18.881  0.00  0.00    +0.000 C 
ATOM      4  C   UNL     1      -0.289  12.246  19.259  0.00  0.00    +0.000 C 
ATOM      5  C   UNL     1       1.196  11.727  19.272  0.00  0.00    +0.000 C 
ATOM      6  C   UNL     1       2.110  12.551  18.335  0.00  0.00    +0.000 C 
ATOM      7  C   UNL     1      -1.071  12.267  20.586  0.00  0.00    +0.000 A 
ATOM      8  C   UNL     1      -0.490  12.453  21.847  0.00  0.00    +0.000 A 
ATOM      9  C   UNL     1      -1.273  12.876  22.928  0.00  0.00    +0.000 A 
ATOM     10  C   UNL     1      -2.646  13.062  22.781  0.00  0.00    +0.000 A 
ATOM     11  C   UNL     1      -3.255  12.807  21.564  0.00  0.00    +0.000 A 
ATOM     12  C   UNL     1      -2.468  12.436  20.474  0.00  0.00    +0.000 A 
ATOM     13  N   UNL     1      -3.078  12.324  19.220  0.00  0.00    +0.000 N 
ATOM     14  C   UNL     1      -2.470  11.805  18.116  0.00  0.00    +0.000 C 
ATOM     15  O   UNL     1      -3.136  11.522  17.125  0.00  0.00    +0.000 OA
ATOM     16  N   UNL     1      -1.128  11.486  18.265  0.00  0.00    +0.000 N 
ATOM     17  C   UNL     1      -0.853  10.087  17.971  0.00  0.00    +0.000 C 
ATOM     18  H   UNL     1      -4.076  12.446  19.127  0.00  0.00    +0.000 HD
ENDROOT
BRANCH   1  19
ATOM     19  C   UNL     1       3.478  14.376  19.325  0.00  0.00    +0.000 C 
BRANCH  19  21
ATOM     20  C   UNL     1       3.598  15.757  17.199  0.00  0.00    +0.000 C 
ATOM     21  C   UNL     1       4.343  15.347  18.471  0.00  0.00    +0.000 C 
BRANCH  21  22
ATOM     22  N   UNL     1       5.636  14.757  18.123  0.00  0.00    +0.000 N 
ATOM     23  C   UNL     1       6.817  15.421  18.371  0.00  0.00    +0.000 C 
ATOM     24  O   UNL     1       6.883  16.537  18.870  0.00  0.00    +0.000 OA
ATOM     25  H   UNL     1       5.650  13.769  17.900  0.00  0.00    +0.000 HD
BRANCH  23  26
ATOM     26  C   UNL     1       8.072  14.692  18.032  0.00  0.00    +0.000 A 
ATOM     27  C   UNL     1       9.313  15.347  17.956  0.00  0.00    +0.000 A 
ATOM     28  C   UNL     1      10.463  14.608  17.654  0.00  0.00    +0.000 A 
ATOM     29  C   UNL     1      10.369  13.242  17.435  0.00  0.00    +0.000 A 
ATOM     30  F   UNL     1      11.481  12.549  17.151  0.00  0.00    +0.000 F 
ATOM     31  C   UNL     1       9.152  12.583  17.519  0.00  0.00    +0.000 A 
ATOM     32  C   UNL     1       7.998  13.306  17.823  0.00  0.00    +0.000 A 
ENDBRANCH  23  26
ENDBRANCH  21  22
ENDBRANCH  19  21
ENDBRANCH   1  19
TORSDOF 4
ENDMDL
MODEL 8
REMARK VINA RESULT:      -7.3      3.344      5.162
REMARK  Name = 
REMARK  6 active torsions:
REMARK  status: ('A' for Active; 'I' for Inactive)
REMARK    1  A    between atoms: C_1  and  C_2
REMARK    2  A    between atoms: C_2  and  C_3
REMARK    3  A    between atoms: C_2  and  N_21
REMARK    4  A    between atoms: C_3  and  N_4
REMARK    5  A    between atoms: N_19  and  C_20
REMARK    6  A    between atoms: C_22  and  C_24
REMARK                            x       y       z     vdW  Elec       q    Type
REMARK                         _______ _______ _______ _____ _____    ______ ____
ROOT
ATOM      1  N   UNL     1       1.233  12.213  20.107  0.00  0.00    +0.000 NA
ATOM      2  C   UNL     1       0.731  13.487  20.623  0.00  0.00    +0.000 C 
ATOM      3  C   UNL     1       1.863  14.535  20.565  0.00  0.00    +0.000 C 
ATOM      4  C   UNL     1       2.112  14.991  19.077  0.00  0.00    +0.000 C 
ATOM      5  C   UNL     1       1.848  13.732  18.173  0.00  0.00    +0.000 C 
ATOM      6  C   UNL     1       2.099  12.407  18.930  0.00  0.00    +0.000 C 
ATOM      7  C   UNL     1       1.167  16.201  18.943  0.00  0.00    +0.000 A 
ATOM      8  C   UNL     1      -0.185  16.117  18.588  0.00  0.00    +0.000 A 
ATOM      9  C   UNL     1      -1.060  17.167  18.891  0.00  0.00    +0.000 A 
ATOM     10  C   UNL     1      -0.590  18.331  19.498  0.00  0.00    +0.000 A 
ATOM     11  C   UNL     1       0.757  18.468  19.786  0.00  0.00    +0.000 A 
ATOM     12  C   UNL     1       1.620  17.402  19.531  0.00  0.00    +0.000 A 
ATOM     13  N   UNL     1       2.947  17.503  19.960  0.00  0.00    +0.000 N 
ATOM     14  C   UNL     1       3.929  16.620  19.626  0.00  0.00    +0.000 C 
ATOM     15  O   UNL     1       5.105  16.899  19.840  0.00  0.00    +0.000 OA
ATOM     16  N   UNL     1       3.517  15.508  18.906  0.00  0.00    +0.000 N 
ATOM     17  C   UNL     1       4.208  15.382  17.631  0.00  0.00    +0.000 C 
ATOM     18  H   UNL     1       3.281  18.356  20.385  0.00  0.00    +0.000 HD
ENDROOT
BRANCH   1  19
ATOM     19  C   UNL     1       0.149  11.228  19.925  0.00  0.00    +0.000 C 
BRANCH  19  21
ATOM     20  C   UNL     1      -1.101  10.104  18.024  0.00  0.00    +0.000 C 
ATOM     21  C   UNL     1       0.277  10.368  18.634  0.00  0.00    +0.000 C 
BRANCH  21  22
ATOM     22  N   UNL     1       0.958   9.100  18.893  0.00  0.00    +0.000 N 
ATOM     23  C   UNL     1       2.024   8.689  18.124  0.00  0.00    +0.000 C 
ATOM     24  O   UNL     1       2.465   9.321  17.172  0.00  0.00    +0.000 OA
ATOM     25  H   UNL     1       0.770   8.644  19.778  0.00  0.00    +0.000 HD
BRANCH  23  26
ATOM     26  C   UNL     1       2.677   7.411  18.524  0.00  0.00    +0.000 A 
ATOM     27  C   UNL     1       2.299   6.716  19.686  0.00  0.00    +0.000 A 
ATOM     28  C   UNL     1       2.933   5.509  20.003  0.00  0.00    +0.000 A 
ATOM     29  C   UNL     1       3.923   5.010  19.171  0.00  0.00    +0.000 A 
ATOM     30  F   UNL     1       4.518   3.851  19.487  0.00  0.00    +0.000 F 
ATOM     31  C   UNL     1       4.298   5.680  18.016  0.00  0.00    +0.000 A 
ATOM     32  C   UNL     1       3.671   6.883  17.686  0.00  0.00    +0.000 A 
ENDBRANCH  23  26
ENDBRANCH  21  22
ENDBRANCH  19  21
ENDBRANCH   1  19
TORSDOF 4
ENDMDL
MODEL 9
REMARK VINA RESULT:      -7.3      3.505      9.351
REMARK  Name = 
REMARK  6 active torsions:
REMARK  status: ('A' for Active; 'I' for Inactive)
REMARK    1  A    between atoms: C_1  and  C_2
REMARK    2  A    between atoms: C_2  and  C_3
REMARK    3  A    between atoms: C_2  and  N_21
REMARK    4  A    between atoms: C_3  and  N_4
REMARK    5  A    between atoms: N_19  and  C_20
REMARK    6  A    between atoms: C_22  and  C_24
REMARK                            x       y       z     vdW  Elec       q    Type
REMARK                         _______ _______ _______ _____ _____    ______ ____
ROOT
ATOM      1  N   UNL     1       2.227   7.778  18.532  0.00  0.00    +0.000 NA
ATOM      2  C   UNL     1       3.640   7.620  18.186  0.00  0.00    +0.000 C 
ATOM      3  C   UNL     1       4.172   6.317  18.820  0.00  0.00    +0.000 C 
ATOM      4  C   UNL     1       3.621   5.064  18.038  0.00  0.00    +0.000 C 
ATOM      5  C   UNL     1       2.173   5.439  17.554  0.00  0.00    +0.000 C 
ATOM      6  C   UNL     1       1.506   6.493  18.469  0.00  0.00    +0.000 C 
ATOM      7  C   UNL     1       4.714   4.835  16.975  0.00  0.00    +0.000 A 
ATOM      8  C   UNL     1       4.754   5.472  15.728  0.00  0.00    +0.000 A 
ATOM      9  C   UNL     1       5.955   5.543  15.012  0.00  0.00    +0.000 A 
ATOM     10  C   UNL     1       7.110   4.935  15.500  0.00  0.00    +0.000 A 
ATOM     11  C   UNL     1       7.074   4.231  16.692  0.00  0.00    +0.000 A 
ATOM     12  C   UNL     1       5.891   4.204  17.430  0.00  0.00    +0.000 A 
ATOM     13  N   UNL     1       5.912   3.614  18.698  0.00  0.00    +0.000 N 
ATOM     14  C   UNL     1       4.800   3.366  19.446  0.00  0.00    +0.000 C 
ATOM     15  O   UNL     1       4.873   2.638  20.431  0.00  0.00    +0.000 OA
ATOM     16  N   UNL     1       3.607   3.846  18.925  0.00  0.00    +0.000 N 
ATOM     17  C   UNL     1       2.619   2.795  18.733  0.00  0.00    +0.000 C 
ATOM     18  H   UNL     1       6.749   3.162  19.036  0.00  0.00    +0.000 HD
ENDROOT
BRANCH   1  19
ATOM     19  C   UNL     1       1.596   8.880  17.781  0.00  0.00    +0.000 C 
BRANCH  19  21
ATOM     20  C   UNL     1      -0.592   9.889  18.575  0.00  0.00    +0.000 C 
ATOM     21  C   UNL     1       0.932   9.966  18.676  0.00  0.00    +0.000 C 
BRANCH  21  22
ATOM     22  N   UNL     1       1.387  11.311  18.324  0.00  0.00    +0.000 N 
ATOM     23  C   UNL     1       1.407  12.327  19.255  0.00  0.00    +0.000 C 
ATOM     24  O   UNL     1       1.037  12.200  20.415  0.00  0.00    +0.000 OA
ATOM     25  H   UNL     1       1.888  11.418  17.451  0.00  0.00    +0.000 HD
BRANCH  23  26
ATOM     26  C   UNL     1       1.953  13.636  18.796  0.00  0.00    +0.000 A 
ATOM     27  C   UNL     1       1.232  14.833  18.945  0.00  0.00    +0.000 A 
ATOM     28  C   UNL     1       1.802  16.037  18.514  0.00  0.00    +0.000 A 
ATOM     29  C   UNL     1       3.068  16.039  17.950  0.00  0.00    +0.000 A 
ATOM     30  F   UNL     1       3.602  17.201  17.546  0.00  0.00    +0.000 F 
ATOM     31  C   UNL     1       3.794  14.865  17.808  0.00  0.00    +0.000 A 
ATOM     32  C   UNL     1       3.239  13.659  18.237  0.00  0.00    +0.000 A 
ENDBRANCH  23  26
ENDBRANCH  21  22
ENDBRANCH  19  21
ENDBRANCH   1  19
TORSDOF 4
ENDMDL
