MODEL 1
REMARK VINA RESULT:      -8.0      0.000      0.000
REMARK  Name = 
REMARK  3 active torsions:
REMARK  status: ('A' for Active; 'I' for Inactive)
REMARK    1  A    between atoms: C_7  and  N_8
REMARK    2  A    between atoms: C_12  and  N_13
REMARK    3  A    between atoms: N_23  and  C_24
REMARK                            x       y       z     vdW  Elec       q    Type
REMARK                         _______ _______ _______ _____ _____    ______ ____
ROOT
ATOM      1  C   UNL     1       3.003   2.550  21.207  0.00  0.00    +0.000 A 
ATOM      2  C   UNL     1       2.345   3.761  21.323  0.00  0.00    +0.000 A 
ATOM      3  C   UNL     1       2.654   4.738  20.366  0.00  0.00    +0.000 A 
ATOM      4  C   UNL     1       2.194   6.064  20.137  0.00  0.00    +0.000 A 
ATOM      5  C   UNL     1       1.282   6.889  20.793  0.00  0.00    +0.000 A 
ATOM      6  N   UNL     1       1.067   8.146  20.359  0.00  0.00    +0.000 NA
ATOM      7  C   UNL     1       1.683   8.606  19.250  0.00  0.00    +0.000 A 
ATOM      8  C   UNL     1       2.526   7.811  18.485  0.00  0.00    +0.000 A 
ATOM      9  C   UNL     1       2.833   6.548  18.994  0.00  0.00    +0.000 A 
ATOM     10  N   UNL     1       3.752   5.596  18.608  0.00  0.00    +0.000 N 
ATOM     11  C   UNL     1       3.603   4.455  19.385  0.00  0.00    +0.000 A 
ATOM     12  C   UNL     1       4.219   3.206  19.328  0.00  0.00    +0.000 A 
ATOM     13  N   UNL     1       3.911   2.261  20.248  0.00  0.00    +0.000 NA
ENDROOT
BRANCH   7  14
ATOM     14  N   UNL     1       1.597   9.962  18.904  0.00  0.00    +0.000 N 
ATOM     15  C   UNL     1       0.660  10.870  19.385  0.00  0.00    +0.000 A 
ATOM     16  C   UNL     1       0.167  10.813  20.686  0.00  0.00    +0.000 A 
ATOM     17  C   UNL     1      -0.851  11.674  21.077  0.00  0.00    +0.000 A 
ATOM     18  C   UNL     1      -1.333  12.614  20.178  0.00  0.00    +0.000 A 
ATOM     19  C   UNL     1      -0.706  12.649  18.930  0.00  0.00    +0.000 A 
ATOM     20  N   UNL     1       0.267  11.811  18.510  0.00  0.00    +0.000 NA
ATOM     21  H   UNL     1       1.754  10.152  17.924  0.00  0.00    +0.000 HD
BRANCH  18  22
ATOM     22  N   UNL     1      -2.351  13.505  20.474  0.00  0.00    +0.000 N 
ATOM     23  C   UNL     1      -2.071  14.698  21.282  0.00  0.00    +0.000 C 
ATOM     24  C   UNL     1      -3.186  15.728  21.000  0.00  0.00    +0.000 C 
ATOM     25  N   UNL     1      -4.548  15.217  21.276  0.00  0.00    +0.000 NA
ATOM     26  C   UNL     1      -4.762  13.931  20.578  0.00  0.00    +0.000 C 
ATOM     27  C   UNL     1      -3.648  12.890  20.820  0.00  0.00    +0.000 C 
ATOM     28  H   UNL     1      -5.222  15.893  20.922  0.00  0.00    +0.000 HD
ENDBRANCH  18  22
ENDBRANCH   7  14
BRANCH  10  29
ATOM     29  C   UNL     1       4.773   5.749  17.584  0.00  0.00    +0.000 C 
ATOM     30  C   UNL     1       6.191   5.866  18.139  0.00  0.00    +0.000 C 
ATOM     31  C   UNL     1       7.051   6.161  16.921  0.00  0.00    +0.000 C 
ATOM     32  S   UNL     1       6.416   5.042  15.634  0.00  0.00    +0.000 S 
ATOM     33  C   UNL     1       4.838   4.678  16.490  0.00  0.00    +0.000 C 
ENDBRANCH  10  29
TORSDOF 3
ENDMDL
MODEL 2
REMARK VINA RESULT:      -8.0      0.828      1.190
REMARK  Name = 
REMARK  3 active torsions:
REMARK  status: ('A' for Active; 'I' for Inactive)
REMARK    1  A    between atoms: C_7  and  N_8
REMARK    2  A    between atoms: C_12  and  N_13
REMARK    3  A    between atoms: N_23  and  C_24
REMARK                            x       y       z     vdW  Elec       q    Type
REMARK                         _______ _______ _______ _____ _____    ______ ____
ROOT
ATOM      1  C   UNL     1       2.828   2.809  21.331  0.00  0.00    +0.000 A 
ATOM      2  C   UNL     1       2.214   4.047  21.392  0.00  0.00    +0.000 A 
ATOM      3  C   UNL     1       2.549   4.964  20.386  0.00  0.00    +0.000 A 
ATOM      4  C   UNL     1       2.134   6.293  20.095  0.00  0.00    +0.000 A 
ATOM      5  C   UNL     1       1.258   7.181  20.715  0.00  0.00    +0.000 A 
ATOM      6  N   UNL     1       1.084   8.423  20.221  0.00  0.00    +0.000 NA
ATOM      7  C   UNL     1       1.706   8.805  19.086  0.00  0.00    +0.000 A 
ATOM      8  C   UNL     1       2.513   7.943  18.356  0.00  0.00    +0.000 A 
ATOM      9  C   UNL     1       2.780   6.697  18.925  0.00  0.00    +0.000 A 
ATOM     10  N   UNL     1       3.661   5.695  18.579  0.00  0.00    +0.000 N 
ATOM     11  C   UNL     1       3.479   4.599  19.413  0.00  0.00    +0.000 A 
ATOM     12  C   UNL     1       4.050   3.328  19.413  0.00  0.00    +0.000 A 
ATOM     13  N   UNL     1       3.716   2.441  20.382  0.00  0.00    +0.000 NA
ENDROOT
BRANCH   7  14
ATOM     14  N   UNL     1       1.665  10.144  18.674  0.00  0.00    +0.000 N 
ATOM     15  C   UNL     1       0.994  11.177  19.320  0.00  0.00    +0.000 A 
ATOM     16  C   UNL     1       0.879  11.238  20.706  0.00  0.00    +0.000 A 
ATOM     17  C   UNL     1       0.101  12.230  21.291  0.00  0.00    +0.000 A 
ATOM     18  C   UNL     1      -0.514  13.178  20.487  0.00  0.00    +0.000 A 
ATOM     19  C   UNL     1      -0.257  13.083  19.117  0.00  0.00    +0.000 A 
ATOM     20  N   UNL     1       0.472  12.118  18.515  0.00  0.00    +0.000 NA
ATOM     21  H   UNL     1       1.563  10.269  17.677  0.00  0.00    +0.000 HD
BRANCH  18  22
ATOM     22  N   UNL     1      -1.314  14.196  20.979  0.00  0.00    +0.000 N 
ATOM     23  C   UNL     1      -2.688  13.907  21.410  0.00  0.00    +0.000 C 
ATOM     24  C   UNL     1      -3.125  15.034  22.371  0.00  0.00    +0.000 C 
ATOM     25  N   UNL     1      -3.037  16.387  21.775  0.00  0.00    +0.000 NA
ATOM     26  C   UNL     1      -1.691  16.607  21.204  0.00  0.00    +0.000 C 
ATOM     27  C   UNL     1      -1.215  15.481  20.260  0.00  0.00    +0.000 C 
ATOM     28  H   UNL     1      -3.192  17.072  22.511  0.00  0.00    +0.000 HD
ENDBRANCH  18  22
ENDBRANCH   7  14
BRANCH  10  29
ATOM     29  C   UNL     1       4.677   5.760  17.541  0.00  0.00    +0.000 C 
ATOM     30  C   UNL     1       6.104   5.856  18.080  0.00  0.00    +0.000 C 
ATOM     31  C   UNL     1       6.962   6.059  16.842  0.00  0.00    +0.000 C 
ATOM     32  S   UNL     1       6.279   4.899  15.619  0.00  0.00    +0.000 S 
ATOM     33  C   UNL     1       4.696   4.634  16.504  0.00  0.00    +0.000 C 
ENDBRANCH  10  29
TORSDOF 3
ENDMDL
MODEL 3
REMARK VINA RESULT:      -8.0      3.301      9.861
REMARK  Name = 
REMARK  3 active torsions:
REMARK  status: ('A' for Active; 'I' for Inactive)
REMARK    1  A    between atoms: C_7  and  N_8
REMARK    2  A    between atoms: C_12  and  N_13
REMARK    3  A    between atoms: N_23  and  C_24
REMARK                            x       y       z     vdW  Elec       q    Type
REMARK                         _______ _______ _______ _____ _____    ______ ____
ROOT
ATOM      1  C   UNL     1      -1.394  15.428  24.331  0.00  0.00    +0.000 A 
ATOM      2  C   UNL     1      -1.530  14.207  23.695  0.00  0.00    +0.000 A 
ATOM      3  C   UNL     1      -0.644  13.949  22.640  0.00  0.00    +0.000 A 
ATOM      4  C   UNL     1      -0.454  12.838  21.772  0.00  0.00    +0.000 A 
ATOM      5  C   UNL     1      -1.090  11.605  21.639  0.00  0.00    +0.000 A 
ATOM      6  N   UNL     1      -0.708  10.742  20.677  0.00  0.00    +0.000 NA
ATOM      7  C   UNL     1       0.336  11.029  19.871  0.00  0.00    +0.000 A 
ATOM      8  C   UNL     1       1.084  12.190  20.009  0.00  0.00    +0.000 A 
ATOM      9  C   UNL     1       0.620  13.131  20.930  0.00  0.00    +0.000 A 
ATOM     10  N   UNL     1       0.994  14.433  21.186  0.00  0.00    +0.000 N 
ATOM     11  C   UNL     1       0.287  14.921  22.277  0.00  0.00    +0.000 A 
ATOM     12  C   UNL     1       0.368  16.126  22.972  0.00  0.00    +0.000 A 
ATOM     13  N   UNL     1      -0.482  16.368  23.998  0.00  0.00    +0.000 NA
ENDROOT
BRANCH   7  14
ATOM     14  N   UNL     1       0.617  10.217  18.764  0.00  0.00    +0.000 N 
ATOM     15  C   UNL     1       1.405   9.070  18.770  0.00  0.00    +0.000 A 
ATOM     16  C   UNL     1       1.444   8.200  19.857  0.00  0.00    +0.000 A 
ATOM     17  C   UNL     1       2.334   7.133  19.855  0.00  0.00    +0.000 A 
ATOM     18  C   UNL     1       3.142   6.920  18.748  0.00  0.00    +0.000 A 
ATOM     19  C   UNL     1       2.958   7.795  17.675  0.00  0.00    +0.000 A 
ATOM     20  N   UNL     1       2.121   8.856  17.654  0.00  0.00    +0.000 NA
ATOM     21  H   UNL     1       0.799  10.726  17.910  0.00  0.00    +0.000 HD
BRANCH  18  22
ATOM     22  N   UNL     1       4.065   5.891  18.660  0.00  0.00    +0.000 N 
ATOM     23  C   UNL     1       5.190   5.991  17.722  0.00  0.00    +0.000 C 
ATOM     24  C   UNL     1       6.292   5.024  18.207  0.00  0.00    +0.000 C 
ATOM     25  N   UNL     1       5.836   3.621  18.329  0.00  0.00    +0.000 NA
ATOM     26  C   UNL     1       4.608   3.552  19.151  0.00  0.00    +0.000 C 
ATOM     27  C   UNL     1       3.498   4.529  18.706  0.00  0.00    +0.000 C 
ATOM     28  H   UNL     1       6.567   3.086  18.795  0.00  0.00    +0.000 HD
ENDBRANCH  18  22
ENDBRANCH   7  14
BRANCH  10  29
ATOM     29  C   UNL     1       1.943  15.224  20.418  0.00  0.00    +0.000 C 
ATOM     30  C   UNL     1       3.347  14.625  20.367  0.00  0.00    +0.000 C 
ATOM     31  C   UNL     1       4.181  15.677  19.654  0.00  0.00    +0.000 C 
ATOM     32  S   UNL     1       3.127  16.239  18.280  0.00  0.00    +0.000 S 
ATOM     33  C   UNL     1       1.574  15.553  18.968  0.00  0.00    +0.000 C 
ENDBRANCH  10  29
TORSDOF 3
ENDMDL
MODEL 4
REMARK VINA RESULT:      -7.9      1.001      1.251
REMARK  Name = 
REMARK  3 active torsions:
REMARK  status: ('A' for Active; 'I' for Inactive)
REMARK    1  A    between atoms: C_7  and  N_8
REMARK    2  A    between atoms: C_12  and  N_13
REMARK    3  A    between atoms: N_23  and  C_24
REMARK                            x       y       z     vdW  Elec       q    Type
REMARK                         _______ _______ _______ _____ _____    ______ ____
ROOT
ATOM      1  C   UNL     1       3.367   2.234  21.020  0.00  0.00    +0.000 A 
ATOM      2  C   UNL     1       2.645   3.395  21.230  0.00  0.00    +0.000 A 
ATOM      3  C   UNL     1       2.858   4.440  20.321  0.00  0.00    +0.000 A 
ATOM      4  C   UNL     1       2.314   5.747  20.186  0.00  0.00    +0.000 A 
ATOM      5  C   UNL     1       1.382   6.478  20.922  0.00  0.00    +0.000 A 
ATOM      6  N   UNL     1       1.078   7.743  20.570  0.00  0.00    +0.000 NA
ATOM      7  C   UNL     1       1.622   8.299  19.467  0.00  0.00    +0.000 A 
ATOM      8  C   UNL     1       2.479   7.601  18.628  0.00  0.00    +0.000 A 
ATOM      9  C   UNL     1       2.878   6.332  19.051  0.00  0.00    +0.000 A 
ATOM     10  N   UNL     1       3.834   5.460  18.577  0.00  0.00    +0.000 N 
ATOM     11  C   UNL     1       3.783   4.270  19.291  0.00  0.00    +0.000 A 
ATOM     12  C   UNL     1       4.467   3.066  19.139  0.00  0.00    +0.000 A 
ATOM     13  N   UNL     1       4.251   2.054  20.014  0.00  0.00    +0.000 NA
ENDROOT
BRANCH   7  14
ATOM     14  N   UNL     1       1.444   9.665  19.205  0.00  0.00    +0.000 N 
ATOM     15  C   UNL     1       0.692  10.553  19.967  0.00  0.00    +0.000 A 
ATOM     16  C   UNL     1       0.601  10.452  21.352  0.00  0.00    +0.000 A 
ATOM     17  C   UNL     1      -0.255  11.295  22.051  0.00  0.00    +0.000 A 
ATOM     18  C   UNL     1      -0.975  12.260  21.362  0.00  0.00    +0.000 A 
ATOM     19  C   UNL     1      -0.741  12.337  19.987  0.00  0.00    +0.000 A 
ATOM     20  N   UNL     1       0.065  11.519  19.275  0.00  0.00    +0.000 NA
ATOM     21  H   UNL     1       1.309   9.886  18.228  0.00  0.00    +0.000 HD
BRANCH  18  22
ATOM     22  N   UNL     1      -1.859  13.136  21.971  0.00  0.00    +0.000 N 
ATOM     23  C   UNL     1      -2.673  14.044  21.154  0.00  0.00    +0.000 C 
ATOM     24  C   UNL     1      -3.888  14.477  22.003  0.00  0.00    +0.000 C 
ATOM     25  N   UNL     1      -3.516  15.118  23.284  0.00  0.00    +0.000 NA
ATOM     26  C   UNL     1      -2.570  14.260  24.029  0.00  0.00    +0.000 C 
ATOM     27  C   UNL     1      -1.358  13.788  23.196  0.00  0.00    +0.000 C 
ATOM     28  H   UNL     1      -4.359  15.230  23.843  0.00  0.00    +0.000 HD
ENDBRANCH  18  22
ENDBRANCH   7  14
BRANCH  10  29
ATOM     29  C   UNL     1       4.803   5.731  17.527  0.00  0.00    +0.000 C 
ATOM     30  C   UNL     1       6.240   5.855  18.030  0.00  0.00    +0.000 C 
ATOM     31  C   UNL     1       7.035   6.277  16.805  0.00  0.00    +0.000 C 
ATOM     32  S   UNL     1       6.381   5.241  15.460  0.00  0.00    +0.000 S 
ATOM     33  C   UNL     1       4.854   4.753  16.348  0.00  0.00    +0.000 C 
ENDBRANCH  10  29
TORSDOF 3
ENDMDL
MODEL 5
REMARK VINA RESULT:      -7.9      2.623      4.068
REMARK  Name = 
REMARK  3 active torsions:
REMARK  status: ('A' for Active; 'I' for Inactive)
REMARK    1  A    between atoms: C_7  and  N_8
REMARK    2  A    between atoms: C_12  and  N_13
REMARK    3  A    between atoms: N_23  and  C_24
REMARK                            x       y       z     vdW  Elec       q    Type
REMARK                         _______ _______ _______ _____ _____    ______ ____
ROOT
ATOM      1  C   UNL     1       5.198   5.829  15.754  0.00  0.00    +0.000 A 
ATOM      2  C   UNL     1       4.581   7.016  16.105  0.00  0.00    +0.000 A 
ATOM      3  C   UNL     1       3.751   6.981  17.234  0.00  0.00    +0.000 A 
ATOM      4  C   UNL     1       2.976   7.964  17.909  0.00  0.00    +0.000 A 
ATOM      5  C   UNL     1       2.739   9.319  17.685  0.00  0.00    +0.000 A 
ATOM      6  N   UNL     1       1.907  10.007  18.491  0.00  0.00    +0.000 NA
ATOM      7  C   UNL     1       1.341   9.414  19.563  0.00  0.00    +0.000 A 
ATOM      8  C   UNL     1       1.608   8.097  19.911  0.00  0.00    +0.000 A 
ATOM      9  C   UNL     1       2.381   7.355  19.016  0.00  0.00    +0.000 A 
ATOM     10  N   UNL     1       2.678   6.011  18.949  0.00  0.00    +0.000 N 
ATOM     11  C   UNL     1       3.575   5.777  17.915  0.00  0.00    +0.000 A 
ATOM     12  C   UNL     1       4.239   4.622  17.504  0.00  0.00    +0.000 A 
ATOM     13  N   UNL     1       5.048   4.662  16.419  0.00  0.00    +0.000 NA
ENDROOT
BRANCH   7  14
ATOM     14  N   UNL     1       0.344  10.077  20.292  0.00  0.00    +0.000 N 
ATOM     15  C   UNL     1      -0.884  10.504  19.797  0.00  0.00    +0.000 A 
ATOM     16  C   UNL     1      -1.581   9.793  18.824  0.00  0.00    +0.000 A 
ATOM     17  C   UNL     1      -2.747  10.324  18.284  0.00  0.00    +0.000 A 
ATOM     18  C   UNL     1      -3.227  11.537  18.755  0.00  0.00    +0.000 A 
ATOM     19  C   UNL     1      -2.502  12.122  19.797  0.00  0.00    +0.000 A 
ATOM     20  N   UNL     1      -1.354  11.645  20.327  0.00  0.00    +0.000 NA
ATOM     21  H   UNL     1       0.693  10.778  20.931  0.00  0.00    +0.000 HD
BRANCH  18  22
ATOM     22  N   UNL     1      -4.371  12.148  18.271  0.00  0.00    +0.000 N 
ATOM     23  C   UNL     1      -5.451  12.522  19.193  0.00  0.00    +0.000 C 
ATOM     24  C   UNL     1      -6.297  13.616  18.506  0.00  0.00    +0.000 C 
ATOM     25  N   UNL     1      -6.848  13.201  17.196  0.00  0.00    +0.000 NA
ATOM     26  C   UNL     1      -5.769  12.679  16.330  0.00  0.00    +0.000 C 
ATOM     27  C   UNL     1      -4.889  11.603  17.000  0.00  0.00    +0.000 C 
ATOM     28  H   UNL     1      -7.256  14.019  16.747  0.00  0.00    +0.000 HD
ENDBRANCH  18  22
ENDBRANCH   7  14
BRANCH  10  29
ATOM     29  C   UNL     1       2.115   4.961  19.783  0.00  0.00    +0.000 C 
ATOM     30  C   UNL     1       1.410   3.859  18.994  0.00  0.00    +0.000 C 
ATOM     31  C   UNL     1       0.787   2.972  20.060  0.00  0.00    +0.000 C 
ATOM     32  S   UNL     1       2.075   2.818  21.335  0.00  0.00    +0.000 S 
ATOM     33  C   UNL     1       3.065   4.244  20.747  0.00  0.00    +0.000 C 
ENDBRANCH  10  29
TORSDOF 3
ENDMDL
MODEL 6
REMARK VINA RESULT:      -7.8      3.130     10.176
REMARK  Name = 
REMARK  3 active torsions:
REMARK  status: ('A' for Active; 'I' for Inactive)
REMARK    1  A    between atoms: C_7  and  N_8
REMARK    2  A    between atoms: C_12  and  N_13
REMARK    3  A    between atoms: N_23  and  C_24
REMARK                            x       y       z     vdW  Elec       q    Type
REMARK                         _______ _______ _______ _____ _____    ______ ____
ROOT
ATOM      1  C   UNL     1      -2.534  14.473  24.053  0.00  0.00    +0.000 A 
ATOM      2  C   UNL     1      -1.472  13.826  23.449  0.00  0.00    +0.000 A 
ATOM      3  C   UNL     1      -1.705  13.294  22.173  0.00  0.00    +0.000 A 
ATOM      4  C   UNL     1      -0.891  12.594  21.241  0.00  0.00    +0.000 A 
ATOM      5  C   UNL     1       0.433  12.160  21.261  0.00  0.00    +0.000 A 
ATOM      6  N   UNL     1       0.939  11.469  20.220  0.00  0.00    +0.000 NA
ATOM      7  C   UNL     1       0.194  11.241  19.118  0.00  0.00    +0.000 A 
ATOM      8  C   UNL     1      -1.098  11.730  18.982  0.00  0.00    +0.000 A 
ATOM      9  C   UNL     1      -1.658  12.348  20.101  0.00  0.00    +0.000 A 
ATOM     10  N   UNL     1      -2.941  12.770  20.375  0.00  0.00    +0.000 N 
ATOM     11  C   UNL     1      -2.971  13.420  21.603  0.00  0.00    +0.000 A 
ATOM     12  C   UNL     1      -3.991  14.094  22.272  0.00  0.00    +0.000 A 
ATOM     13  N   UNL     1      -3.759  14.616  23.500  0.00  0.00    +0.000 NA
ENDROOT
BRANCH   7  14
ATOM     14  N   UNL     1       0.658  10.376  18.118  0.00  0.00    +0.000 N 
ATOM     15  C   UNL     1       1.394   9.213  18.321  0.00  0.00    +0.000 A 
ATOM     16  C   UNL     1       1.195   8.389  19.426  0.00  0.00    +0.000 A 
ATOM     17  C   UNL     1       2.036   7.303  19.637  0.00  0.00    +0.000 A 
ATOM     18  C   UNL     1       3.035   7.024  18.716  0.00  0.00    +0.000 A 
ATOM     19  C   UNL     1       3.089   7.856  17.596  0.00  0.00    +0.000 A 
ATOM     20  N   UNL     1       2.304   8.934  17.373  0.00  0.00    +0.000 NA
ATOM     21  H   UNL     1       1.018  10.843  17.298  0.00  0.00    +0.000 HD
BRANCH  18  22
ATOM     22  N   UNL     1       3.925   5.970  18.848  0.00  0.00    +0.000 N 
ATOM     23  C   UNL     1       5.213   6.005  18.145  0.00  0.00    +0.000 C 
ATOM     24  C   UNL     1       6.169   5.034  18.871  0.00  0.00    +0.000 C 
ATOM     25  N   UNL     1       5.655   3.648  18.952  0.00  0.00    +0.000 NA
ATOM     26  C   UNL     1       4.289   3.642  19.520  0.00  0.00    +0.000 C 
ATOM     27  C   UNL     1       3.317   4.625  18.832  0.00  0.00    +0.000 C 
ATOM     28  H   UNL     1       6.264   3.116  19.571  0.00  0.00    +0.000 HD
ENDBRANCH  18  22
ENDBRANCH   7  14
BRANCH  10  29
ATOM     29  C   UNL     1      -4.119  12.542  19.554  0.00  0.00    +0.000 C 
ATOM     30  C   UNL     1      -3.891  11.555  18.410  0.00  0.00    +0.000 C 
ATOM     31  C   UNL     1      -5.187  11.588  17.618  0.00  0.00    +0.000 C 
ATOM     32  S   UNL     1      -6.495  11.588  18.883  0.00  0.00    +0.000 S 
ATOM     33  C   UNL     1      -5.393  12.073  20.264  0.00  0.00    +0.000 C 
ENDBRANCH  10  29
TORSDOF 3
ENDMDL
MODEL 7
REMARK VINA RESULT:      -7.7      2.387      3.931
REMARK  Name = 
REMARK  3 active torsions:
REMARK  status: ('A' for Active; 'I' for Inactive)
REMARK    1  A    between atoms: C_7  and  N_8
REMARK    2  A    between atoms: C_12  and  N_13
REMARK    3  A    between atoms: N_23  and  C_24
REMARK                            x       y       z     vdW  Elec       q    Type
REMARK                         _______ _______ _______ _____ _____    ______ ____
ROOT
ATOM      1  C   UNL     1       5.471   5.614  16.168  0.00  0.00    +0.000 A 
ATOM      2  C   UNL     1       4.808   6.806  16.395  0.00  0.00    +0.000 A 
ATOM      3  C   UNL     1       3.863   6.811  17.431  0.00  0.00    +0.000 A 
ATOM      4  C   UNL     1       3.011   7.813  17.973  0.00  0.00    +0.000 A 
ATOM      5  C   UNL     1       2.787   9.152  17.661  0.00  0.00    +0.000 A 
ATOM      6  N   UNL     1       1.867   9.865  18.342  0.00  0.00    +0.000 NA
ATOM      7  C   UNL     1       1.196   9.313  19.374  0.00  0.00    +0.000 A 
ATOM      8  C   UNL     1       1.437   8.017  19.810  0.00  0.00    +0.000 A 
ATOM      9  C   UNL     1       2.308   7.246  19.037  0.00  0.00    +0.000 A 
ATOM     10  N   UNL     1       2.623   5.905  19.065  0.00  0.00    +0.000 N 
ATOM     11  C   UNL     1       3.627   5.637  18.144  0.00  0.00    +0.000 A 
ATOM     12  C   UNL     1       4.341   4.475  17.861  0.00  0.00    +0.000 A 
ATOM     13  N   UNL     1       5.261   4.476  16.867  0.00  0.00    +0.000 NA
ENDROOT
BRANCH   7  14
ATOM     14  N   UNL     1       0.121   9.994  19.962  0.00  0.00    +0.000 N 
ATOM     15  C   UNL     1      -0.175  11.344  19.807  0.00  0.00    +0.000 A 
ATOM     16  C   UNL     1       0.053  12.024  18.613  0.00  0.00    +0.000 A 
ATOM     17  C   UNL     1      -0.153  13.396  18.550  0.00  0.00    +0.000 A 
ATOM     18  C   UNL     1      -0.631  14.067  19.666  0.00  0.00    +0.000 A 
ATOM     19  C   UNL     1      -0.916  13.277  20.783  0.00  0.00    +0.000 A 
ATOM     20  N   UNL     1      -0.703  11.947  20.885  0.00  0.00    +0.000 NA
ATOM     21  H   UNL     1      -0.061   9.734  20.922  0.00  0.00    +0.000 HD
BRANCH  18  22
ATOM     22  N   UNL     1      -0.857  15.433  19.700  0.00  0.00    +0.000 N 
ATOM     23  C   UNL     1      -0.377  16.285  18.605  0.00  0.00    +0.000 C 
ATOM     24  C   UNL     1      -1.203  17.589  18.628  0.00  0.00    +0.000 C 
ATOM     25  N   UNL     1      -1.135  18.309  19.920  0.00  0.00    +0.000 NA
ATOM     26  C   UNL     1      -1.470  17.396  21.033  0.00  0.00    +0.000 C 
ATOM     27  C   UNL     1      -0.679  16.070  21.020  0.00  0.00    +0.000 C 
ATOM     28  H   UNL     1      -1.819  19.063  19.903  0.00  0.00    +0.000 HD
ENDBRANCH  18  22
ENDBRANCH   7  14
BRANCH  10  29
ATOM     29  C   UNL     1       1.984   4.886  19.883  0.00  0.00    +0.000 C 
ATOM     30  C   UNL     1       1.387   3.733  19.078  0.00  0.00    +0.000 C 
ATOM     31  C   UNL     1       0.661   2.887  20.111  0.00  0.00    +0.000 C 
ATOM     32  S   UNL     1       1.800   2.821  21.528  0.00  0.00    +0.000 S 
ATOM     33  C   UNL     1       2.830   4.235  20.983  0.00  0.00    +0.000 C 
ENDBRANCH  10  29
TORSDOF 3
ENDMDL
MODEL 8
REMARK VINA RESULT:      -7.7      2.561      4.092
REMARK  Name = 
REMARK  3 active torsions:
REMARK  status: ('A' for Active; 'I' for Inactive)
REMARK    1  A    between atoms: C_7  and  N_8
REMARK    2  A    between atoms: C_12  and  N_13
REMARK    3  A    between atoms: N_23  and  C_24
REMARK                            x       y       z     vdW  Elec       q    Type
REMARK                         _______ _______ _______ _____ _____    ______ ____
ROOT
ATOM      1  C   UNL     1       5.808   5.537  16.415  0.00  0.00    +0.000 A 
ATOM      2  C   UNL     1       5.097   6.719  16.520  0.00  0.00    +0.000 A 
ATOM      3  C   UNL     1       4.062   6.746  17.465  0.00  0.00    +0.000 A 
ATOM      4  C   UNL     1       3.139   7.747  17.876  0.00  0.00    +0.000 A 
ATOM      5  C   UNL     1       2.909   9.062  17.476  0.00  0.00    +0.000 A 
ATOM      6  N   UNL     1       1.914   9.779  18.033  0.00  0.00    +0.000 NA
ATOM      7  C   UNL     1       1.165   9.259  19.029  0.00  0.00    +0.000 A 
ATOM      8  C   UNL     1       1.399   7.994  19.551  0.00  0.00    +0.000 A 
ATOM      9  C   UNL     1       2.356   7.213  18.901  0.00  0.00    +0.000 A 
ATOM     10  N   UNL     1       2.702   5.884  19.027  0.00  0.00    +0.000 N 
ATOM     11  C   UNL     1       3.792   5.602  18.215  0.00  0.00    +0.000 A 
ATOM     12  C   UNL     1       4.559   4.450  18.057  0.00  0.00    +0.000 A 
ATOM     13  N   UNL     1       5.566   4.430  17.151  0.00  0.00    +0.000 NA
ENDROOT
BRANCH   7  14
ATOM     14  N   UNL     1       0.024   9.935  19.482  0.00  0.00    +0.000 N 
ATOM     15  C   UNL     1       0.009  11.133  20.188  0.00  0.00    +0.000 A 
ATOM     16  C   UNL     1       0.941  12.142  19.960  0.00  0.00    +0.000 A 
ATOM     17  C   UNL     1       0.950  13.270  20.773  0.00  0.00    +0.000 A 
ATOM     18  C   UNL     1      -0.001  13.398  21.774  0.00  0.00    +0.000 A 
ATOM     19  C   UNL     1      -0.947  12.373  21.857  0.00  0.00    +0.000 A 
ATOM     20  N   UNL     1      -0.969  11.254  21.101  0.00  0.00    +0.000 NA
ATOM     21  H   UNL     1      -0.694   9.332  19.860  0.00  0.00    +0.000 HD
BRANCH  18  22
ATOM     22  N   UNL     1      -0.064  14.478  22.637  0.00  0.00    +0.000 N 
ATOM     23  C   UNL     1      -1.258  14.690  23.465  0.00  0.00    +0.000 C 
ATOM     24  C   UNL     1      -0.851  15.583  24.656  0.00  0.00    +0.000 C 
ATOM     25  N   UNL     1      -0.260  16.878  24.251  0.00  0.00    +0.000 NA
ATOM     26  C   UNL     1       0.845  16.658  23.293  0.00  0.00    +0.000 C 
ATOM     27  C   UNL     1       0.475  15.745  22.104  0.00  0.00    +0.000 C 
ATOM     28  H   UNL     1       0.117  17.332  25.080  0.00  0.00    +0.000 HD
ENDBRANCH  18  22
ENDBRANCH   7  14
BRANCH  10  29
ATOM     29  C   UNL     1       2.018   4.888  19.836  0.00  0.00    +0.000 C 
ATOM     30  C   UNL     1       1.429   3.735  19.027  0.00  0.00    +0.000 C 
ATOM     31  C   UNL     1       0.653   2.916  20.045  0.00  0.00    +0.000 C 
ATOM     32  S   UNL     1       1.742   2.850  21.502  0.00  0.00    +0.000 S 
ATOM     33  C   UNL     1       2.814   4.239  20.973  0.00  0.00    +0.000 C 
ENDBRANCH  10  29
TORSDOF 3
ENDMDL
MODEL 9
REMARK VINA RESULT:      -7.7      3.041      9.742
REMARK  Name = 
REMARK  3 active torsions:
REMARK  status: ('A' for Active; 'I' for Inactive)
REMARK    1  A    between atoms: C_7  and  N_8
REMARK    2  A    between atoms: C_12  and  N_13
REMARK    3  A    between atoms: N_23  and  C_24
REMARK                            x       y       z     vdW  Elec       q    Type
REMARK                         _______ _______ _______ _____ _____    ______ ____
ROOT
ATOM      1  C   UNL     1      -7.769  13.411  20.042  0.00  0.00    +0.000 A 
ATOM      2  C   UNL     1      -6.790  13.268  21.009  0.00  0.00    +0.000 A 
ATOM      3  C   UNL     1      -5.525  12.858  20.564  0.00  0.00    +0.000 A 
ATOM      4  C   UNL     1      -4.287  12.620  21.222  0.00  0.00    +0.000 A 
ATOM      5  C   UNL     1      -3.879  12.686  22.553  0.00  0.00    +0.000 A 
ATOM      6  N   UNL     1      -2.618  12.361  22.896  0.00  0.00    +0.000 NA
ATOM      7  C   UNL     1      -1.712  12.028  21.952  0.00  0.00    +0.000 A 
ATOM      8  C   UNL     1      -2.014  12.038  20.597  0.00  0.00    +0.000 A 
ATOM      9  C   UNL     1      -3.347  12.267  20.251  0.00  0.00    +0.000 A 
ATOM     10  N   UNL     1      -4.019  12.166  19.052  0.00  0.00    +0.000 N 
ATOM     11  C   UNL     1      -5.330  12.597  19.208  0.00  0.00    +0.000 A 
ATOM     12  C   UNL     1      -6.365  12.772  18.292  0.00  0.00    +0.000 A 
ATOM     13  N   UNL     1      -7.583  13.179  18.724  0.00  0.00    +0.000 NA
ENDROOT
BRANCH   7  14
ATOM     14  N   UNL     1      -0.459  11.521  22.323  0.00  0.00    +0.000 N 
ATOM     15  C   UNL     1       0.244  10.517  21.665  0.00  0.00    +0.000 A 
ATOM     16  C   UNL     1       0.205  10.365  20.281  0.00  0.00    +0.000 A 
ATOM     17  C   UNL     1       0.834   9.277  19.689  0.00  0.00    +0.000 A 
ATOM     18  C   UNL     1       1.534   8.378  20.480  0.00  0.00    +0.000 A 
ATOM     19  C   UNL     1       1.588   8.673  21.844  0.00  0.00    +0.000 A 
ATOM     20  N   UNL     1       0.969   9.707  22.455  0.00  0.00    +0.000 NA
ATOM     21  H   UNL     1      -0.339  11.396  23.318  0.00  0.00    +0.000 HD
BRANCH  18  22
ATOM     22  N   UNL     1       2.181   7.261  19.980  0.00  0.00    +0.000 N 
ATOM     23  C   UNL     1       2.524   7.186  18.554  0.00  0.00    +0.000 C 
ATOM     24  C   UNL     1       3.660   6.153  18.398  0.00  0.00    +0.000 C 
ATOM     25  N   UNL     1       3.317   4.812  18.924  0.00  0.00    +0.000 NA
ATOM     26  C   UNL     1       2.824   4.920  20.314  0.00  0.00    +0.000 C 
ATOM     27  C   UNL     1       1.705   5.966  20.507  0.00  0.00    +0.000 C 
ATOM     28  H   UNL     1       4.161   4.242  18.924  0.00  0.00    +0.000 HD
ENDBRANCH  18  22
ENDBRANCH   7  14
BRANCH  10  29
ATOM     29  C   UNL     1      -3.485  11.641  17.805  0.00  0.00    +0.000 C 
ATOM     30  C   UNL     1      -2.833  10.267  17.943  0.00  0.00    +0.000 C 
ATOM     31  C   UNL     1      -2.229   9.996  16.575  0.00  0.00    +0.000 C 
ATOM     32  S   UNL     1      -3.503  10.543  15.398  0.00  0.00    +0.000 S 
ATOM     33  C   UNL     1      -4.447  11.532  16.618  0.00  0.00    +0.000 C 
ENDBRANCH  10  29
TORSDOF 3
ENDMDL
