MODEL 1
REMARK VINA RESULT:      -5.6      0.000      0.000
REMARK  Name = 
REMARK  11 active torsions:
REMARK  status: ('A' for Active; 'I' for Inactive)
REMARK    1  A    between atoms: C_1  and  N_2
REMARK    2  A    between atoms: C_4  and  C_5
REMARK    3  A    between atoms: C_5  and  C_6
REMARK    4  A    between atoms: C_5  and  C_7
REMARK    5  A    between atoms: C_5  and  C_8
REMARK    6  A    between atoms: C_9  and  N_10
REMARK    7  A    between atoms: C_13  and  C_14
REMARK    8  A    between atoms: N_16  and  C_17
REMARK    9  A    between atoms: C_17  and  C_18
REMARK   10  A    between atoms: C_17  and  C_19
REMARK   11  A    between atoms: C_17  and  C_20
REMARK                            x       y       z     vdW  Elec       q    Type
REMARK                         _______ _______ _______ _____ _____    ______ ____
ROOT
ATOM      1  C   UNL     1       3.118   8.419  17.669  0.00  0.00    +0.000 C 
ATOM      2  N   UNL     1       2.948   7.128  18.302  0.00  0.00    +0.000 N 
ATOM      3  N   UNL     1       3.487   6.054  17.705  0.00  0.00    +0.000 NA
ATOM      4  C   UNL     1       3.116   5.004  18.453  0.00  0.00    +0.000 A 
ATOM      5  C   UNL     1       2.376   5.465  19.583  0.00  0.00    +0.000 A 
ATOM      6  C   UNL     1       2.316   6.852  19.492  0.00  0.00    +0.000 A 
ENDROOT
BRANCH   4   7
ATOM      7  C   UNL     1       3.610   3.618  18.022  0.00  0.00    +0.000 C 
ATOM      8  C   UNL     1       4.560   3.775  16.817  0.00  0.00    +0.000 C 
ATOM      9  C   UNL     1       4.344   2.850  19.132  0.00  0.00    +0.000 C 
ATOM     10  C   UNL     1       2.426   2.717  17.577  0.00  0.00    +0.000 C 
ENDBRANCH   4   7
BRANCH   6  11
ATOM     11  C   UNL     1       1.698   7.875  20.306  0.00  0.00    +0.000 C 
ATOM     12  O   UNL     1       1.867   7.897  21.520  0.00  0.00    +0.000 OA
ATOM     13  N   UNL     1       0.881   8.788  19.667  0.00  0.00    +0.000 N 
ATOM     14  H   UNL     1       0.717   8.693  18.668  0.00  0.00    +0.000 HD
BRANCH  13  15
ATOM     15  C   UNL     1       0.160   9.878  20.359  0.00  0.00    +0.000 C 
ATOM     16  C   UNL     1       1.107  11.058  20.640  0.00  0.00    +0.000 C 
ATOM     17  C   UNL     1      -0.978  10.392  19.453  0.00  0.00    +0.000 C 
ATOM     18  C   UNL     1      -0.479   9.384  21.669  0.00  0.00    +0.000 C 
ENDBRANCH  13  15
ENDBRANCH   6  11
BRANCH   5  19
ATOM     19  N   UNL     1       1.760   4.706  20.615  0.00  0.00    +0.000 N 
ATOM     20  O   UNL     1       2.429   4.489  21.631  0.00  0.00    +0.000 OA
ATOM     21  O   UNL     1       0.623   4.278  20.377  0.00  0.00    +0.000 OA
ENDBRANCH   5  19
TORSDOF 4
ENDMDL
MODEL 2
REMARK VINA RESULT:      -5.6      0.135      1.350
REMARK  Name = 
REMARK  11 active torsions:
REMARK  status: ('A' for Active; 'I' for Inactive)
REMARK    1  A    between atoms: C_1  and  N_2
REMARK    2  A    between atoms: C_4  and  C_5
REMARK    3  A    between atoms: C_5  and  C_6
REMARK    4  A    between atoms: C_5  and  C_7
REMARK    5  A    between atoms: C_5  and  C_8
REMARK    6  A    between atoms: C_9  and  N_10
REMARK    7  A    between atoms: C_13  and  C_14
REMARK    8  A    between atoms: N_16  and  C_17
REMARK    9  A    between atoms: C_17  and  C_18
REMARK   10  A    between atoms: C_17  and  C_19
REMARK   11  A    between atoms: C_17  and  C_20
REMARK                            x       y       z     vdW  Elec       q    Type
REMARK                         _______ _______ _______ _____ _____    ______ ____
ROOT
ATOM      1  C   UNL     1       3.028   8.546  17.683  0.00  0.00    +0.000 C 
ATOM      2  N   UNL     1       2.881   7.243  18.298  0.00  0.00    +0.000 N 
ATOM      3  N   UNL     1       3.428   6.186  17.678  0.00  0.00    +0.000 NA
ATOM      4  C   UNL     1       3.079   5.120  18.414  0.00  0.00    +0.000 A 
ATOM      5  C   UNL     1       2.344   5.553  19.558  0.00  0.00    +0.000 A 
ATOM      6  C   UNL     1       2.265   6.940  19.489  0.00  0.00    +0.000 A 
ENDROOT
BRANCH   4   7
ATOM      7  C   UNL     1       3.586   3.748  17.956  0.00  0.00    +0.000 C 
ATOM      8  C   UNL     1       4.434   3.122  19.083  0.00  0.00    +0.000 C 
ATOM      9  C   UNL     1       2.463   2.767  17.581  0.00  0.00    +0.000 C 
ATOM     10  C   UNL     1       4.490   3.877  16.700  0.00  0.00    +0.000 C 
ENDBRANCH   4   7
BRANCH   6  11
ATOM     11  C   UNL     1       1.641   7.942  20.325  0.00  0.00    +0.000 C 
ATOM     12  O   UNL     1       1.780   7.918  21.543  0.00  0.00    +0.000 OA
ATOM     13  N   UNL     1       0.852   8.890  19.701  0.00  0.00    +0.000 N 
ATOM     14  H   UNL     1       0.712   8.833  18.695  0.00  0.00    +0.000 HD
BRANCH  13  15
ATOM     15  C   UNL     1       0.130   9.965  20.415  0.00  0.00    +0.000 C 
ATOM     16  C   UNL     1      -1.011  10.519  19.545  0.00  0.00    +0.000 C 
ATOM     17  C   UNL     1      -0.494   9.390  21.703  0.00  0.00    +0.000 C 
ATOM     18  C   UNL     1       1.084  11.100  20.830  0.00  0.00    +0.000 C 
ENDBRANCH  13  15
ENDBRANCH   6  11
BRANCH   5  19
ATOM     19  N   UNL     1       1.748   4.769  20.584  0.00  0.00    +0.000 N 
ATOM     20  O   UNL     1       2.411   4.587  21.609  0.00  0.00    +0.000 OA
ATOM     21  O   UNL     1       0.635   4.290  20.331  0.00  0.00    +0.000 OA
ENDBRANCH   5  19
TORSDOF 4
ENDMDL
MODEL 3
REMARK VINA RESULT:      -5.5      1.718      5.742
REMARK  Name = 
REMARK  11 active torsions:
REMARK  status: ('A' for Active; 'I' for Inactive)
REMARK    1  A    between atoms: C_1  and  N_2
REMARK    2  A    between atoms: C_4  and  C_5
REMARK    3  A    between atoms: C_5  and  C_6
REMARK    4  A    between atoms: C_5  and  C_7
REMARK    5  A    between atoms: C_5  and  C_8
REMARK    6  A    between atoms: C_9  and  N_10
REMARK    7  A    between atoms: C_13  and  C_14
REMARK    8  A    between atoms: N_16  and  C_17
REMARK    9  A    between atoms: C_17  and  C_18
REMARK   10  A    between atoms: C_17  and  C_19
REMARK   11  A    between atoms: C_17  and  C_20
REMARK                            x       y       z     vdW  Elec       q    Type
REMARK                         _______ _______ _______ _____ _____    ______ ____
ROOT
ATOM      1  C   UNL     1       3.660   7.244  17.159  0.00  0.00    +0.000 C 
ATOM      2  N   UNL     1       2.785   7.826  18.155  0.00  0.00    +0.000 N 
ATOM      3  N   UNL     1       2.320   9.067  17.943  0.00  0.00    +0.000 NA
ATOM      4  C   UNL     1       1.611   9.377  19.039  0.00  0.00    +0.000 A 
ATOM      5  C   UNL     1       1.595   8.257  19.924  0.00  0.00    +0.000 A 
ATOM      6  C   UNL     1       2.324   7.243  19.312  0.00  0.00    +0.000 A 
ENDROOT
BRANCH   4   7
ATOM      7  C   UNL     1       0.930  10.749  19.076  0.00  0.00    +0.000 C 
ATOM      8  C   UNL     1      -0.465  10.636  18.427  0.00  0.00    +0.000 C 
ATOM      9  C   UNL     1       0.769  11.321  20.494  0.00  0.00    +0.000 C 
ATOM     10  C   UNL     1       1.743  11.799  18.272  0.00  0.00    +0.000 C 
ENDBRANCH   4   7
BRANCH   6  11
ATOM     11  C   UNL     1       2.682   5.899  19.709  0.00  0.00    +0.000 C 
ATOM     12  O   UNL     1       3.825   5.632  20.061  0.00  0.00    +0.000 OA
ATOM     13  N   UNL     1       1.699   4.931  19.633  0.00  0.00    +0.000 N 
ATOM     14  H   UNL     1       0.781   5.183  19.274  0.00  0.00    +0.000 HD
BRANCH  13  15
ATOM     15  C   UNL     1       1.910   3.509  19.981  0.00  0.00    +0.000 C 
ATOM     16  C   UNL     1       2.002   3.335  21.506  0.00  0.00    +0.000 C 
ATOM     17  C   UNL     1       0.709   2.679  19.483  0.00  0.00    +0.000 C 
ATOM     18  C   UNL     1       3.172   2.948  19.302  0.00  0.00    +0.000 C 
ENDBRANCH  13  15
ENDBRANCH   6  11
BRANCH   5  19
ATOM     19  N   UNL     1       1.000   8.148  21.211  0.00  0.00    +0.000 N 
ATOM     20  O   UNL     1      -0.165   7.739  21.261  0.00  0.00    +0.000 OA
ATOM     21  O   UNL     1       1.688   8.529  22.167  0.00  0.00    +0.000 OA
ENDBRANCH   5  19
TORSDOF 4
ENDMDL
MODEL 4
REMARK VINA RESULT:      -5.5      0.120      1.538
REMARK  Name = 
REMARK  11 active torsions:
REMARK  status: ('A' for Active; 'I' for Inactive)
REMARK    1  A    between atoms: C_1  and  N_2
REMARK    2  A    between atoms: C_4  and  C_5
REMARK    3  A    between atoms: C_5  and  C_6
REMARK    4  A    between atoms: C_5  and  C_7
REMARK    5  A    between atoms: C_5  and  C_8
REMARK    6  A    between atoms: C_9  and  N_10
REMARK    7  A    between atoms: C_13  and  C_14
REMARK    8  A    between atoms: N_16  and  C_17
REMARK    9  A    between atoms: C_17  and  C_18
REMARK   10  A    between atoms: C_17  and  C_19
REMARK   11  A    between atoms: C_17  and  C_20
REMARK                            x       y       z     vdW  Elec       q    Type
REMARK                         _______ _______ _______ _____ _____    ______ ____
ROOT
ATOM      1  C   UNL     1       3.087   8.527  17.750  0.00  0.00    +0.000 C 
ATOM      2  N   UNL     1       2.925   7.216  18.343  0.00  0.00    +0.000 N 
ATOM      3  N   UNL     1       3.475   6.165  17.717  0.00  0.00    +0.000 NA
ATOM      4  C   UNL     1       3.111   5.090  18.432  0.00  0.00    +0.000 A 
ATOM      5  C   UNL     1       2.360   5.511  19.571  0.00  0.00    +0.000 A 
ATOM      6  C   UNL     1       2.289   6.900  19.521  0.00  0.00    +0.000 A 
ENDROOT
BRANCH   4   7
ATOM      7  C   UNL     1       3.618   3.722  17.963  0.00  0.00    +0.000 C 
ATOM      8  C   UNL     1       4.445   3.077  19.093  0.00  0.00    +0.000 C 
ATOM      9  C   UNL     1       2.497   2.752  17.557  0.00  0.00    +0.000 C 
ATOM     10  C   UNL     1       4.541   3.864  16.722  0.00  0.00    +0.000 C 
ENDBRANCH   4   7
BRANCH   6  11
ATOM     11  C   UNL     1       1.657   7.892  20.362  0.00  0.00    +0.000 C 
ATOM     12  O   UNL     1       1.817   7.879  21.577  0.00  0.00    +0.000 OA
ATOM     13  N   UNL     1       0.839   8.820  19.745  0.00  0.00    +0.000 N 
ATOM     14  H   UNL     1       0.683   8.754  18.743  0.00  0.00    +0.000 HD
BRANCH  13  15
ATOM     15  C   UNL     1       0.105   9.883  20.465  0.00  0.00    +0.000 C 
ATOM     16  C   UNL     1      -0.507   9.332  21.764  0.00  0.00    +0.000 C 
ATOM     17  C   UNL     1       1.088  11.009  20.848  0.00  0.00    +0.000 C 
ATOM     18  C   UNL     1      -0.990  10.506  19.580  0.00  0.00    +0.000 C 
ENDBRANCH  13  15
ENDBRANCH   6  11
BRANCH   5  19
ATOM     19  N   UNL     1       1.746   4.716  20.577  0.00  0.00    +0.000 N 
ATOM     20  O   UNL     1       0.598   4.316  20.356  0.00  0.00    +0.000 OA
ATOM     21  O   UNL     1       2.399   4.544  21.614  0.00  0.00    +0.000 OA
ENDBRANCH   5  19
TORSDOF 4
ENDMDL
MODEL 5
REMARK VINA RESULT:      -5.4      2.222      6.303
REMARK  Name = 
REMARK  11 active torsions:
REMARK  status: ('A' for Active; 'I' for Inactive)
REMARK    1  A    between atoms: C_1  and  N_2
REMARK    2  A    between atoms: C_4  and  C_5
REMARK    3  A    between atoms: C_5  and  C_6
REMARK    4  A    between atoms: C_5  and  C_7
REMARK    5  A    between atoms: C_5  and  C_8
REMARK    6  A    between atoms: C_9  and  N_10
REMARK    7  A    between atoms: C_13  and  C_14
REMARK    8  A    between atoms: N_16  and  C_17
REMARK    9  A    between atoms: C_17  and  C_18
REMARK   10  A    between atoms: C_17  and  C_19
REMARK   11  A    between atoms: C_17  and  C_20
REMARK                            x       y       z     vdW  Elec       q    Type
REMARK                         _______ _______ _______ _____ _____    ______ ____
ROOT
ATOM      1  C   UNL     1       2.295   5.154  20.924  0.00  0.00    +0.000 C 
ATOM      2  N   UNL     1       2.025   6.466  20.373  0.00  0.00    +0.000 N 
ATOM      3  N   UNL     1       1.340   7.340  21.126  0.00  0.00    +0.000 NA
ATOM      4  C   UNL     1       1.171   8.424  20.354  0.00  0.00    +0.000 A 
ATOM      5  C   UNL     1       1.833   8.223  19.105  0.00  0.00    +0.000 A 
ATOM      6  C   UNL     1       2.421   6.963  19.154  0.00  0.00    +0.000 A 
ENDROOT
BRANCH   4   7
ATOM      7  C   UNL     1       0.429   9.618  20.962  0.00  0.00    +0.000 C 
ATOM      8  C   UNL     1       0.091   9.304  22.434  0.00  0.00    +0.000 C 
ATOM      9  C   UNL     1       1.223  10.933  20.908  0.00  0.00    +0.000 C 
ATOM     10  C   UNL     1      -0.906   9.885  20.217  0.00  0.00    +0.000 C 
ENDBRANCH   4   7
BRANCH   6  11
ATOM     11  C   UNL     1       3.196   6.191  18.207  0.00  0.00    +0.000 C 
ATOM     12  O   UNL     1       2.697   5.240  17.616  0.00  0.00    +0.000 OA
ATOM     13  N   UNL     1       4.521   6.544  18.033  0.00  0.00    +0.000 N 
ATOM     14  H   UNL     1       4.910   7.299  18.591  0.00  0.00    +0.000 HD
BRANCH  13  15
ATOM     15  C   UNL     1       5.449   5.843  17.120  0.00  0.00    +0.000 C 
ATOM     16  C   UNL     1       5.140   6.199  15.656  0.00  0.00    +0.000 C 
ATOM     17  C   UNL     1       6.894   6.293  17.419  0.00  0.00    +0.000 C 
ATOM     18  C   UNL     1       5.389   4.318  17.323  0.00  0.00    +0.000 C 
ENDBRANCH  13  15
ENDBRANCH   6  11
BRANCH   5  19
ATOM     19  N   UNL     1       1.887   9.086  17.976  0.00  0.00    +0.000 N 
ATOM     20  O   UNL     1       3.005   9.453  17.600  0.00  0.00    +0.000 OA
ATOM     21  O   UNL     1       0.798   9.439  17.504  0.00  0.00    +0.000 OA
ENDBRANCH   5  19
TORSDOF 4
ENDMDL
MODEL 6
REMARK VINA RESULT:      -5.4      2.219      6.327
REMARK  Name = 
REMARK  11 active torsions:
REMARK  status: ('A' for Active; 'I' for Inactive)
REMARK    1  A    between atoms: C_1  and  N_2
REMARK    2  A    between atoms: C_4  and  C_5
REMARK    3  A    between atoms: C_5  and  C_6
REMARK    4  A    between atoms: C_5  and  C_7
REMARK    5  A    between atoms: C_5  and  C_8
REMARK    6  A    between atoms: C_9  and  N_10
REMARK    7  A    between atoms: C_13  and  C_14
REMARK    8  A    between atoms: N_16  and  C_17
REMARK    9  A    between atoms: C_17  and  C_18
REMARK   10  A    between atoms: C_17  and  C_19
REMARK   11  A    between atoms: C_17  and  C_20
REMARK                            x       y       z     vdW  Elec       q    Type
REMARK                         _______ _______ _______ _____ _____    ______ ____
ROOT
ATOM      1  C   UNL     1       2.276   5.124  20.922  0.00  0.00    +0.000 C 
ATOM      2  N   UNL     1       2.010   6.441  20.381  0.00  0.00    +0.000 N 
ATOM      3  N   UNL     1       1.324   7.309  21.140  0.00  0.00    +0.000 NA
ATOM      4  C   UNL     1       1.159   8.400  20.376  0.00  0.00    +0.000 A 
ATOM      5  C   UNL     1       1.823   8.208  19.127  0.00  0.00    +0.000 A 
ATOM      6  C   UNL     1       2.409   6.947  19.166  0.00  0.00    +0.000 A 
ENDROOT
BRANCH   4   7
ATOM      7  C   UNL     1       0.416   9.590  20.992  0.00  0.00    +0.000 C 
ATOM      8  C   UNL     1       1.322  10.837  20.928  0.00  0.00    +0.000 C 
ATOM      9  C   UNL     1      -0.918   9.913  20.300  0.00  0.00    +0.000 C 
ATOM     10  C   UNL     1       0.080   9.326  22.485  0.00  0.00    +0.000 C 
ENDBRANCH   4   7
BRANCH   6  11
ATOM     11  C   UNL     1       3.184   6.182  18.215  0.00  0.00    +0.000 C 
ATOM     12  O   UNL     1       2.686   5.235  17.617  0.00  0.00    +0.000 OA
ATOM     13  N   UNL     1       4.510   6.535  18.045  0.00  0.00    +0.000 N 
ATOM     14  H   UNL     1       4.899   7.286  18.610  0.00  0.00    +0.000 HD
BRANCH  13  15
ATOM     15  C   UNL     1       5.439   5.840  17.129  0.00  0.00    +0.000 C 
ATOM     16  C   UNL     1       5.145   6.223  15.668  0.00  0.00    +0.000 C 
ATOM     17  C   UNL     1       6.886   6.272  17.447  0.00  0.00    +0.000 C 
ATOM     18  C   UNL     1       5.364   4.313  17.306  0.00  0.00    +0.000 C 
ENDBRANCH  13  15
ENDBRANCH   6  11
BRANCH   5  19
ATOM     19  N   UNL     1       1.880   9.080  18.005  0.00  0.00    +0.000 N 
ATOM     20  O   UNL     1       0.805   9.453  17.526  0.00  0.00    +0.000 OA
ATOM     21  O   UNL     1       3.010   9.341  17.572  0.00  0.00    +0.000 OA
ENDBRANCH   5  19
TORSDOF 4
ENDMDL
MODEL 7
REMARK VINA RESULT:      -5.3      5.413      9.034
REMARK  Name = 
REMARK  11 active torsions:
REMARK  status: ('A' for Active; 'I' for Inactive)
REMARK    1  A    between atoms: C_1  and  N_2
REMARK    2  A    between atoms: C_4  and  C_5
REMARK    3  A    between atoms: C_5  and  C_6
REMARK    4  A    between atoms: C_5  and  C_7
REMARK    5  A    between atoms: C_5  and  C_8
REMARK    6  A    between atoms: C_9  and  N_10
REMARK    7  A    between atoms: C_13  and  C_14
REMARK    8  A    between atoms: N_16  and  C_17
REMARK    9  A    between atoms: C_17  and  C_18
REMARK   10  A    between atoms: C_17  and  C_19
REMARK   11  A    between atoms: C_17  and  C_20
REMARK                            x       y       z     vdW  Elec       q    Type
REMARK                         _______ _______ _______ _____ _____    ______ ____
ROOT
ATOM      1  C   UNL     1      -2.766  13.463  21.317  0.00  0.00    +0.000 C 
ATOM      2  N   UNL     1      -3.431  12.761  20.239  0.00  0.00    +0.000 N 
ATOM      3  N   UNL     1      -4.770  12.813  20.181  0.00  0.00    +0.000 NA
ATOM      4  C   UNL     1      -5.115  12.028  19.149  0.00  0.00    +0.000 A 
ATOM      5  C   UNL     1      -3.935  11.530  18.518  0.00  0.00    +0.000 A 
ATOM      6  C   UNL     1      -2.850  12.054  19.212  0.00  0.00    +0.000 A 
ENDROOT
BRANCH   4   7
ATOM      7  C   UNL     1      -6.606  11.906  18.819  0.00  0.00    +0.000 C 
ATOM      8  C   UNL     1      -7.425  12.603  19.925  0.00  0.00    +0.000 C 
ATOM      9  C   UNL     1      -6.992  12.515  17.462  0.00  0.00    +0.000 C 
ATOM     10  C   UNL     1      -7.048  10.418  18.770  0.00  0.00    +0.000 C 
ENDBRANCH   4   7
BRANCH   6  11
ATOM     11  C   UNL     1      -1.418  11.906  19.075  0.00  0.00    +0.000 C 
ATOM     12  O   UNL     1      -0.771  12.677  18.376  0.00  0.00    +0.000 OA
ATOM     13  N   UNL     1      -0.825  10.840  19.726  0.00  0.00    +0.000 N 
ATOM     14  H   UNL     1      -1.409  10.187  20.242  0.00  0.00    +0.000 HD
BRANCH  13  15
ATOM     15  C   UNL     1       0.622  10.538  19.668  0.00  0.00    +0.000 C 
ATOM     16  C   UNL     1       0.988   9.451  20.693  0.00  0.00    +0.000 C 
ATOM     17  C   UNL     1       0.974  10.001  18.266  0.00  0.00    +0.000 C 
ATOM     18  C   UNL     1       1.468  11.802  19.905  0.00  0.00    +0.000 C 
ENDBRANCH  13  15
ENDBRANCH   6  11
BRANCH   5  19
ATOM     19  N   UNL     1      -3.822  10.639  17.416  0.00  0.00    +0.000 N 
ATOM     20  O   UNL     1      -3.508   9.471  17.665  0.00  0.00    +0.000 OA
ATOM     21  O   UNL     1      -3.994  11.131  16.293  0.00  0.00    +0.000 OA
ENDBRANCH   5  19
TORSDOF 4
ENDMDL
MODEL 8
REMARK VINA RESULT:      -5.3      1.714      5.714
REMARK  Name = 
REMARK  11 active torsions:
REMARK  status: ('A' for Active; 'I' for Inactive)
REMARK    1  A    between atoms: C_1  and  N_2
REMARK    2  A    between atoms: C_4  and  C_5
REMARK    3  A    between atoms: C_5  and  C_6
REMARK    4  A    between atoms: C_5  and  C_7
REMARK    5  A    between atoms: C_5  and  C_8
REMARK    6  A    between atoms: C_9  and  N_10
REMARK    7  A    between atoms: C_13  and  C_14
REMARK    8  A    between atoms: N_16  and  C_17
REMARK    9  A    between atoms: C_17  and  C_18
REMARK   10  A    between atoms: C_17  and  C_19
REMARK   11  A    between atoms: C_17  and  C_20
REMARK                            x       y       z     vdW  Elec       q    Type
REMARK                         _______ _______ _______ _____ _____    ______ ____
ROOT
ATOM      1  C   UNL     1       3.621   7.265  17.139  0.00  0.00    +0.000 C 
ATOM      2  N   UNL     1       2.758   7.859  18.140  0.00  0.00    +0.000 N 
ATOM      3  N   UNL     1       2.319   9.110  17.935  0.00  0.00    +0.000 NA
ATOM      4  C   UNL     1       1.618   9.428  19.034  0.00  0.00    +0.000 A 
ATOM      5  C   UNL     1       1.578   8.304  19.912  0.00  0.00    +0.000 A 
ATOM      6  C   UNL     1       2.286   7.279  19.293  0.00  0.00    +0.000 A 
ENDROOT
BRANCH   4   7
ATOM      7  C   UNL     1       0.965  10.814  19.080  0.00  0.00    +0.000 C 
ATOM      8  C   UNL     1       1.832  11.806  18.277  0.00  0.00    +0.000 C 
ATOM      9  C   UNL     1      -0.466  10.843  18.518  0.00  0.00    +0.000 C 
ATOM     10  C   UNL     1       0.872  11.339  20.538  0.00  0.00    +0.000 C 
ENDBRANCH   4   7
BRANCH   6  11
ATOM     11  C   UNL     1       2.616   5.925  19.682  0.00  0.00    +0.000 C 
ATOM     12  O   UNL     1       3.729   5.651  20.117  0.00  0.00    +0.000 OA
ATOM     13  N   UNL     1       1.646   4.957  19.501  0.00  0.00    +0.000 N 
ATOM     14  H   UNL     1       0.759   5.218  19.076  0.00  0.00    +0.000 HD
BRANCH  13  15
ATOM     15  C   UNL     1       1.834   3.527  19.827  0.00  0.00    +0.000 C 
ATOM     16  C   UNL     1       3.201   3.034  19.324  0.00  0.00    +0.000 C 
ATOM     17  C   UNL     1       1.801   3.346  21.358  0.00  0.00    +0.000 C 
ATOM     18  C   UNL     1       0.705   2.665  19.235  0.00  0.00    +0.000 C 
ENDBRANCH  13  15
ENDBRANCH   6  11
BRANCH   5  19
ATOM     19  N   UNL     1       0.982   8.199  21.199  0.00  0.00    +0.000 N 
ATOM     20  O   UNL     1       1.683   8.495  22.170  0.00  0.00    +0.000 OA
ATOM     21  O   UNL     1      -0.176   7.761  21.231  0.00  0.00    +0.000 OA
ENDBRANCH   5  19
TORSDOF 4
ENDMDL
MODEL 9
REMARK VINA RESULT:      -5.3      1.733      5.728
REMARK  Name = 
REMARK  11 active torsions:
REMARK  status: ('A' for Active; 'I' for Inactive)
REMARK    1  A    between atoms: C_1  and  N_2
REMARK    2  A    between atoms: C_4  and  C_5
REMARK    3  A    between atoms: C_5  and  C_6
REMARK    4  A    between atoms: C_5  and  C_7
REMARK    5  A    between atoms: C_5  and  C_8
REMARK    6  A    between atoms: C_9  and  N_10
REMARK    7  A    between atoms: C_13  and  C_14
REMARK    8  A    between atoms: N_16  and  C_17
REMARK    9  A    between atoms: C_17  and  C_18
REMARK   10  A    between atoms: C_17  and  C_19
REMARK   11  A    between atoms: C_17  and  C_20
REMARK                            x       y       z     vdW  Elec       q    Type
REMARK                         _______ _______ _______ _____ _____    ______ ____
ROOT
ATOM      1  C   UNL     1       3.594   7.324  17.135  0.00  0.00    +0.000 C 
ATOM      2  N   UNL     1       2.734   7.912  18.142  0.00  0.00    +0.000 N 
ATOM      3  N   UNL     1       2.266   9.151  17.929  0.00  0.00    +0.000 NA
ATOM      4  C   UNL     1       1.574   9.468  19.034  0.00  0.00    +0.000 A 
ATOM      5  C   UNL     1       1.571   8.354  19.926  0.00  0.00    +0.000 A 
ATOM      6  C   UNL     1       2.291   7.336  19.309  0.00  0.00    +0.000 A 
ENDROOT
BRANCH   4   7
ATOM      7  C   UNL     1       0.893  10.840  19.073  0.00  0.00    +0.000 C 
ATOM      8  C   UNL     1       1.754  11.853  18.291  0.00  0.00    +0.000 C 
ATOM      9  C   UNL     1      -0.528  10.843  18.486  0.00  0.00    +0.000 C 
ATOM     10  C   UNL     1       0.762  11.357  20.531  0.00  0.00    +0.000 C 
ENDBRANCH   4   7
BRANCH   6  11
ATOM     11  C   UNL     1       2.656   5.995  19.709  0.00  0.00    +0.000 C 
ATOM     12  O   UNL     1       3.804   5.730  20.044  0.00  0.00    +0.000 OA
ATOM     13  N   UNL     1       1.672   5.026  19.652  0.00  0.00    +0.000 N 
ATOM     14  H   UNL     1       0.749   5.276  19.306  0.00  0.00    +0.000 HD
BRANCH  13  15
ATOM     15  C   UNL     1       1.889   3.606  20.006  0.00  0.00    +0.000 C 
ATOM     16  C   UNL     1       0.707   2.744  19.529  0.00  0.00    +0.000 C 
ATOM     17  C   UNL     1       3.161   3.094  19.300  0.00  0.00    +0.000 C 
ATOM     18  C   UNL     1       2.099   3.432  21.521  0.00  0.00    +0.000 C 
ENDBRANCH  13  15
ENDBRANCH   6  11
BRANCH   5  19
ATOM     19  N   UNL     1       0.996   8.252  21.223  0.00  0.00    +0.000 N 
ATOM     20  O   UNL     1       1.716   8.543  22.183  0.00  0.00    +0.000 OA
ATOM     21  O   UNL     1      -0.164   7.823  21.275  0.00  0.00    +0.000 OA
ENDBRANCH   5  19
TORSDOF 4
ENDMDL
