MODEL 1
REMARK VINA RESULT:      -8.3      0.000      0.000
REMARK  Name = 
REMARK  6 active torsions:
REMARK  status: ('A' for Active; 'I' for Inactive)
REMARK    1  A    between atoms: C_1  and  N_2
REMARK    2  A    between atoms: N_6  and  C_7
REMARK    3  A    between atoms: C_7  and  C_8
REMARK    4  A    between atoms: C_11  and  C_12
REMARK    5  A    between atoms: C_15  and  N_16
REMARK    6  A    between atoms: N_19  and  C_20
REMARK                            x       y       z     vdW  Elec       q    Type
REMARK                         _______ _______ _______ _____ _____    ______ ____
ROOT
ATOM      1  C   UNL     1       6.683   5.939  17.807  0.00  0.00    +0.000 A 
ATOM      2  C   UNL     1       6.281   7.042  17.070  0.00  0.00    +0.000 A 
ATOM      3  C   UNL     1       6.922   8.272  17.211  0.00  0.00    +0.000 A 
ATOM      4  C   UNL     1       7.957   8.443  18.149  0.00  0.00    +0.000 A 
ATOM      5  C   UNL     1       8.374   7.316  18.874  0.00  0.00    +0.000 A 
ATOM      6  C   UNL     1       7.783   6.071  18.676  0.00  0.00    +0.000 A 
ENDROOT
BRANCH   4   7
ATOM      7  C   UNL     1       8.581   9.746  18.363  0.00  0.00    +0.000 A 
ATOM      8  C   UNL     1       9.543   9.953  19.362  0.00  0.00    +0.000 A 
ATOM      9  C   UNL     1      10.129  11.197  19.544  0.00  0.00    +0.000 A 
ATOM     10  C   UNL     1       9.797  12.280  18.717  0.00  0.00    +0.000 A 
ATOM     11  C   UNL     1       8.831  12.066  17.733  0.00  0.00    +0.000 A 
ATOM     12  C   UNL     1       8.237  10.839  17.555  0.00  0.00    +0.000 A 
BRANCH  10  13
ATOM     13  N   UNL     1      10.448  13.482  18.805  0.00  0.00    +0.000 N 
ATOM     14  C   UNL     1       9.867  14.592  19.571  0.00  0.00    +0.000 C 
ATOM     15  C   UNL     1      10.196  15.917  18.854  0.00  0.00    +0.000 C 
ATOM     16  N   UNL     1      11.652  16.086  18.633  0.00  0.00    +0.000 NA
ATOM     17  C   UNL     1      11.922  17.334  17.931  0.00  0.00    +0.000 C 
ATOM     18  C   UNL     1      12.166  14.930  17.859  0.00  0.00    +0.000 C 
ATOM     19  C   UNL     1      11.883  13.582  18.553  0.00  0.00    +0.000 C 
ENDBRANCH  10  13
ENDBRANCH   4   7
BRANCH   1  20
ATOM     20  C   UNL     1       5.942   4.613  17.753  0.00  0.00    +0.000 C 
BRANCH  20  26
ATOM     21  C   UNL     1       1.986   3.600  21.420  0.00  0.00    +0.000 C 
ATOM     22  N   UNL     1       1.845   4.063  20.039  0.00  0.00    +0.000 NA
ATOM     23  C   UNL     1       2.006   2.952  19.093  0.00  0.00    +0.000 C 
ATOM     24  C   UNL     1       2.324   3.363  17.649  0.00  0.00    +0.000 C 
ATOM     25  C   UNL     1       3.824   3.541  17.395  0.00  0.00    +0.000 C 
ATOM     26  N   UNL     1       4.479   4.718  17.989  0.00  0.00    +0.000 NA
ATOM     27  C   UNL     1       4.194   4.867  19.433  0.00  0.00    +0.000 C 
ATOM     28  C   UNL     1       2.720   5.203  19.763  0.00  0.00    +0.000 C 
ENDBRANCH  20  26
ENDBRANCH   1  20
TORSDOF 4
ENDMDL
MODEL 2
REMARK VINA RESULT:      -8.3      0.697      1.146
REMARK  Name = 
REMARK  6 active torsions:
REMARK  status: ('A' for Active; 'I' for Inactive)
REMARK    1  A    between atoms: C_1  and  N_2
REMARK    2  A    between atoms: N_6  and  C_7
REMARK    3  A    between atoms: C_7  and  C_8
REMARK    4  A    between atoms: C_11  and  C_12
REMARK    5  A    between atoms: C_15  and  N_16
REMARK    6  A    between atoms: N_19  and  C_20
REMARK                            x       y       z     vdW  Elec       q    Type
REMARK                         _______ _______ _______ _____ _____    ______ ____
ROOT
ATOM      1  C   UNL     1       6.804   5.767  17.905  0.00  0.00    +0.000 A 
ATOM      2  C   UNL     1       6.411   6.813  17.084  0.00  0.00    +0.000 A 
ATOM      3  C   UNL     1       7.006   8.069  17.186  0.00  0.00    +0.000 A 
ATOM      4  C   UNL     1       7.982   8.327  18.167  0.00  0.00    +0.000 A 
ATOM      5  C   UNL     1       8.391   7.257  18.978  0.00  0.00    +0.000 A 
ATOM      6  C   UNL     1       7.849   5.984  18.822  0.00  0.00    +0.000 A 
ENDROOT
BRANCH   4   7
ATOM      7  C   UNL     1       8.555   9.659  18.336  0.00  0.00    +0.000 A 
ATOM      8  C   UNL     1       8.209  10.729  17.497  0.00  0.00    +0.000 A 
ATOM      9  C   UNL     1       8.760  11.989  17.680  0.00  0.00    +0.000 A 
ATOM     10  C   UNL     1       9.661  12.238  18.725  0.00  0.00    +0.000 A 
ATOM     11  C   UNL     1      10.007  11.165  19.548  0.00  0.00    +0.000 A 
ATOM     12  C   UNL     1       9.475   9.911  19.365  0.00  0.00    +0.000 A 
BRANCH  10  13
ATOM     13  N   UNL     1      10.125  13.499  18.993  0.00  0.00    +0.000 N 
ATOM     14  C   UNL     1       9.419  14.679  18.477  0.00  0.00    +0.000 C 
ATOM     15  C   UNL     1      10.458  15.759  18.110  0.00  0.00    +0.000 C 
ATOM     16  N   UNL     1      11.347  16.087  19.249  0.00  0.00    +0.000 NA
ATOM     17  C   UNL     1      12.331  17.090  18.858  0.00  0.00    +0.000 C 
ATOM     18  C   UNL     1      12.020  14.852  19.715  0.00  0.00    +0.000 C 
ATOM     19  C   UNL     1      11.018  13.751  20.121  0.00  0.00    +0.000 C 
ENDBRANCH  10  13
ENDBRANCH   4   7
BRANCH   1  20
ATOM     20  C   UNL     1       6.106   4.417  17.889  0.00  0.00    +0.000 C 
BRANCH  20  26
ATOM     21  C   UNL     1       1.469   4.098  20.808  0.00  0.00    +0.000 C 
ATOM     22  N   UNL     1       1.621   4.204  19.356  0.00  0.00    +0.000 NA
ATOM     23  C   UNL     1       1.984   2.909  18.769  0.00  0.00    +0.000 C 
ATOM     24  C   UNL     1       2.598   2.975  17.364  0.00  0.00    +0.000 C 
ATOM     25  C   UNL     1       4.116   3.172  17.385  0.00  0.00    +0.000 C 
ATOM     26  N   UNL     1       4.625   4.493  17.789  0.00  0.00    +0.000 NA
ATOM     27  C   UNL     1       4.041   4.970  19.061  0.00  0.00    +0.000 C 
ATOM     28  C   UNL     1       2.529   5.292  18.989  0.00  0.00    +0.000 C 
ENDBRANCH  20  26
ENDBRANCH   1  20
TORSDOF 4
ENDMDL
MODEL 3
REMARK VINA RESULT:      -8.2      6.959     10.184
REMARK  Name = 
REMARK  6 active torsions:
REMARK  status: ('A' for Active; 'I' for Inactive)
REMARK    1  A    between atoms: C_1  and  N_2
REMARK    2  A    between atoms: N_6  and  C_7
REMARK    3  A    between atoms: C_7  and  C_8
REMARK    4  A    between atoms: C_11  and  C_12
REMARK    5  A    between atoms: C_15  and  N_16
REMARK    6  A    between atoms: N_19  and  C_20
REMARK                            x       y       z     vdW  Elec       q    Type
REMARK                         _______ _______ _______ _____ _____    ______ ____
ROOT
ATOM      1  C   UNL     1       2.471   6.980  19.150  0.00  0.00    +0.000 A 
ATOM      2  C   UNL     1       2.171   8.170  18.505  0.00  0.00    +0.000 A 
ATOM      3  C   UNL     1       1.439   9.168  19.145  0.00  0.00    +0.000 A 
ATOM      4  C   UNL     1       0.933   8.972  20.443  0.00  0.00    +0.000 A 
ATOM      5  C   UNL     1       1.261   7.774  21.098  0.00  0.00    +0.000 A 
ATOM      6  C   UNL     1       2.057   6.810  20.484  0.00  0.00    +0.000 A 
ENDROOT
BRANCH   4   7
ATOM      7  C   UNL     1       0.097   9.978  21.093  0.00  0.00    +0.000 A 
ATOM      8  C   UNL     1      -0.340  11.128  20.419  0.00  0.00    +0.000 A 
ATOM      9  C   UNL     1      -1.139  12.068  21.054  0.00  0.00    +0.000 A 
ATOM     10  C   UNL     1      -1.555  11.885  22.380  0.00  0.00    +0.000 A 
ATOM     11  C   UNL     1      -1.106  10.742  23.045  0.00  0.00    +0.000 A 
ATOM     12  C   UNL     1      -0.304   9.813  22.426  0.00  0.00    +0.000 A 
BRANCH  10  13
ATOM     13  N   UNL     1      -2.438  12.741  22.985  0.00  0.00    +0.000 N 
ATOM     14  C   UNL     1      -3.474  12.228  23.890  0.00  0.00    +0.000 C 
ATOM     15  C   UNL     1      -4.752  13.073  23.713  0.00  0.00    +0.000 C 
ATOM     16  N   UNL     1      -4.496  14.519  23.911  0.00  0.00    +0.000 NA
ATOM     17  C   UNL     1      -5.719  15.288  23.710  0.00  0.00    +0.000 C 
ATOM     18  C   UNL     1      -3.441  14.962  22.968  0.00  0.00    +0.000 C 
ATOM     19  C   UNL     1      -2.133  14.162  23.128  0.00  0.00    +0.000 C 
ENDBRANCH  10  13
ENDBRANCH   4   7
BRANCH   1  20
ATOM     20  C   UNL     1       3.178   5.831  18.446  0.00  0.00    +0.000 C 
BRANCH  20  26
ATOM     21  C   UNL     1       7.061   4.792  14.710  0.00  0.00    +0.000 C 
ATOM     22  N   UNL     1       7.194   5.505  15.981  0.00  0.00    +0.000 NA
ATOM     23  C   UNL     1       7.257   4.566  17.108  0.00  0.00    +0.000 C 
ATOM     24  C   UNL     1       6.949   5.172  18.483  0.00  0.00    +0.000 C 
ATOM     25  C   UNL     1       5.454   5.167  18.816  0.00  0.00    +0.000 C 
ATOM     26  N   UNL     1       4.592   6.110  18.086  0.00  0.00    +0.000 NA
ATOM     27  C   UNL     1       4.778   6.044  16.621  0.00  0.00    +0.000 C 
ATOM     28  C   UNL     1       6.162   6.533  16.130  0.00  0.00    +0.000 C 
ENDBRANCH  20  26
ENDBRANCH   1  20
TORSDOF 4
ENDMDL
MODEL 4
REMARK VINA RESULT:      -8.1      6.619      9.718
REMARK  Name = 
REMARK  6 active torsions:
REMARK  status: ('A' for Active; 'I' for Inactive)
REMARK    1  A    between atoms: C_1  and  N_2
REMARK    2  A    between atoms: N_6  and  C_7
REMARK    3  A    between atoms: C_7  and  C_8
REMARK    4  A    between atoms: C_11  and  C_12
REMARK    5  A    between atoms: C_15  and  N_16
REMARK    6  A    between atoms: N_19  and  C_20
REMARK                            x       y       z     vdW  Elec       q    Type
REMARK                         _______ _______ _______ _____ _____    ______ ____
ROOT
ATOM      1  C   UNL     1       2.566   6.167  19.518  0.00  0.00    +0.000 A 
ATOM      2  C   UNL     1       1.825   5.952  20.670  0.00  0.00    +0.000 A 
ATOM      3  C   UNL     1       1.032   6.961  21.211  0.00  0.00    +0.000 A 
ATOM      4  C   UNL     1       1.006   8.246  20.637  0.00  0.00    +0.000 A 
ATOM      5  C   UNL     1       1.740   8.448  19.457  0.00  0.00    +0.000 A 
ATOM      6  C   UNL     1       2.471   7.416  18.876  0.00  0.00    +0.000 A 
ENDROOT
BRANCH   4   7
ATOM      7  C   UNL     1       0.241   9.333  21.241  0.00  0.00    +0.000 A 
ATOM      8  C   UNL     1      -0.241   9.260  22.556  0.00  0.00    +0.000 A 
ATOM      9  C   UNL     1      -0.960  10.308  23.114  0.00  0.00    +0.000 A 
ATOM     10  C   UNL     1      -1.204  11.483  22.388  0.00  0.00    +0.000 A 
ATOM     11  C   UNL     1      -0.729  11.541  21.077  0.00  0.00    +0.000 A 
ATOM     12  C   UNL     1      -0.027  10.502  20.514  0.00  0.00    +0.000 A 
BRANCH  10  13
ATOM     13  N   UNL     1      -1.809  12.572  22.959  0.00  0.00    +0.000 N 
ATOM     14  C   UNL     1      -3.069  12.423  23.698  0.00  0.00    +0.000 C 
ATOM     15  C   UNL     1      -3.941  13.672  23.450  0.00  0.00    +0.000 C 
ATOM     16  N   UNL     1      -3.230  14.925  23.794  0.00  0.00    +0.000 NA
ATOM     17  C   UNL     1      -4.074  16.084  23.523  0.00  0.00    +0.000 C 
ATOM     18  C   UNL     1      -1.972  15.003  23.014  0.00  0.00    +0.000 C 
ATOM     19  C   UNL     1      -1.054  13.787  23.252  0.00  0.00    +0.000 C 
ENDBRANCH  10  13
ENDBRANCH   4   7
BRANCH   1  20
ATOM     20  C   UNL     1       3.519   5.122  18.959  0.00  0.00    +0.000 C 
BRANCH  20  26
ATOM     21  C   UNL     1       6.959   4.581  14.717  0.00  0.00    +0.000 C 
ATOM     22  N   UNL     1       7.087   5.458  15.882  0.00  0.00    +0.000 NA
ATOM     23  C   UNL     1       7.550   4.708  17.056  0.00  0.00    +0.000 C 
ATOM     24  C   UNL     1       7.299   5.389  18.408  0.00  0.00    +0.000 C 
ATOM     25  C   UNL     1       5.919   5.070  18.991  0.00  0.00    +0.000 C 
ATOM     26  N   UNL     1       4.749   5.683  18.341  0.00  0.00    +0.000 NA
ATOM     27  C   UNL     1       4.733   5.481  16.876  0.00  0.00    +0.000 C 
ATOM     28  C   UNL     1       5.861   6.221  16.117  0.00  0.00    +0.000 C 
ENDBRANCH  20  26
ENDBRANCH   1  20
TORSDOF 4
ENDMDL
MODEL 5
REMARK VINA RESULT:      -8.1      6.466      9.577
REMARK  Name = 
REMARK  6 active torsions:
REMARK  status: ('A' for Active; 'I' for Inactive)
REMARK    1  A    between atoms: C_1  and  N_2
REMARK    2  A    between atoms: N_6  and  C_7
REMARK    3  A    between atoms: C_7  and  C_8
REMARK    4  A    between atoms: C_11  and  C_12
REMARK    5  A    between atoms: C_15  and  N_16
REMARK    6  A    between atoms: N_19  and  C_20
REMARK                            x       y       z     vdW  Elec       q    Type
REMARK                         _______ _______ _______ _____ _____    ______ ____
ROOT
ATOM      1  C   UNL     1       2.724   5.931  19.370  0.00  0.00    +0.000 A 
ATOM      2  C   UNL     1       2.042   5.758  20.565  0.00  0.00    +0.000 A 
ATOM      3  C   UNL     1       1.258   6.779  21.098  0.00  0.00    +0.000 A 
ATOM      4  C   UNL     1       1.182   8.035  20.470  0.00  0.00    +0.000 A 
ATOM      5  C   UNL     1       1.857   8.195  19.248  0.00  0.00    +0.000 A 
ATOM      6  C   UNL     1       2.578   7.149  18.679  0.00  0.00    +0.000 A 
ENDROOT
BRANCH   4   7
ATOM      7  C   UNL     1       0.429   9.137  21.060  0.00  0.00    +0.000 A 
ATOM      8  C   UNL     1       0.218   9.235  22.444  0.00  0.00    +0.000 A 
ATOM      9  C   UNL     1      -0.495  10.294  22.985  0.00  0.00    +0.000 A 
ATOM     10  C   UNL     1      -1.006  11.314  22.169  0.00  0.00    +0.000 A 
ATOM     11  C   UNL     1      -0.800  11.201  20.793  0.00  0.00    +0.000 A 
ATOM     12  C   UNL     1      -0.105  10.148  20.248  0.00  0.00    +0.000 A 
BRANCH  10  13
ATOM     13  N   UNL     1      -1.611  12.425  22.695  0.00  0.00    +0.000 N 
ATOM     14  C   UNL     1      -0.909  13.715  22.719  0.00  0.00    +0.000 C 
ATOM     15  C   UNL     1      -1.292  14.466  24.011  0.00  0.00    +0.000 C 
ATOM     16  N   UNL     1      -2.759  14.619  24.153  0.00  0.00    +0.000 NA
ATOM     17  C   UNL     1      -3.083  15.308  25.397  0.00  0.00    +0.000 C 
ATOM     18  C   UNL     1      -3.396  13.281  24.117  0.00  0.00    +0.000 C 
ATOM     19  C   UNL     1      -3.063  12.503  22.828  0.00  0.00    +0.000 C 
ENDBRANCH  10  13
ENDBRANCH   4   7
BRANCH   1  20
ATOM     20  C   UNL     1       3.668   4.877  18.814  0.00  0.00    +0.000 C 
BRANCH  20  26
ATOM     21  C   UNL     1       6.565   4.265  14.193  0.00  0.00    +0.000 C 
ATOM     22  N   UNL     1       6.834   5.159  15.320  0.00  0.00    +0.000 NA
ATOM     23  C   UNL     1       7.436   4.426  16.441  0.00  0.00    +0.000 C 
ATOM     24  C   UNL     1       7.352   5.127  17.803  0.00  0.00    +0.000 C 
ATOM     25  C   UNL     1       6.053   4.820  18.554  0.00  0.00    +0.000 C 
ATOM     26  N   UNL     1       4.813   5.426  18.042  0.00  0.00    +0.000 NA
ATOM     27  C   UNL     1       4.619   5.203  16.593  0.00  0.00    +0.000 C 
ATOM     28  C   UNL     1       5.646   5.928  15.691  0.00  0.00    +0.000 C 
ENDBRANCH  20  26
ENDBRANCH   1  20
TORSDOF 4
ENDMDL
MODEL 6
REMARK VINA RESULT:      -8.1      7.501     11.164
REMARK  Name = 
REMARK  6 active torsions:
REMARK  status: ('A' for Active; 'I' for Inactive)
REMARK    1  A    between atoms: C_1  and  N_2
REMARK    2  A    between atoms: N_6  and  C_7
REMARK    3  A    between atoms: C_7  and  C_8
REMARK    4  A    between atoms: C_11  and  C_12
REMARK    5  A    between atoms: C_15  and  N_16
REMARK    6  A    between atoms: N_19  and  C_20
REMARK                            x       y       z     vdW  Elec       q    Type
REMARK                         _______ _______ _______ _____ _____    ______ ____
ROOT
ATOM      1  C   UNL     1      -1.322  11.418  22.133  0.00  0.00    +0.000 A 
ATOM      2  C   UNL     1      -1.184  11.581  20.763  0.00  0.00    +0.000 A 
ATOM      3  C   UNL     1      -0.397  10.709  20.013  0.00  0.00    +0.000 A 
ATOM      4  C   UNL     1       0.328   9.675  20.634  0.00  0.00    +0.000 A 
ATOM      5  C   UNL     1       0.164   9.503  22.018  0.00  0.00    +0.000 A 
ATOM      6  C   UNL     1      -0.683  10.328  22.753  0.00  0.00    +0.000 A 
ENDROOT
BRANCH   4   7
ATOM      7  C   UNL     1       1.218   8.806  19.870  0.00  0.00    +0.000 A 
ATOM      8  C   UNL     1       1.701   9.168  18.603  0.00  0.00    +0.000 A 
ATOM      9  C   UNL     1       2.552   8.331  17.896  0.00  0.00    +0.000 A 
ATOM     10  C   UNL     1       2.976   7.108  18.437  0.00  0.00    +0.000 A 
ATOM     11  C   UNL     1       2.481   6.753  19.693  0.00  0.00    +0.000 A 
ATOM     12  C   UNL     1       1.628   7.572  20.394  0.00  0.00    +0.000 A 
BRANCH  10  13
ATOM     13  N   UNL     1       3.906   6.323  17.807  0.00  0.00    +0.000 N 
ATOM     14  C   UNL     1       5.002   6.933  17.043  0.00  0.00    +0.000 C 
ATOM     15  C   UNL     1       5.301   6.051  15.813  0.00  0.00    +0.000 C 
ATOM     16  N   UNL     1       5.589   4.647  16.190  0.00  0.00    +0.000 NA
ATOM     17  C   UNL     1       5.840   3.839  15.003  0.00  0.00    +0.000 C 
ATOM     18  C   UNL     1       4.444   4.103  16.958  0.00  0.00    +0.000 C 
ATOM     19  C   UNL     1       4.125   4.938  18.215  0.00  0.00    +0.000 C 
ENDBRANCH  10  13
ENDBRANCH   4   7
BRANCH   1  20
ATOM     20  C   UNL     1      -2.089  12.409  22.995  0.00  0.00    +0.000 C 
BRANCH  20  26
ATOM     21  C   UNL     1      -6.797  14.906  21.682  0.00  0.00    +0.000 C 
ATOM     22  N   UNL     1      -6.610  13.619  22.355  0.00  0.00    +0.000 NA
ATOM     23  C   UNL     1      -6.269  13.810  23.770  0.00  0.00    +0.000 C 
ATOM     24  C   UNL     1      -5.623  12.600  24.457  0.00  0.00    +0.000 C 
ATOM     25  C   UNL     1      -4.100  12.565  24.296  0.00  0.00    +0.000 C 
ATOM     26  N   UNL     1      -3.564  12.234  22.966  0.00  0.00    +0.000 NA
ATOM     27  C   UNL     1      -4.163  13.048  21.886  0.00  0.00    +0.000 C 
ATOM     28  C   UNL     1      -5.664  12.768  21.632  0.00  0.00    +0.000 C 
ENDBRANCH  20  26
ENDBRANCH   1  20
TORSDOF 4
ENDMDL
MODEL 7
REMARK VINA RESULT:      -8.1      7.750     11.315
REMARK  Name = 
REMARK  6 active torsions:
REMARK  status: ('A' for Active; 'I' for Inactive)
REMARK    1  A    between atoms: C_1  and  N_2
REMARK    2  A    between atoms: N_6  and  C_7
REMARK    3  A    between atoms: C_7  and  C_8
REMARK    4  A    between atoms: C_11  and  C_12
REMARK    5  A    between atoms: C_15  and  N_16
REMARK    6  A    between atoms: N_19  and  C_20
REMARK                            x       y       z     vdW  Elec       q    Type
REMARK                         _______ _______ _______ _____ _____    ______ ____
ROOT
ATOM      1  C   UNL     1      -1.604  11.862  22.523  0.00  0.00    +0.000 A 
ATOM      2  C   UNL     1      -1.122  10.693  23.091  0.00  0.00    +0.000 A 
ATOM      3  C   UNL     1      -0.269   9.849  22.382  0.00  0.00    +0.000 A 
ATOM      4  C   UNL     1       0.080  10.131  21.048  0.00  0.00    +0.000 A 
ATOM      5  C   UNL     1      -0.393  11.329  20.489  0.00  0.00    +0.000 A 
ATOM      6  C   UNL     1      -1.183  12.207  21.225  0.00  0.00    +0.000 A 
ENDROOT
BRANCH   4   7
ATOM      7  C   UNL     1       0.907   9.214  20.270  0.00  0.00    +0.000 A 
ATOM      8  C   UNL     1       1.265   9.484  18.940  0.00  0.00    +0.000 A 
ATOM      9  C   UNL     1       2.059   8.603  18.220  0.00  0.00    +0.000 A 
ATOM     10  C   UNL     1       2.548   7.427  18.807  0.00  0.00    +0.000 A 
ATOM     11  C   UNL     1       2.177   7.162  20.126  0.00  0.00    +0.000 A 
ATOM     12  C   UNL     1       1.381   8.025  20.842  0.00  0.00    +0.000 A 
BRANCH  10  13
ATOM     13  N   UNL     1       3.426   6.605  18.151  0.00  0.00    +0.000 N 
ATOM     14  C   UNL     1       3.368   5.149  18.339  0.00  0.00    +0.000 C 
ATOM     15  C   UNL     1       4.803   4.585  18.308  0.00  0.00    +0.000 C 
ATOM     16  N   UNL     1       5.525   4.966  17.071  0.00  0.00    +0.000 NA
ATOM     17  C   UNL     1       6.885   4.439  17.088  0.00  0.00    +0.000 C 
ATOM     18  C   UNL     1       5.540   6.443  16.949  0.00  0.00    +0.000 C 
ATOM     19  C   UNL     1       4.122   7.050  16.947  0.00  0.00    +0.000 C 
ENDBRANCH  10  13
ENDBRANCH   4   7
BRANCH   1  20
ATOM     20  C   UNL     1      -2.615  12.751  23.230  0.00  0.00    +0.000 C 
BRANCH  20  26
ATOM     21  C   UNL     1      -7.366  14.385  21.020  0.00  0.00    +0.000 C 
ATOM     22  N   UNL     1      -7.110  13.208  21.851  0.00  0.00    +0.000 NA
ATOM     23  C   UNL     1      -7.015  13.574  23.269  0.00  0.00    +0.000 C 
ATOM     24  C   UNL     1      -6.322  12.542  24.167  0.00  0.00    +0.000 C 
ATOM     25  C   UNL     1      -4.802  12.721  24.220  0.00  0.00    +0.000 C 
ATOM     26  N   UNL     1      -4.032  12.355  23.020  0.00  0.00    +0.000 NA
ATOM     27  C   UNL     1      -4.566  12.969  21.785  0.00  0.00    +0.000 C 
ATOM     28  C   UNL     1      -5.959  12.446  21.362  0.00  0.00    +0.000 C 
ENDBRANCH  20  26
ENDBRANCH   1  20
TORSDOF 4
ENDMDL
MODEL 8
REMARK VINA RESULT:      -8.1      7.600     11.147
REMARK  Name = 
REMARK  6 active torsions:
REMARK  status: ('A' for Active; 'I' for Inactive)
REMARK    1  A    between atoms: C_1  and  N_2
REMARK    2  A    between atoms: N_6  and  C_7
REMARK    3  A    between atoms: C_7  and  C_8
REMARK    4  A    between atoms: C_11  and  C_12
REMARK    5  A    between atoms: C_15  and  N_16
REMARK    6  A    between atoms: N_19  and  C_20
REMARK                            x       y       z     vdW  Elec       q    Type
REMARK                         _______ _______ _______ _____ _____    ______ ____
ROOT
ATOM      1  C   UNL     1      -1.522  11.489  22.234  0.00  0.00    +0.000 A 
ATOM      2  C   UNL     1      -1.301  11.675  20.878  0.00  0.00    +0.000 A 
ATOM      3  C   UNL     1      -0.494  10.799  20.156  0.00  0.00    +0.000 A 
ATOM      4  C   UNL     1       0.168   9.734  20.794  0.00  0.00    +0.000 A 
ATOM      5  C   UNL     1      -0.079   9.539  22.163  0.00  0.00    +0.000 A 
ATOM      6  C   UNL     1      -0.947  10.370  22.866  0.00  0.00    +0.000 A 
ENDROOT
BRANCH   4   7
ATOM      7  C   UNL     1       1.079   8.858  20.064  0.00  0.00    +0.000 A 
ATOM      8  C   UNL     1       1.549   9.178  18.781  0.00  0.00    +0.000 A 
ATOM      9  C   UNL     1       2.420   8.335  18.107  0.00  0.00    +0.000 A 
ATOM     10  C   UNL     1       2.879   7.148  18.698  0.00  0.00    +0.000 A 
ATOM     11  C   UNL     1       2.397   6.834  19.970  0.00  0.00    +0.000 A 
ATOM     12  C   UNL     1       1.524   7.659  20.639  0.00  0.00    +0.000 A 
BRANCH  10  13
ATOM     13  N   UNL     1       3.828   6.363  18.098  0.00  0.00    +0.000 N 
ATOM     14  C   UNL     1       3.920   4.932  18.413  0.00  0.00    +0.000 C 
ATOM     15  C   UNL     1       5.404   4.514  18.400  0.00  0.00    +0.000 C 
ATOM     16  N   UNL     1       6.068   4.853  17.120  0.00  0.00    +0.000 NA
ATOM     17  C   UNL     1       7.474   4.469  17.154  0.00  0.00    +0.000 C 
ATOM     18  C   UNL     1       5.932   6.308  16.869  0.00  0.00    +0.000 C 
ATOM     19  C   UNL     1       4.460   6.768  16.845  0.00  0.00    +0.000 C 
ENDBRANCH  10  13
ENDBRANCH   4   7
BRANCH   1  20
ATOM     20  C   UNL     1      -2.313  12.482  23.072  0.00  0.00    +0.000 C 
BRANCH  20  26
ATOM     21  C   UNL     1      -7.105  14.786  21.713  0.00  0.00    +0.000 C 
ATOM     22  N   UNL     1      -6.873  13.530  22.427  0.00  0.00    +0.000 NA
ATOM     23  C   UNL     1      -6.529  13.779  23.832  0.00  0.00    +0.000 C 
ATOM     24  C   UNL     1      -5.840  12.614  24.554  0.00  0.00    +0.000 C 
ATOM     25  C   UNL     1      -4.319  12.620  24.383  0.00  0.00    +0.000 C 
ATOM     26  N   UNL     1      -3.782  12.261  23.060  0.00  0.00    +0.000 NA
ATOM     27  C   UNL     1      -4.414  13.018  21.958  0.00  0.00    +0.000 C 
ATOM     28  C   UNL     1      -5.907  12.684  21.726  0.00  0.00    +0.000 C 
ENDBRANCH  20  26
ENDBRANCH   1  20
TORSDOF 4
ENDMDL
MODEL 9
REMARK VINA RESULT:      -8.0      7.113     10.067
REMARK  Name = 
REMARK  6 active torsions:
REMARK  status: ('A' for Active; 'I' for Inactive)
REMARK    1  A    between atoms: C_1  and  N_2
REMARK    2  A    between atoms: N_6  and  C_7
REMARK    3  A    between atoms: C_7  and  C_8
REMARK    4  A    between atoms: C_11  and  C_12
REMARK    5  A    between atoms: C_15  and  N_16
REMARK    6  A    between atoms: N_19  and  C_20
REMARK                            x       y       z     vdW  Elec       q    Type
REMARK                         _______ _______ _______ _____ _____    ______ ____
ROOT
ATOM      1  C   UNL     1       2.420   7.097  19.186  0.00  0.00    +0.000 A 
ATOM      2  C   UNL     1       2.103   8.221  18.438  0.00  0.00    +0.000 A 
ATOM      3  C   UNL     1       1.349   9.257  18.984  0.00  0.00    +0.000 A 
ATOM      4  C   UNL     1       0.838   9.167  20.292  0.00  0.00    +0.000 A 
ATOM      5  C   UNL     1       1.184   8.037  21.051  0.00  0.00    +0.000 A 
ATOM      6  C   UNL     1       2.000   7.038  20.528  0.00  0.00    +0.000 A 
ENDROOT
BRANCH   4   7
ATOM      7  C   UNL     1      -0.019  10.210  20.848  0.00  0.00    +0.000 A 
ATOM      8  C   UNL     1      -0.585  11.211  20.044  0.00  0.00    +0.000 A 
ATOM      9  C   UNL     1      -1.403  12.189  20.591  0.00  0.00    +0.000 A 
ATOM     10  C   UNL     1      -1.709  12.193  21.960  0.00  0.00    +0.000 A 
ATOM     11  C   UNL     1      -1.132  11.199  22.752  0.00  0.00    +0.000 A 
ATOM     12  C   UNL     1      -0.311  10.234  22.219  0.00  0.00    +0.000 A 
BRANCH  10  13
ATOM     13  N   UNL     1      -2.606  13.079  22.497  0.00  0.00    +0.000 N 
ATOM     14  C   UNL     1      -3.057  14.244  21.725  0.00  0.00    +0.000 C 
ATOM     15  C   UNL     1      -3.252  15.433  22.688  0.00  0.00    +0.000 C 
ATOM     16  N   UNL     1      -4.171  15.105  23.802  0.00  0.00    +0.000 NA
ATOM     17  C   UNL     1      -4.309  16.242  24.705  0.00  0.00    +0.000 C 
ATOM     18  C   UNL     1      -3.653  13.921  24.530  0.00  0.00    +0.000 C 
ATOM     19  C   UNL     1      -3.469  12.697  23.611  0.00  0.00    +0.000 C 
ENDBRANCH  10  13
ENDBRANCH   4   7
BRANCH   1  20
ATOM     20  C   UNL     1       3.152   5.905  18.590  0.00  0.00    +0.000 C 
BRANCH  20  26
ATOM     21  C   UNL     1       7.079   4.628  14.975  0.00  0.00    +0.000 C 
ATOM     22  N   UNL     1       7.191   5.444  16.185  0.00  0.00    +0.000 NA
ATOM     23  C   UNL     1       7.260   4.600  17.384  0.00  0.00    +0.000 C 
ATOM     24  C   UNL     1       6.932   5.309  18.704  0.00  0.00    +0.000 C 
ATOM     25  C   UNL     1       5.435   5.308  19.027  0.00  0.00    +0.000 C 
ATOM     26  N   UNL     1       4.564   6.176  18.217  0.00  0.00    +0.000 NA
ATOM     27  C   UNL     1       4.763   5.995  16.763  0.00  0.00    +0.000 C 
ATOM     28  C   UNL     1       6.143   6.464  16.243  0.00  0.00    +0.000 C 
ENDBRANCH  20  26
ENDBRANCH   1  20
TORSDOF 4
ENDMDL
