MODEL 1
REMARK VINA RESULT:      -6.7      0.000      0.000
REMARK  Name = 
REMARK  4 active torsions:
REMARK  status: ('A' for Active; 'I' for Inactive)
REMARK    1  A    between atoms: C_1  and  C_2
REMARK    2  A    between atoms: C_5  and  C_6
REMARK    3  A    between atoms: N_7  and  C_8
REMARK    4  A    between atoms: C_12  and  C_13
REMARK                            x       y       z     vdW  Elec       q    Type
REMARK                         _______ _______ _______ _____ _____    ______ ____
ROOT
ATOM      1  C   UNL     1       4.403   3.760  17.535  0.00  0.00    +0.000 A 
ATOM      2  S   UNL     1       2.801   3.105  17.249  0.00  0.00    +0.000 S 
ATOM      3  C   UNL     1       2.330   3.461  18.805  0.00  0.00    +0.000 A 
ATOM      4  C   UNL     1       3.301   4.048  19.563  0.00  0.00    +0.000 A 
ATOM      5  C   UNL     1       4.499   4.243  18.843  0.00  0.00    +0.000 A 
ATOM      6  C   UNL     1       2.800   4.346  20.929  0.00  0.00    +0.000 C 
ATOM      7  C   UNL     1       1.488   3.504  20.986  0.00  0.00    +0.000 C 
ATOM      8  C   UNL     1       1.041   3.276  19.510  0.00  0.00    +0.000 C 
ENDROOT
BRANCH   1  10
ATOM      9  C   UNL     1       4.872   4.343  15.366  0.00  0.00    +0.000 C 
ATOM     10  N   UNL     1       5.234   3.755  16.459  0.00  0.00    +0.000 NA
BRANCH   9  15
ATOM     11  C   UNL     1       8.716   5.835  12.872  0.00  0.00    +0.000 C 
ATOM     12  C   UNL     1       7.517   5.002  13.094  0.00  0.00    +0.000 A 
ATOM     13  C   UNL     1       6.912   4.012  12.352  0.00  0.00    +0.000 A 
ATOM     14  C   UNL     1       5.785   3.594  13.093  0.00  0.00    +0.000 A 
ATOM     15  C   UNL     1       5.771   4.348  14.247  0.00  0.00    +0.000 A 
ATOM     16  O   UNL     1       6.829   5.213  14.253  0.00  0.00    +0.000 OA
ENDBRANCH   9  15
ENDBRANCH   1  10
BRANCH   5  17
ATOM     17  C   UNL     1       5.659   4.876  19.381  0.00  0.00    +0.000 C 
ATOM     18  N   UNL     1       6.623   5.389  19.779  0.00  0.00    +0.000 NA
ENDBRANCH   5  17
TORSDOF 3
ENDMDL
MODEL 2
REMARK VINA RESULT:      -6.7      0.768      1.324
REMARK  Name = 
REMARK  4 active torsions:
REMARK  status: ('A' for Active; 'I' for Inactive)
REMARK    1  A    between atoms: C_1  and  C_2
REMARK    2  A    between atoms: C_5  and  C_6
REMARK    3  A    between atoms: N_7  and  C_8
REMARK    4  A    between atoms: C_12  and  C_13
REMARK                            x       y       z     vdW  Elec       q    Type
REMARK                         _______ _______ _______ _____ _____    ______ ____
ROOT
ATOM      1  C   UNL     1       4.151   3.522  17.662  0.00  0.00    +0.000 A 
ATOM      2  S   UNL     1       2.560   2.809  17.479  0.00  0.00    +0.000 S 
ATOM      3  C   UNL     1       2.136   3.248  19.027  0.00  0.00    +0.000 A 
ATOM      4  C   UNL     1       3.117   3.906  19.710  0.00  0.00    +0.000 A 
ATOM      5  C   UNL     1       4.282   4.088  18.934  0.00  0.00    +0.000 A 
ATOM      6  C   UNL     1       2.659   4.275  21.074  0.00  0.00    +0.000 C 
ATOM      7  C   UNL     1       1.375   3.403  21.232  0.00  0.00    +0.000 C 
ATOM      8  C   UNL     1       0.880   3.073  19.791  0.00  0.00    +0.000 C 
ENDROOT
BRANCH   1  10
ATOM      9  C   UNL     1       5.056   4.516  15.803  0.00  0.00    +0.000 C 
ATOM     10  N   UNL     1       4.942   3.472  16.557  0.00  0.00    +0.000 NA
BRANCH   9  15
ATOM     11  C   UNL     1       6.490   2.824  11.525  0.00  0.00    +0.000 C 
ATOM     12  C   UNL     1       6.583   3.709  12.703  0.00  0.00    +0.000 A 
ATOM     13  C   UNL     1       7.461   4.710  13.058  0.00  0.00    +0.000 A 
ATOM     14  C   UNL     1       7.030   5.186  14.316  0.00  0.00    +0.000 A 
ATOM     15  C   UNL     1       5.912   4.454  14.653  0.00  0.00    +0.000 A 
ATOM     16  O   UNL     1       5.634   3.548  13.669  0.00  0.00    +0.000 OA
ENDBRANCH   9  15
ENDBRANCH   1  10
BRANCH   5  17
ATOM     17  C   UNL     1       5.442   4.782  19.387  0.00  0.00    +0.000 C 
ATOM     18  N   UNL     1       6.412   5.328  19.724  0.00  0.00    +0.000 NA
ENDBRANCH   5  17
TORSDOF 3
ENDMDL
MODEL 3
REMARK VINA RESULT:      -6.6      1.649      1.723
REMARK  Name = 
REMARK  4 active torsions:
REMARK  status: ('A' for Active; 'I' for Inactive)
REMARK    1  A    between atoms: C_1  and  C_2
REMARK    2  A    between atoms: C_5  and  C_6
REMARK    3  A    between atoms: N_7  and  C_8
REMARK    4  A    between atoms: C_12  and  C_13
REMARK                            x       y       z     vdW  Elec       q    Type
REMARK                         _______ _______ _______ _____ _____    ______ ____
ROOT
ATOM      1  C   UNL     1       3.925   4.621  17.398  0.00  0.00    +0.000 A 
ATOM      2  S   UNL     1       3.857   2.979  18.009  0.00  0.00    +0.000 S 
ATOM      3  C   UNL     1       2.998   3.465  19.349  0.00  0.00    +0.000 A 
ATOM      4  C   UNL     1       2.745   4.805  19.394  0.00  0.00    +0.000 A 
ATOM      5  C   UNL     1       3.258   5.487  18.270  0.00  0.00    +0.000 A 
ATOM      6  C   UNL     1       1.965   5.157  20.608  0.00  0.00    +0.000 C 
ATOM      7  C   UNL     1       2.113   3.868  21.475  0.00  0.00    +0.000 C 
ATOM      8  C   UNL     1       2.440   2.705  20.490  0.00  0.00    +0.000 C 
ENDROOT
BRANCH   1  10
ATOM      9  C   UNL     1       5.629   4.133  15.941  0.00  0.00    +0.000 C 
ATOM     10  N   UNL     1       4.530   4.768  16.190  0.00  0.00    +0.000 NA
BRANCH   9  15
ATOM     11  C   UNL     1       8.799   5.968  12.809  0.00  0.00    +0.000 C 
ATOM     12  C   UNL     1       7.678   5.093  13.208  0.00  0.00    +0.000 A 
ATOM     13  C   UNL     1       6.908   4.182  12.518  0.00  0.00    +0.000 A 
ATOM     14  C   UNL     1       5.981   3.663  13.448  0.00  0.00    +0.000 A 
ATOM     15  C   UNL     1       6.242   4.281  14.652  0.00  0.00    +0.000 A 
ATOM     16  O   UNL     1       7.280   5.159  14.511  0.00  0.00    +0.000 OA
ENDBRANCH   9  15
ENDBRANCH   1  10
BRANCH   5  17
ATOM     17  C   UNL     1       3.097   6.886  18.043  0.00  0.00    +0.000 C 
ATOM     18  N   UNL     1       2.921   8.019  17.854  0.00  0.00    +0.000 NA
ENDBRANCH   5  17
TORSDOF 3
ENDMDL
MODEL 4
REMARK VINA RESULT:      -6.6      1.690      2.094
REMARK  Name = 
REMARK  4 active torsions:
REMARK  status: ('A' for Active; 'I' for Inactive)
REMARK    1  A    between atoms: C_1  and  C_2
REMARK    2  A    between atoms: C_5  and  C_6
REMARK    3  A    between atoms: N_7  and  C_8
REMARK    4  A    between atoms: C_12  and  C_13
REMARK                            x       y       z     vdW  Elec       q    Type
REMARK                         _______ _______ _______ _____ _____    ______ ____
ROOT
ATOM      1  C   UNL     1       3.531   3.938  17.574  0.00  0.00    +0.000 A 
ATOM      2  S   UNL     1       3.301   2.311  18.187  0.00  0.00    +0.000 S 
ATOM      3  C   UNL     1       2.434   2.877  19.490  0.00  0.00    +0.000 A 
ATOM      4  C   UNL     1       2.292   4.233  19.521  0.00  0.00    +0.000 A 
ATOM      5  C   UNL     1       2.905   4.862  18.415  0.00  0.00    +0.000 A 
ATOM      6  C   UNL     1       1.497   4.658  20.701  0.00  0.00    +0.000 C 
ATOM      7  C   UNL     1       1.502   3.367  21.577  0.00  0.00    +0.000 C 
ATOM      8  C   UNL     1       1.769   2.174  20.610  0.00  0.00    +0.000 C 
ENDROOT
BRANCH   1  10
ATOM      9  C   UNL     1       5.450   4.328  16.379  0.00  0.00    +0.000 C 
ATOM     10  N   UNL     1       4.193   4.026  16.390  0.00  0.00    +0.000 NA
BRANCH   9  15
ATOM     11  C   UNL     1       6.279   3.097  11.794  0.00  0.00    +0.000 C 
ATOM     12  C   UNL     1       6.534   3.859  13.033  0.00  0.00    +0.000 A 
ATOM     13  C   UNL     1       7.454   4.830  13.364  0.00  0.00    +0.000 A 
ATOM     14  C   UNL     1       7.202   5.171  14.712  0.00  0.00    +0.000 A 
ATOM     15  C   UNL     1       6.140   4.394  15.122  0.00  0.00    +0.000 A 
ATOM     16  O   UNL     1       5.727   3.588  14.098  0.00  0.00    +0.000 OA
ENDBRANCH   9  15
ENDBRANCH   1  10
BRANCH   5  17
ATOM     17  C   UNL     1       2.870   6.269  18.177  0.00  0.00    +0.000 C 
ATOM     18  N   UNL     1       2.813   7.419  18.018  0.00  0.00    +0.000 NA
ENDBRANCH   5  17
TORSDOF 3
ENDMDL
MODEL 5
REMARK VINA RESULT:      -6.3      7.509      9.424
REMARK  Name = 
REMARK  4 active torsions:
REMARK  status: ('A' for Active; 'I' for Inactive)
REMARK    1  A    between atoms: C_1  and  C_2
REMARK    2  A    between atoms: C_5  and  C_6
REMARK    3  A    between atoms: N_7  and  C_8
REMARK    4  A    between atoms: C_12  and  C_13
REMARK                            x       y       z     vdW  Elec       q    Type
REMARK                         _______ _______ _______ _____ _____    ______ ____
ROOT
ATOM      1  C   UNL     1       9.533  10.937  19.388  0.00  0.00    +0.000 A 
ATOM      2  S   UNL     1      10.547  11.491  18.068  0.00  0.00    +0.000 S 
ATOM      3  C   UNL     1      10.910  12.898  18.879  0.00  0.00    +0.000 A 
ATOM      4  C   UNL     1      10.316  13.008  20.102  0.00  0.00    +0.000 A 
ATOM      5  C   UNL     1       9.530  11.879  20.420  0.00  0.00    +0.000 A 
ATOM      6  C   UNL     1      10.698  14.280  20.766  0.00  0.00    +0.000 C 
ATOM      7  C   UNL     1      11.321  15.088  19.586  0.00  0.00    +0.000 C 
ATOM      8  C   UNL     1      11.778  14.043  18.523  0.00  0.00    +0.000 C 
ENDROOT
BRANCH   1  10
ATOM      9  C   UNL     1       8.438   9.382  18.105  0.00  0.00    +0.000 C 
ATOM     10  N   UNL     1       8.995   9.699  19.228  0.00  0.00    +0.000 NA
BRANCH   9  15
ATOM     11  C   UNL     1       5.653   6.040  16.032  0.00  0.00    +0.000 C 
ATOM     12  C   UNL     1       6.643   6.521  17.016  0.00  0.00    +0.000 A 
ATOM     13  C   UNL     1       7.335   5.899  18.032  0.00  0.00    +0.000 A 
ATOM     14  C   UNL     1       8.137   6.894  18.632  0.00  0.00    +0.000 A 
ATOM     15  C   UNL     1       7.894   8.063  17.944  0.00  0.00    +0.000 A 
ATOM     16  O   UNL     1       6.980   7.841  16.954  0.00  0.00    +0.000 OA
ENDBRANCH   9  15
ENDBRANCH   1  10
BRANCH   5  17
ATOM     17  C   UNL     1       8.834  11.714  21.655  0.00  0.00    +0.000 C 
ATOM     18  N   UNL     1       8.305  11.592  22.682  0.00  0.00    +0.000 NA
ENDBRANCH   5  17
TORSDOF 3
ENDMDL
MODEL 6
REMARK VINA RESULT:      -6.2      5.199      8.330
REMARK  Name = 
REMARK  4 active torsions:
REMARK  status: ('A' for Active; 'I' for Inactive)
REMARK    1  A    between atoms: C_1  and  C_2
REMARK    2  A    between atoms: C_5  and  C_6
REMARK    3  A    between atoms: N_7  and  C_8
REMARK    4  A    between atoms: C_12  and  C_13
REMARK                            x       y       z     vdW  Elec       q    Type
REMARK                         _______ _______ _______ _____ _____    ______ ____
ROOT
ATOM      1  C   UNL     1       2.224   6.394  20.113  0.00  0.00    +0.000 A 
ATOM      2  S   UNL     1       2.808   7.169  18.651  0.00  0.00    +0.000 S 
ATOM      3  C   UNL     1       3.498   5.749  18.122  0.00  0.00    +0.000 A 
ATOM      4  C   UNL     1       3.333   4.696  18.973  0.00  0.00    +0.000 A 
ATOM      5  C   UNL     1       2.587   5.045  20.120  0.00  0.00    +0.000 A 
ATOM      6  C   UNL     1       3.963   3.468  18.426  0.00  0.00    +0.000 C 
ATOM      7  C   UNL     1       4.856   4.041  17.283  0.00  0.00    +0.000 C 
ATOM      8  C   UNL     1       4.239   5.417  16.884  0.00  0.00    +0.000 C 
ENDROOT
BRANCH   1  10
ATOM      9  C   UNL     1       1.346   8.441  20.662  0.00  0.00    +0.000 C 
ATOM     10  N   UNL     1       1.482   7.185  20.933  0.00  0.00    +0.000 NA
BRANCH   9  15
ATOM     11  C   UNL     1      -0.714  12.555  22.097  0.00  0.00    +0.000 C 
ATOM     12  C   UNL     1      -0.415  11.112  22.198  0.00  0.00    +0.000 A 
ATOM     13  C   UNL     1      -0.795  10.135  23.092  0.00  0.00    +0.000 A 
ATOM     14  C   UNL     1      -0.175   8.942  22.661  0.00  0.00    +0.000 A 
ATOM     15  C   UNL     1       0.541   9.257  21.526  0.00  0.00    +0.000 A 
ATOM     16  O   UNL     1       0.398  10.585  21.238  0.00  0.00    +0.000 OA
ENDBRANCH   9  15
ENDBRANCH   1  10
BRANCH   5  17
ATOM     17  C   UNL     1       2.231   4.124  21.150  0.00  0.00    +0.000 C 
ATOM     18  N   UNL     1       1.962   3.341  21.966  0.00  0.00    +0.000 NA
ENDBRANCH   5  17
TORSDOF 3
ENDMDL
MODEL 7
REMARK VINA RESULT:      -6.2      3.587      4.134
REMARK  Name = 
REMARK  4 active torsions:
REMARK  status: ('A' for Active; 'I' for Inactive)
REMARK    1  A    between atoms: C_1  and  C_2
REMARK    2  A    between atoms: C_5  and  C_6
REMARK    3  A    between atoms: N_7  and  C_8
REMARK    4  A    between atoms: C_12  and  C_13
REMARK                            x       y       z     vdW  Elec       q    Type
REMARK                         _______ _______ _______ _____ _____    ______ ____
ROOT
ATOM      1  C   UNL     1       2.544   6.824  18.551  0.00  0.00    +0.000 A 
ATOM      2  S   UNL     1       2.262   8.443  17.938  0.00  0.00    +0.000 S 
ATOM      3  C   UNL     1       1.542   8.905  19.366  0.00  0.00    +0.000 A 
ATOM      4  C   UNL     1       1.482   7.919  20.307  0.00  0.00    +0.000 A 
ATOM      5  C   UNL     1       2.070   6.715  19.861  0.00  0.00    +0.000 A 
ATOM      6  C   UNL     1       0.841   8.411  21.552  0.00  0.00    +0.000 C 
ATOM      7  C   UNL     1       0.187   9.746  21.076  0.00  0.00    +0.000 C 
ATOM      8  C   UNL     1       0.973  10.199  19.808  0.00  0.00    +0.000 C 
ENDROOT
BRANCH   1  10
ATOM      9  C   UNL     1       4.423   6.285  17.349  0.00  0.00    +0.000 C 
ATOM     10  N   UNL     1       3.217   5.993  17.710  0.00  0.00    +0.000 NA
BRANCH   9  15
ATOM     11  C   UNL     1       7.397   5.159  13.728  0.00  0.00    +0.000 C 
ATOM     12  C   UNL     1       6.481   4.844  14.843  0.00  0.00    +0.000 A 
ATOM     13  C   UNL     1       6.037   3.659  15.386  0.00  0.00    +0.000 A 
ATOM     14  C   UNL     1       5.162   4.008  16.438  0.00  0.00    +0.000 A 
ATOM     15  C   UNL     1       5.127   5.385  16.480  0.00  0.00    +0.000 A 
ATOM     16  O   UNL     1       5.932   5.903  15.505  0.00  0.00    +0.000 OA
ENDBRANCH   9  15
ENDBRANCH   1  10
BRANCH   5  17
ATOM     17  C   UNL     1       2.182   5.539  20.659  0.00  0.00    +0.000 C 
ATOM     18  N   UNL     1       2.308   4.566  21.284  0.00  0.00    +0.000 NA
ENDBRANCH   5  17
TORSDOF 3
ENDMDL
MODEL 8
REMARK VINA RESULT:      -6.1      1.872      2.615
REMARK  Name = 
REMARK  4 active torsions:
REMARK  status: ('A' for Active; 'I' for Inactive)
REMARK    1  A    between atoms: C_1  and  C_2
REMARK    2  A    between atoms: C_5  and  C_6
REMARK    3  A    between atoms: N_7  and  C_8
REMARK    4  A    between atoms: C_12  and  C_13
REMARK                            x       y       z     vdW  Elec       q    Type
REMARK                         _______ _______ _______ _____ _____    ______ ____
ROOT
ATOM      1  C   UNL     1       3.858   4.658  17.361  0.00  0.00    +0.000 A 
ATOM      2  S   UNL     1       3.664   6.390  17.557  0.00  0.00    +0.000 S 
ATOM      3  C   UNL     1       2.878   6.182  19.009  0.00  0.00    +0.000 A 
ATOM      4  C   UNL     1       2.732   4.879  19.385  0.00  0.00    +0.000 A 
ATOM      5  C   UNL     1       3.305   3.985  18.455  0.00  0.00    +0.000 A 
ATOM      6  C   UNL     1       2.036   4.778  20.693  0.00  0.00    +0.000 C 
ATOM      7  C   UNL     1       1.455   6.216  20.864  0.00  0.00    +0.000 C 
ATOM      8  C   UNL     1       2.327   7.157  19.978  0.00  0.00    +0.000 C 
ENDROOT
BRANCH   1  10
ATOM      9  C   UNL     1       5.224   5.145  15.584  0.00  0.00    +0.000 C 
ATOM     10  N   UNL     1       4.550   4.271  16.257  0.00  0.00    +0.000 NA
BRANCH   9  15
ATOM     11  C   UNL     1       5.968   2.534  11.602  0.00  0.00    +0.000 C 
ATOM     12  C   UNL     1       6.329   3.547  12.614  0.00  0.00    +0.000 A 
ATOM     13  C   UNL     1       7.424   4.368  12.770  0.00  0.00    +0.000 A 
ATOM     14  C   UNL     1       7.192   5.117  13.945  0.00  0.00    +0.000 A 
ATOM     15  C   UNL     1       5.967   4.715  14.433  0.00  0.00    +0.000 A 
ATOM     16  O   UNL     1       5.434   3.753  13.623  0.00  0.00    +0.000 OA
ENDBRANCH   9  15
ENDBRANCH   1  10
BRANCH   5  17
ATOM     17  C   UNL     1       3.333   2.569  18.622  0.00  0.00    +0.000 C 
ATOM     18  N   UNL     1       3.311   1.414  18.759  0.00  0.00    +0.000 NA
ENDBRANCH   5  17
TORSDOF 3
ENDMDL
MODEL 9
REMARK VINA RESULT:      -6.0      4.791      7.780
REMARK  Name = 
REMARK  4 active torsions:
REMARK  status: ('A' for Active; 'I' for Inactive)
REMARK    1  A    between atoms: C_1  and  C_2
REMARK    2  A    between atoms: C_5  and  C_6
REMARK    3  A    between atoms: N_7  and  C_8
REMARK    4  A    between atoms: C_12  and  C_13
REMARK                            x       y       z     vdW  Elec       q    Type
REMARK                         _______ _______ _______ _____ _____    ______ ____
ROOT
ATOM      1  C   UNL     1       2.931   6.468  18.672  0.00  0.00    +0.000 A 
ATOM      2  S   UNL     1       4.043   7.272  17.579  0.00  0.00    +0.000 S 
ATOM      3  C   UNL     1       4.489   5.821  16.896  0.00  0.00    +0.000 A 
ATOM      4  C   UNL     1       3.862   4.734  17.432  0.00  0.00    +0.000 A 
ATOM      5  C   UNL     1       2.948   5.089  18.448  0.00  0.00    +0.000 A 
ATOM      6  C   UNL     1       4.301   3.484  16.763  0.00  0.00    +0.000 C 
ATOM      7  C   UNL     1       5.572   3.957  15.991  0.00  0.00    +0.000 C 
ATOM      8  C   UNL     1       5.427   5.497  15.797  0.00  0.00    +0.000 C 
ENDROOT
BRANCH   1  10
ATOM      9  C   UNL     1       1.810   8.437  19.032  0.00  0.00    +0.000 C 
ATOM     10  N   UNL     1       2.211   7.292  19.479  0.00  0.00    +0.000 NA
BRANCH   9  15
ATOM     11  C   UNL     1      -0.296   9.682  23.185  0.00  0.00    +0.000 C 
ATOM     12  C   UNL     1       0.070   9.880  21.767  0.00  0.00    +0.000 A 
ATOM     13  C   UNL     1      -0.191  10.886  20.863  0.00  0.00    +0.000 A 
ATOM     14  C   UNL     1       0.425  10.500  19.653  0.00  0.00    +0.000 A 
ATOM     15  C   UNL     1       1.031   9.286  19.889  0.00  0.00    +0.000 A 
ATOM     16  O   UNL     1       0.817   8.901  21.183  0.00  0.00    +0.000 OA
ENDBRANCH   9  15
ENDBRANCH   1  10
BRANCH   5  17
ATOM     17  C   UNL     1       2.127   4.153  19.144  0.00  0.00    +0.000 C 
ATOM     18  N   UNL     1       1.428   3.423  19.719  0.00  0.00    +0.000 NA
ENDBRANCH   5  17
TORSDOF 3
ENDMDL
