MODEL 1
REMARK VINA RESULT:      -8.7      0.000      0.000
REMARK  Name = 
REMARK  9 active torsions:
REMARK  status: ('A' for Active; 'I' for Inactive)
REMARK    1  A    between atoms: C_1  and  O_2
REMARK    2  A    between atoms: O_2  and  C_3
REMARK    3  A    between atoms: C_5  and  C_6
REMARK    4  A    between atoms: C_12  and  C_14
REMARK    5  A    between atoms: C_15  and  C_16
REMARK    6  A    between atoms: C_26  and  O_27
REMARK    7  A    between atoms: O_27  and  C_28
REMARK    8  A    between atoms: C_29  and  O_30
REMARK    9  A    between atoms: O_30  and  C_31
REMARK                            x       y       z     vdW  Elec       q    Type
REMARK                         _______ _______ _______ _____ _____    ______ ____
ROOT
ATOM      1  C   UNL     1       3.794   4.229  16.812  0.00  0.00    +0.000 C 
ATOM      2  C   UNL     1       3.370   3.256  17.641  0.00  0.00    +0.000 C 
ATOM      3  C   UNL     1       3.993   1.928  17.925  0.00  0.00    +0.000 C 
ATOM      4  C   UNL     1       4.293   1.832  19.407  0.00  0.00    +0.000 C 
ATOM      5  C   UNL     1       2.999   2.038  20.180  0.00  0.00    +0.000 C 
ATOM      6  N   UNL     1       2.334   3.298  19.851  0.00  0.00    +0.000 N 
ATOM      7  C   UNL     1       1.832   4.023  20.941  0.00  0.00    +0.000 C 
ATOM      8  O   UNL     1       1.934   3.623  22.104  0.00  0.00    +0.000 OA
ATOM      9  C   UNL     1       2.195   3.642  18.496  0.00  0.00    +0.000 C 
ATOM     10  O   UNL     1       1.233   4.223  18.007  0.00  0.00    +0.000 OA
ENDROOT
BRANCH   1  13
ATOM     11  C   UNL     1       6.278   4.087  13.983  0.00  0.00    +0.000 A 
ATOM     12  C   UNL     1       5.239   3.723  14.864  0.00  0.00    +0.000 A 
ATOM     13  C   UNL     1       5.075   4.361  16.093  0.00  0.00    +0.000 A 
ATOM     14  C   UNL     1       6.023   5.314  16.465  0.00  0.00    +0.000 A 
ATOM     15  C   UNL     1       7.101   5.657  15.632  0.00  0.00    +0.000 A 
ATOM     16  C   UNL     1       7.237   5.051  14.364  0.00  0.00    +0.000 A 
BRANCH  11  18
ATOM     17  C   UNL     1       5.179   3.275  12.031  0.00  0.00    +0.000 C 
ATOM     18  O   UNL     1       6.391   3.481  12.755  0.00  0.00    +0.000 OA
ENDBRANCH  11  18
BRANCH  15  19
ATOM     19  O   UNL     1       7.883   6.617  16.223  0.00  0.00    +0.000 OA
ATOM     20  C   UNL     1       7.511   7.152  17.481  0.00  0.00    +0.000 C 
ENDBRANCH  15  19
BRANCH  16  21
ATOM     21  O   UNL     1       8.322   5.433  13.619  0.00  0.00    +0.000 OA
ATOM     22  C   UNL     1       8.129   5.949  12.311  0.00  0.00    +0.000 C 
ENDBRANCH  16  21
ENDBRANCH   1  13
BRANCH   7  23
ATOM     23  C   UNL     1       1.174   5.336  20.686  0.00  0.00    +0.000 C 
ATOM     24  C   UNL     1       1.916   6.456  20.618  0.00  0.00    +0.000 C 
BRANCH  24  25
ATOM     25  C   UNL     1       1.340   7.804  20.521  0.00  0.00    +0.000 A 
ATOM     26  C   UNL     1       1.575   8.578  19.379  0.00  0.00    +0.000 A 
ATOM     27  C   UNL     1       1.112   9.894  19.307  0.00  0.00    +0.000 A 
ATOM     28  C   UNL     1       0.412  10.451  20.375  0.00  0.00    +0.000 A 
ATOM     29  C   UNL     1       0.176   9.686  21.515  0.00  0.00    +0.000 A 
ATOM     30 BR   UNL     1      -0.744  10.442  22.984  0.00  0.00    +0.000 Br
ATOM     31  C   UNL     1       0.641   8.375  21.595  0.00  0.00    +0.000 A 
ENDBRANCH  24  25
ENDBRANCH   7  23
TORSDOF 6
ENDMDL
MODEL 2
REMARK VINA RESULT:      -8.4      0.975      1.295
REMARK  Name = 
REMARK  9 active torsions:
REMARK  status: ('A' for Active; 'I' for Inactive)
REMARK    1  A    between atoms: C_1  and  O_2
REMARK    2  A    between atoms: O_2  and  C_3
REMARK    3  A    between atoms: C_5  and  C_6
REMARK    4  A    between atoms: C_12  and  C_14
REMARK    5  A    between atoms: C_15  and  C_16
REMARK    6  A    between atoms: C_26  and  O_27
REMARK    7  A    between atoms: O_27  and  C_28
REMARK    8  A    between atoms: C_29  and  O_30
REMARK    9  A    between atoms: O_30  and  C_31
REMARK                            x       y       z     vdW  Elec       q    Type
REMARK                         _______ _______ _______ _____ _____    ______ ____
ROOT
ATOM      1  C   UNL     1       3.713   4.228  16.766  0.00  0.00    +0.000 C 
ATOM      2  C   UNL     1       3.231   3.211  17.508  0.00  0.00    +0.000 C 
ATOM      3  C   UNL     1       3.799   1.844  17.709  0.00  0.00    +0.000 C 
ATOM      4  C   UNL     1       4.051   1.628  19.187  0.00  0.00    +0.000 C 
ATOM      5  C   UNL     1       2.743   1.823  19.937  0.00  0.00    +0.000 C 
ATOM      6  N   UNL     1       2.131   3.127  19.686  0.00  0.00    +0.000 N 
ATOM      7  C   UNL     1       1.622   3.787  20.813  0.00  0.00    +0.000 C 
ATOM      8  O   UNL     1       1.675   3.299  21.945  0.00  0.00    +0.000 OA
ATOM      9  C   UNL     1       2.045   3.576  18.357  0.00  0.00    +0.000 C 
ATOM     10  O   UNL     1       1.119   4.226  17.887  0.00  0.00    +0.000 OA
ENDROOT
BRANCH   1  13
ATOM     11  C   UNL     1       6.288   4.140  14.018  0.00  0.00    +0.000 A 
ATOM     12  C   UNL     1       5.216   3.762  14.853  0.00  0.00    +0.000 A 
ATOM     13  C   UNL     1       5.019   4.365  16.095  0.00  0.00    +0.000 A 
ATOM     14  C   UNL     1       5.964   5.295  16.526  0.00  0.00    +0.000 A 
ATOM     15  C   UNL     1       7.073   5.651  15.740  0.00  0.00    +0.000 A 
ATOM     16  C   UNL     1       7.245   5.081  14.460  0.00  0.00    +0.000 A 
BRANCH  11  18
ATOM     17  C   UNL     1       5.236   3.242  12.078  0.00  0.00    +0.000 C 
ATOM     18  O   UNL     1       6.436   3.570  12.776  0.00  0.00    +0.000 OA
ENDBRANCH  11  18
BRANCH  15  19
ATOM     19  O   UNL     1       7.845   6.583  16.386  0.00  0.00    +0.000 OA
ATOM     20  C   UNL     1       7.300   7.326  17.461  0.00  0.00    +0.000 C 
ENDBRANCH  15  19
BRANCH  16  21
ATOM     21  O   UNL     1       8.358   5.472  13.762  0.00  0.00    +0.000 OA
ATOM     22  C   UNL     1       8.235   5.861  12.403  0.00  0.00    +0.000 C 
ENDBRANCH  16  21
ENDBRANCH   1  13
BRANCH   7  23
ATOM     23  C   UNL     1       1.017   5.139  20.639  0.00  0.00    +0.000 C 
ATOM     24  C   UNL     1       1.781   6.238  20.779  0.00  0.00    +0.000 C 
BRANCH  24  25
ATOM     25  C   UNL     1       1.241   7.604  20.774  0.00  0.00    +0.000 A 
ATOM     26  C   UNL     1       0.274   7.972  21.716  0.00  0.00    +0.000 A 
ATOM     27  C   UNL     1      -0.315   9.238  21.670  0.00  0.00    +0.000 A 
ATOM     28  C   UNL     1       0.052  10.148  20.682  0.00  0.00    +0.000 A 
ATOM     29  C   UNL     1       1.014   9.787  19.740  0.00  0.00    +0.000 A 
ATOM     30 BR   UNL     1       1.497  11.001  18.374  0.00  0.00    +0.000 Br
ATOM     31  C   UNL     1       1.601   8.524  19.777  0.00  0.00    +0.000 A 
ENDBRANCH  24  25
ENDBRANCH   7  23
TORSDOF 6
ENDMDL
MODEL 3
REMARK VINA RESULT:      -8.0      4.170      8.707
REMARK  Name = 
REMARK  9 active torsions:
REMARK  status: ('A' for Active; 'I' for Inactive)
REMARK    1  A    between atoms: C_1  and  O_2
REMARK    2  A    between atoms: O_2  and  C_3
REMARK    3  A    between atoms: C_5  and  C_6
REMARK    4  A    between atoms: C_12  and  C_14
REMARK    5  A    between atoms: C_15  and  C_16
REMARK    6  A    between atoms: C_26  and  O_27
REMARK    7  A    between atoms: O_27  and  C_28
REMARK    8  A    between atoms: C_29  and  O_30
REMARK    9  A    between atoms: O_30  and  C_31
REMARK                            x       y       z     vdW  Elec       q    Type
REMARK                         _______ _______ _______ _____ _____    ______ ____
ROOT
ATOM      1  C   UNL     1       2.233   8.597  18.167  0.00  0.00    +0.000 C 
ATOM      2  C   UNL     1       2.461   7.687  19.135  0.00  0.00    +0.000 C 
ATOM      3  C   UNL     1       1.846   7.588  20.493  0.00  0.00    +0.000 C 
ATOM      4  C   UNL     1       1.162   6.243  20.625  0.00  0.00    +0.000 C 
ATOM      5  C   UNL     1       2.187   5.148  20.377  0.00  0.00    +0.000 C 
ATOM      6  N   UNL     1       2.858   5.279  19.084  0.00  0.00    +0.000 N 
ATOM      7  C   UNL     1       3.012   4.091  18.356  0.00  0.00    +0.000 C 
ATOM      8  O   UNL     1       2.618   3.001  18.778  0.00  0.00    +0.000 OA
ATOM      9  C   UNL     1       3.342   6.544  18.712  0.00  0.00    +0.000 C 
ATOM     10  O   UNL     1       4.372   6.752  18.082  0.00  0.00    +0.000 OA
ENDROOT
BRANCH   1  13
ATOM     11  C   UNL     1      -1.196  10.129  17.868  0.00  0.00    +0.000 A 
ATOM     12  C   UNL     1      -0.088   9.285  17.643  0.00  0.00    +0.000 A 
ATOM     13  C   UNL     1       1.189   9.635  18.079  0.00  0.00    +0.000 A 
ATOM     14  C   UNL     1       1.357  10.887  18.670  0.00  0.00    +0.000 A 
ATOM     15  C   UNL     1       0.283  11.773  18.856  0.00  0.00    +0.000 A 
ATOM     16  C   UNL     1      -1.021  11.398  18.465  0.00  0.00    +0.000 A 
BRANCH  11  18
ATOM     17  C   UNL     1      -2.821  10.032  16.129  0.00  0.00    +0.000 C 
ATOM     18  O   UNL     1      -2.454   9.743  17.476  0.00  0.00    +0.000 OA
ENDBRANCH  11  18
BRANCH  15  19
ATOM     19  O   UNL     1       0.709  12.930  19.459  0.00  0.00    +0.000 OA
ATOM     20  C   UNL     1       2.078  13.288  19.407  0.00  0.00    +0.000 C 
ENDBRANCH  15  19
BRANCH  16  21
ATOM     21  O   UNL     1      -2.010  12.323  18.670  0.00  0.00    +0.000 OA
ATOM     22  C   UNL     1      -2.675  12.375  19.923  0.00  0.00    +0.000 C 
ENDBRANCH  16  21
ENDBRANCH   1  13
BRANCH   7  23
ATOM     23  C   UNL     1       3.654   4.153  17.012  0.00  0.00    +0.000 C 
ATOM     24  C   UNL     1       4.965   3.881  16.881  0.00  0.00    +0.000 C 
BRANCH  24  25
ATOM     25  C   UNL     1       5.709   4.064  15.628  0.00  0.00    +0.000 A 
ATOM     26  C   UNL     1       6.818   4.916  15.596  0.00  0.00    +0.000 A 
ATOM     27  C   UNL     1       7.483   5.172  14.394  0.00  0.00    +0.000 A 
ATOM     28  C   UNL     1       7.045   4.581  13.211  0.00  0.00    +0.000 A 
ATOM     29  C   UNL     1       5.940   3.732  13.235  0.00  0.00    +0.000 A 
ATOM     30 BR   UNL     1       5.316   2.951  11.631  0.00  0.00    +0.000 Br
ATOM     31  C   UNL     1       5.270   3.478  14.430  0.00  0.00    +0.000 A 
ENDBRANCH  24  25
ENDBRANCH   7  23
TORSDOF 6
ENDMDL
MODEL 4
REMARK VINA RESULT:      -7.9      4.625      7.573
REMARK  Name = 
REMARK  9 active torsions:
REMARK  status: ('A' for Active; 'I' for Inactive)
REMARK    1  A    between atoms: C_1  and  O_2
REMARK    2  A    between atoms: O_2  and  C_3
REMARK    3  A    between atoms: C_5  and  C_6
REMARK    4  A    between atoms: C_12  and  C_14
REMARK    5  A    between atoms: C_15  and  C_16
REMARK    6  A    between atoms: C_26  and  O_27
REMARK    7  A    between atoms: O_27  and  C_28
REMARK    8  A    between atoms: C_29  and  O_30
REMARK    9  A    between atoms: O_30  and  C_31
REMARK                            x       y       z     vdW  Elec       q    Type
REMARK                         _______ _______ _______ _____ _____    ______ ____
ROOT
ATOM      1  C   UNL     1       1.136   9.087  19.293  0.00  0.00    +0.000 C 
ATOM      2  C   UNL     1       0.276   9.425  20.274  0.00  0.00    +0.000 C 
ATOM      3  C   UNL     1      -0.103   8.654  21.497  0.00  0.00    +0.000 C 
ATOM      4  C   UNL     1       0.229   9.482  22.721  0.00  0.00    +0.000 C 
ATOM      5  C   UNL     1      -0.509  10.809  22.626  0.00  0.00    +0.000 C 
ATOM      6  N   UNL     1      -0.212  11.538  21.394  0.00  0.00    +0.000 N 
ATOM      7  C   UNL     1       0.018  12.913  21.542  0.00  0.00    +0.000 C 
ATOM      8  O   UNL     1      -0.035  13.478  22.637  0.00  0.00    +0.000 OA
ATOM      9  C   UNL     1      -0.245  10.833  20.180  0.00  0.00    +0.000 C 
ATOM     10  O   UNL     1      -0.634  11.282  19.109  0.00  0.00    +0.000 OA
ENDROOT
BRANCH   1  13
ATOM     11  C   UNL     1       2.607   5.669  19.886  0.00  0.00    +0.000 A 
ATOM     12  C   UNL     1       1.964   6.903  20.120  0.00  0.00    +0.000 A 
ATOM     13  C   UNL     1       2.093   7.967  19.226  0.00  0.00    +0.000 A 
ATOM     14  C   UNL     1       2.947   7.804  18.136  0.00  0.00    +0.000 A 
ATOM     15  C   UNL     1       3.644   6.605  17.908  0.00  0.00    +0.000 A 
ATOM     16  C   UNL     1       3.473   5.509  18.782  0.00  0.00    +0.000 A 
BRANCH  11  18
ATOM     17  C   UNL     1       1.192   3.909  20.646  0.00  0.00    +0.000 C 
ATOM     18  O   UNL     1       2.425   4.618  20.752  0.00  0.00    +0.000 OA
ENDBRANCH  11  18
BRANCH  15  19
ATOM     19  O   UNL     1       4.410   6.699  16.774  0.00  0.00    +0.000 OA
ATOM     20  C   UNL     1       5.818   6.812  16.882  0.00  0.00    +0.000 C 
ENDBRANCH  15  19
BRANCH  16  21
ATOM     21  O   UNL     1       4.197   4.382  18.496  0.00  0.00    +0.000 OA
ATOM     22  C   UNL     1       3.648   3.392  17.641  0.00  0.00    +0.000 C 
ENDBRANCH  16  21
ENDBRANCH   1  13
BRANCH   7  23
ATOM     23  C   UNL     1       0.364  13.715  20.334  0.00  0.00    +0.000 C 
ATOM     24  C   UNL     1       1.635  14.107  20.130  0.00  0.00    +0.000 C 
BRANCH  24  25
ATOM     25  C   UNL     1       2.038  15.021  19.053  0.00  0.00    +0.000 A 
ATOM     26  C   UNL     1       3.238  14.801  18.369  0.00  0.00    +0.000 A 
ATOM     27  C   UNL     1       3.681  15.709  17.404  0.00  0.00    +0.000 A 
ATOM     28  C   UNL     1       2.932  16.847  17.114  0.00  0.00    +0.000 A 
ATOM     29  C   UNL     1       1.736  17.073  17.794  0.00  0.00    +0.000 A 
ATOM     30 BR   UNL     1       0.727  18.631  17.434  0.00  0.00    +0.000 Br
ATOM     31  C   UNL     1       1.292  16.174  18.761  0.00  0.00    +0.000 A 
ENDBRANCH  24  25
ENDBRANCH   7  23
TORSDOF 6
ENDMDL
MODEL 5
REMARK VINA RESULT:      -7.8      4.155      5.970
REMARK  Name = 
REMARK  9 active torsions:
REMARK  status: ('A' for Active; 'I' for Inactive)
REMARK    1  A    between atoms: C_1  and  O_2
REMARK    2  A    between atoms: O_2  and  C_3
REMARK    3  A    between atoms: C_5  and  C_6
REMARK    4  A    between atoms: C_12  and  C_14
REMARK    5  A    between atoms: C_15  and  C_16
REMARK    6  A    between atoms: C_26  and  O_27
REMARK    7  A    between atoms: O_27  and  C_28
REMARK    8  A    between atoms: C_29  and  O_30
REMARK    9  A    between atoms: O_30  and  C_31
REMARK                            x       y       z     vdW  Elec       q    Type
REMARK                         _______ _______ _______ _____ _____    ______ ____
ROOT
ATOM      1  C   UNL     1       2.550   8.116  17.952  0.00  0.00    +0.000 C 
ATOM      2  C   UNL     1       1.629   8.225  18.929  0.00  0.00    +0.000 C 
ATOM      3  C   UNL     1       1.292   7.254  20.014  0.00  0.00    +0.000 C 
ATOM      4  C   UNL     1       1.498   7.925  21.356  0.00  0.00    +0.000 C 
ATOM      5  C   UNL     1       0.633   9.175  21.414  0.00  0.00    +0.000 C 
ATOM      6  N   UNL     1       0.895  10.099  20.311  0.00  0.00    +0.000 N 
ATOM      7  C   UNL     1       0.980  11.454  20.660  0.00  0.00    +0.000 C 
ATOM      8  O   UNL     1       0.835  11.848  21.820  0.00  0.00    +0.000 OA
ATOM      9  C   UNL     1       0.972   9.575  19.009  0.00  0.00    +0.000 C 
ATOM     10  O   UNL     1       0.574  10.135  17.995  0.00  0.00    +0.000 OA
ENDROOT
BRANCH   1  13
ATOM     11  C   UNL     1       4.184   4.804  17.203  0.00  0.00    +0.000 A 
ATOM     12  C   UNL     1       3.281   5.761  17.714  0.00  0.00    +0.000 A 
ATOM     13  C   UNL     1       3.617   7.113  17.773  0.00  0.00    +0.000 A 
ATOM     14  C   UNL     1       4.906   7.483  17.391  0.00  0.00    +0.000 A 
ATOM     15  C   UNL     1       5.845   6.544  16.931  0.00  0.00    +0.000 A 
ATOM     16  C   UNL     1       5.489   5.183  16.820  0.00  0.00    +0.000 A 
BRANCH  11  18
ATOM     17  C   UNL     1       3.806   2.733  18.317  0.00  0.00    +0.000 C 
ATOM     18  O   UNL     1       3.814   3.484  17.106  0.00  0.00    +0.000 OA
ENDBRANCH  11  18
BRANCH  15  19
ATOM     19  O   UNL     1       7.031   7.160  16.618  0.00  0.00    +0.000 OA
ATOM     20  C   UNL     1       7.731   7.888  17.610  0.00  0.00    +0.000 C 
ENDBRANCH  15  19
BRANCH  16  21
ATOM     21  O   UNL     1       6.466   4.331  16.374  0.00  0.00    +0.000 OA
ATOM     22  C   UNL     1       6.552   4.022  14.992  0.00  0.00    +0.000 C 
ENDBRANCH  16  21
ENDBRANCH   1  13
BRANCH   7  23
ATOM     23  C   UNL     1       1.281  12.451  19.593  0.00  0.00    +0.000 C 
ATOM     24  C   UNL     1       2.171  13.433  19.826  0.00  0.00    +0.000 C 
BRANCH  24  25
ATOM     25  C   UNL     1       2.416  14.540  18.892  0.00  0.00    +0.000 A 
ATOM     26  C   UNL     1       3.592  14.560  18.134  0.00  0.00    +0.000 A 
ATOM     27  C   UNL     1       3.885  15.649  17.308  0.00  0.00    +0.000 A 
ATOM     28  C   UNL     1       3.009  16.729  17.233  0.00  0.00    +0.000 A 
ATOM     29  C   UNL     1       1.837  16.715  17.987  0.00  0.00    +0.000 A 
ATOM     30 BR   UNL     1       0.655  18.190  17.920  0.00  0.00    +0.000 Br
ATOM     31  C   UNL     1       1.542  15.635  18.817  0.00  0.00    +0.000 A 
ENDBRANCH  24  25
ENDBRANCH   7  23
TORSDOF 6
ENDMDL
MODEL 6
REMARK VINA RESULT:      -7.6      0.984      2.685
REMARK  Name = 
REMARK  9 active torsions:
REMARK  status: ('A' for Active; 'I' for Inactive)
REMARK    1  A    between atoms: C_1  and  O_2
REMARK    2  A    between atoms: O_2  and  C_3
REMARK    3  A    between atoms: C_5  and  C_6
REMARK    4  A    between atoms: C_12  and  C_14
REMARK    5  A    between atoms: C_15  and  C_16
REMARK    6  A    between atoms: C_26  and  O_27
REMARK    7  A    between atoms: O_27  and  C_28
REMARK    8  A    between atoms: C_29  and  O_30
REMARK    9  A    between atoms: O_30  and  C_31
REMARK                            x       y       z     vdW  Elec       q    Type
REMARK                         _______ _______ _______ _____ _____    ______ ____
ROOT
ATOM      1  C   UNL     1       3.477   4.642  16.804  0.00  0.00    +0.000 C 
ATOM      2  C   UNL     1       3.243   3.589  17.612  0.00  0.00    +0.000 C 
ATOM      3  C   UNL     1       4.009   2.312  17.734  0.00  0.00    +0.000 C 
ATOM      4  C   UNL     1       4.493   2.165  19.162  0.00  0.00    +0.000 C 
ATOM      5  C   UNL     1       3.290   2.205  20.091  0.00  0.00    +0.000 C 
ATOM      6  N   UNL     1       2.483   3.413  19.925  0.00  0.00    +0.000 N 
ATOM      7  C   UNL     1       2.055   4.027  21.111  0.00  0.00    +0.000 C 
ATOM      8  O   UNL     1       2.332   3.576  22.225  0.00  0.00    +0.000 OA
ATOM      9  C   UNL     1       2.151   3.816  18.620  0.00  0.00    +0.000 C 
ATOM     10  O   UNL     1       1.090   4.329  18.285  0.00  0.00    +0.000 OA
ENDROOT
BRANCH   1  13
ATOM     11  C   UNL     1       6.898   5.874  15.816  0.00  0.00    +0.000 A 
ATOM     12  C   UNL     1       5.617   5.824  16.406  0.00  0.00    +0.000 A 
ATOM     13  C   UNL     1       4.645   4.933  15.952  0.00  0.00    +0.000 A 
ATOM     14  C   UNL     1       4.947   4.150  14.839  0.00  0.00    +0.000 A 
ATOM     15  C   UNL     1       6.195   4.218  14.196  0.00  0.00    +0.000 A 
ATOM     16  C   UNL     1       7.198   5.080  14.687  0.00  0.00    +0.000 A 
BRANCH  11  18
ATOM     17  C   UNL     1       7.527   7.435  17.502  0.00  0.00    +0.000 C 
ATOM     18  O   UNL     1       7.858   6.723  16.311  0.00  0.00    +0.000 OA
ENDBRANCH  11  18
BRANCH  15  19
ATOM     19  O   UNL     1       6.240   3.348  13.135  0.00  0.00    +0.000 OA
ATOM     20  C   UNL     1       5.247   3.414  12.128  0.00  0.00    +0.000 C 
ENDBRANCH  15  19
BRANCH  16  21
ATOM     21  O   UNL     1       8.382   5.095  13.996  0.00  0.00    +0.000 OA
ATOM     22  C   UNL     1       8.480   5.831  12.787  0.00  0.00    +0.000 C 
ENDBRANCH  16  21
ENDBRANCH   1  13
BRANCH   7  23
ATOM     23  C   UNL     1       1.259   5.284  21.019  0.00  0.00    +0.000 C 
ATOM     24  C   UNL     1       1.885   6.462  20.839  0.00  0.00    +0.000 C 
BRANCH  24  25
ATOM     25  C   UNL     1       1.197   7.759  20.888  0.00  0.00    +0.000 A 
ATOM     26  C   UNL     1       0.167   7.964  21.813  0.00  0.00    +0.000 A 
ATOM     27  C   UNL     1      -0.558   9.159  21.814  0.00  0.00    +0.000 A 
ATOM     28  C   UNL     1      -0.263  10.159  20.890  0.00  0.00    +0.000 A 
ATOM     29  C   UNL     1       0.760   9.960  19.965  0.00  0.00    +0.000 A 
ATOM     30 BR   UNL     1       1.147  11.296  18.685  0.00  0.00    +0.000 Br
ATOM     31  C   UNL     1       1.483   8.768  19.956  0.00  0.00    +0.000 A 
ENDBRANCH  24  25
ENDBRANCH   7  23
TORSDOF 6
ENDMDL
MODEL 7
REMARK VINA RESULT:      -7.6      0.418      2.389
REMARK  Name = 
REMARK  9 active torsions:
REMARK  status: ('A' for Active; 'I' for Inactive)
REMARK    1  A    between atoms: C_1  and  O_2
REMARK    2  A    between atoms: O_2  and  C_3
REMARK    3  A    between atoms: C_5  and  C_6
REMARK    4  A    between atoms: C_12  and  C_14
REMARK    5  A    between atoms: C_15  and  C_16
REMARK    6  A    between atoms: C_26  and  O_27
REMARK    7  A    between atoms: O_27  and  C_28
REMARK    8  A    between atoms: C_29  and  O_30
REMARK    9  A    between atoms: O_30  and  C_31
REMARK                            x       y       z     vdW  Elec       q    Type
REMARK                         _______ _______ _______ _____ _____    ______ ____
ROOT
ATOM      1  C   UNL     1       3.515   4.691  16.770  0.00  0.00    +0.000 C 
ATOM      2  C   UNL     1       3.280   3.681  17.632  0.00  0.00    +0.000 C 
ATOM      3  C   UNL     1       4.050   2.416  17.827  0.00  0.00    +0.000 C 
ATOM      4  C   UNL     1       4.528   2.347  19.263  0.00  0.00    +0.000 C 
ATOM      5  C   UNL     1       3.319   2.432  20.182  0.00  0.00    +0.000 C 
ATOM      6  N   UNL     1       2.508   3.626  19.947  0.00  0.00    +0.000 N 
ATOM      7  C   UNL     1       2.072   4.301  21.096  0.00  0.00    +0.000 C 
ATOM      8  O   UNL     1       2.344   3.911  22.235  0.00  0.00    +0.000 OA
ATOM      9  C   UNL     1       2.182   3.958  18.621  0.00  0.00    +0.000 C 
ATOM     10  O   UNL     1       1.121   4.448  18.253  0.00  0.00    +0.000 OA
ENDROOT
BRANCH   1  13
ATOM     11  C   UNL     1       6.962   5.820  15.753  0.00  0.00    +0.000 A 
ATOM     12  C   UNL     1       5.684   5.811  16.349  0.00  0.00    +0.000 A 
ATOM     13  C   UNL     1       4.686   4.940  15.910  0.00  0.00    +0.000 A 
ATOM     14  C   UNL     1       4.963   4.135  14.806  0.00  0.00    +0.000 A 
ATOM     15  C   UNL     1       6.209   4.163  14.156  0.00  0.00    +0.000 A 
ATOM     16  C   UNL     1       7.237   5.004  14.633  0.00  0.00    +0.000 A 
BRANCH  11  18
ATOM     17  C   UNL     1       7.646   7.372  17.425  0.00  0.00    +0.000 C 
ATOM     18  O   UNL     1       7.946   6.649  16.234  0.00  0.00    +0.000 OA
ENDBRANCH  11  18
BRANCH  15  19
ATOM     19  O   UNL     1       6.226   3.279  13.107  0.00  0.00    +0.000 OA
ATOM     20  C   UNL     1       5.237   3.365  12.096  0.00  0.00    +0.000 C 
ENDBRANCH  15  19
BRANCH  16  21
ATOM     21  O   UNL     1       8.417   4.980  13.937  0.00  0.00    +0.000 OA
ATOM     22  C   UNL     1       8.581   5.817  12.803  0.00  0.00    +0.000 C 
ENDBRANCH  16  21
ENDBRANCH   1  13
BRANCH   7  23
ATOM     23  C   UNL     1       1.272   5.548  20.934  0.00  0.00    +0.000 C 
ATOM     24  C   UNL     1       1.884   6.697  20.592  0.00  0.00    +0.000 C 
BRANCH  24  25
ATOM     25  C   UNL     1       1.201   7.998  20.557  0.00  0.00    +0.000 A 
ATOM     26  C   UNL     1       1.313   8.809  19.423  0.00  0.00    +0.000 A 
ATOM     27  C   UNL     1       0.746  10.087  19.407  0.00  0.00    +0.000 A 
ATOM     28  C   UNL     1       0.066  10.567  20.523  0.00  0.00    +0.000 A 
ATOM     29  C   UNL     1      -0.048   9.764  21.656  0.00  0.00    +0.000 A 
ATOM     30 BR   UNL     1      -0.941  10.417  23.189  0.00  0.00    +0.000 Br
ATOM     31  C   UNL     1       0.520   8.492  21.680  0.00  0.00    +0.000 A 
ENDBRANCH  24  25
ENDBRANCH   7  23
TORSDOF 6
ENDMDL
MODEL 8
REMARK VINA RESULT:      -7.4      4.755      7.859
REMARK  Name = 
REMARK  9 active torsions:
REMARK  status: ('A' for Active; 'I' for Inactive)
REMARK    1  A    between atoms: C_1  and  O_2
REMARK    2  A    between atoms: O_2  and  C_3
REMARK    3  A    between atoms: C_5  and  C_6
REMARK    4  A    between atoms: C_12  and  C_14
REMARK    5  A    between atoms: C_15  and  C_16
REMARK    6  A    between atoms: C_26  and  O_27
REMARK    7  A    between atoms: O_27  and  C_28
REMARK    8  A    between atoms: C_29  and  O_30
REMARK    9  A    between atoms: O_30  and  C_31
REMARK                            x       y       z     vdW  Elec       q    Type
REMARK                         _______ _______ _______ _____ _____    ______ ____
ROOT
ATOM      1  C   UNL     1       0.930   9.360  19.563  0.00  0.00    +0.000 C 
ATOM      2  C   UNL     1      -0.003   9.589  20.508  0.00  0.00    +0.000 C 
ATOM      3  C   UNL     1      -0.487   8.678  21.589  0.00  0.00    +0.000 C 
ATOM      4  C   UNL     1      -0.248   9.338  22.931  0.00  0.00    +0.000 C 
ATOM      5  C   UNL     1      -0.961  10.681  22.948  0.00  0.00    +0.000 C 
ATOM      6  N   UNL     1      -0.557  11.554  21.846  0.00  0.00    +0.000 N 
ATOM      7  C   UNL     1      -0.325  12.894  22.186  0.00  0.00    +0.000 C 
ATOM      8  O   UNL     1      -0.461  13.318  23.336  0.00  0.00    +0.000 OA
ATOM      9  C   UNL     1      -0.500  11.008  20.553  0.00  0.00    +0.000 C 
ATOM     10  O   UNL     1      -0.796  11.597  19.521  0.00  0.00    +0.000 OA
ENDROOT
BRANCH   1  13
ATOM     11  C   UNL     1       2.395   5.916  19.996  0.00  0.00    +0.000 A 
ATOM     12  C   UNL     1       1.768   7.144  20.290  0.00  0.00    +0.000 A 
ATOM     13  C   UNL     1       1.877   8.237  19.430  0.00  0.00    +0.000 A 
ATOM     14  C   UNL     1       2.697   8.106  18.310  0.00  0.00    +0.000 A 
ATOM     15  C   UNL     1       3.380   6.912  18.021  0.00  0.00    +0.000 A 
ATOM     16  C   UNL     1       3.227   5.788  18.861  0.00  0.00    +0.000 A 
BRANCH  11  18
ATOM     17  C   UNL     1       1.089   4.016  20.598  0.00  0.00    +0.000 C 
ATOM     18  O   UNL     1       2.233   4.836  20.830  0.00  0.00    +0.000 OA
ENDBRANCH  11  18
BRANCH  15  19
ATOM     19  O   UNL     1       4.112   7.041  16.868  0.00  0.00    +0.000 OA
ATOM     20  C   UNL     1       5.526   6.974  16.920  0.00  0.00    +0.000 C 
ENDBRANCH  15  19
BRANCH  16  21
ATOM     21  O   UNL     1       3.935   4.667  18.515  0.00  0.00    +0.000 OA
ATOM     22  C   UNL     1       3.357   3.713  17.639  0.00  0.00    +0.000 C 
ENDBRANCH  16  21
ENDBRANCH   1  13
BRANCH   7  23
ATOM     23  C   UNL     1       0.126  13.835  21.121  0.00  0.00    +0.000 C 
ATOM     24  C   UNL     1      -0.447  15.047  21.010  0.00  0.00    +0.000 C 
BRANCH  24  25
ATOM     25  C   UNL     1      -0.173  15.974  19.904  0.00  0.00    +0.000 A 
ATOM     26  C   UNL     1      -1.206  16.766  19.390  0.00  0.00    +0.000 A 
ATOM     27  C   UNL     1      -0.985  17.587  18.281  0.00  0.00    +0.000 A 
ATOM     28  C   UNL     1       0.267  17.623  17.673  0.00  0.00    +0.000 A 
ATOM     29  C   UNL     1       1.300  16.836  18.179  0.00  0.00    +0.000 A 
ATOM     30 BR   UNL     1       2.995  16.852  17.343  0.00  0.00    +0.000 Br
ATOM     31  C   UNL     1       1.084  16.011  19.282  0.00  0.00    +0.000 A 
ENDBRANCH  24  25
ENDBRANCH   7  23
TORSDOF 6
ENDMDL
MODEL 9
REMARK VINA RESULT:      -7.4      4.593      7.648
REMARK  Name = 
REMARK  9 active torsions:
REMARK  status: ('A' for Active; 'I' for Inactive)
REMARK    1  A    between atoms: C_1  and  O_2
REMARK    2  A    between atoms: O_2  and  C_3
REMARK    3  A    between atoms: C_5  and  C_6
REMARK    4  A    between atoms: C_12  and  C_14
REMARK    5  A    between atoms: C_15  and  C_16
REMARK    6  A    between atoms: C_26  and  O_27
REMARK    7  A    between atoms: O_27  and  C_28
REMARK    8  A    between atoms: C_29  and  O_30
REMARK    9  A    between atoms: O_30  and  C_31
REMARK                            x       y       z     vdW  Elec       q    Type
REMARK                         _______ _______ _______ _____ _____    ______ ____
ROOT
ATOM      1  C   UNL     1       1.081   9.174  19.524  0.00  0.00    +0.000 C 
ATOM      2  C   UNL     1       0.134   9.491  20.430  0.00  0.00    +0.000 C 
ATOM      3  C   UNL     1      -0.433   8.651  21.527  0.00  0.00    +0.000 C 
ATOM      4  C   UNL     1      -0.196   9.347  22.852  0.00  0.00    +0.000 C 
ATOM      5  C   UNL     1      -0.831  10.727  22.797  0.00  0.00    +0.000 C 
ATOM      6  N   UNL     1      -0.345  11.533  21.677  0.00  0.00    +0.000 N 
ATOM      7  C   UNL     1      -0.046  12.871  21.975  0.00  0.00    +0.000 C 
ATOM      8  O   UNL     1      -0.191  13.344  23.105  0.00  0.00    +0.000 OA
ATOM      9  C   UNL     1      -0.280  10.936  20.407  0.00  0.00    +0.000 C 
ATOM     10  O   UNL     1      -0.511  11.501  19.345  0.00  0.00    +0.000 OA
ENDROOT
BRANCH   1  13
ATOM     11  C   UNL     1       2.341   5.677  20.143  0.00  0.00    +0.000 A 
ATOM     12  C   UNL     1       1.778   6.951  20.368  0.00  0.00    +0.000 A 
ATOM     13  C   UNL     1       1.965   7.995  19.462  0.00  0.00    +0.000 A 
ATOM     14  C   UNL     1       2.797   7.767  18.366  0.00  0.00    +0.000 A 
ATOM     15  C   UNL     1       3.416   6.524  18.146  0.00  0.00    +0.000 A 
ATOM     16  C   UNL     1       3.184   5.451  19.033  0.00  0.00    +0.000 A 
BRANCH  11  18
ATOM     17  C   UNL     1       1.081   3.722  20.659  0.00  0.00    +0.000 C 
ATOM     18  O   UNL     1       2.102   4.649  21.022  0.00  0.00    +0.000 OA
ENDBRANCH  11  18
BRANCH  15  19
ATOM     19  O   UNL     1       4.175   6.558  17.004  0.00  0.00    +0.000 OA
ATOM     20  C   UNL     1       5.539   6.936  17.075  0.00  0.00    +0.000 C 
ENDBRANCH  15  19
BRANCH  16  21
ATOM     21  O   UNL     1       3.834   4.278  18.754  0.00  0.00    +0.000 OA
ATOM     22  C   UNL     1       5.147   4.066  19.249  0.00  0.00    +0.000 C 
ENDBRANCH  16  21
ENDBRANCH   1  13
BRANCH   7  23
ATOM     23  C   UNL     1       0.490  13.743  20.892  0.00  0.00    +0.000 C 
ATOM     24  C   UNL     1       1.819  13.875  20.733  0.00  0.00    +0.000 C 
BRANCH  24  25
ATOM     25  C   UNL     1       2.432  14.825  19.795  0.00  0.00    +0.000 A 
ATOM     26  C   UNL     1       1.625  15.728  19.095  0.00  0.00    +0.000 A 
ATOM     27  C   UNL     1       2.179  16.577  18.133  0.00  0.00    +0.000 A 
ATOM     28  C   UNL     1       3.543  16.530  17.858  0.00  0.00    +0.000 A 
ATOM     29  C   UNL     1       4.353  15.631  18.551  0.00  0.00    +0.000 A 
ATOM     30 BR   UNL     1       6.201  15.535  18.164  0.00  0.00    +0.000 Br
ATOM     31  C   UNL     1       3.805  14.779  19.507  0.00  0.00    +0.000 A 
ENDBRANCH  24  25
ENDBRANCH   7  23
TORSDOF 6
ENDMDL
