MODEL 1
REMARK VINA RESULT:      -7.8      0.000      0.000
REMARK  Name = 
REMARK  9 active torsions:
REMARK  status: ('A' for Active; 'I' for Inactive)
REMARK    1  A    between atoms: C_1  and  C_2
REMARK    2  A    between atoms: C_2  and  C_4
REMARK    3  A    between atoms: C_8  and  N_9
REMARK    4  A    between atoms: N_11  and  C_12
REMARK    5  A    between atoms: C_15  and  C_16
REMARK    6  A    between atoms: C_22  and  C_23
REMARK    7  A    between atoms: C_22  and  C_24
REMARK    8  A    between atoms: C_25  and  O_26
REMARK    9  A    between atoms: N_27  and  C_28
REMARK                            x       y       z     vdW  Elec       q    Type
REMARK                         _______ _______ _______ _____ _____    ______ ____
ROOT
ATOM      1  N   UNL     1       6.388   6.000  15.876  0.00  0.00    +0.000 N 
ATOM      2  C   UNL     1       5.196   5.304  15.940  0.00  0.00    +0.000 C 
ATOM      3  N   UNL     1       4.462   5.393  16.994  0.00  0.00    +0.000 NA
ATOM      4  N   UNL     1       4.885   4.633  14.783  0.00  0.00    +0.000 N 
ATOM      5  H   UNL     1       6.486   6.576  15.045  0.00  0.00    +0.000 HD
ATOM      6  H   UNL     1       4.117   3.980  14.875  0.00  0.00    +0.000 HD
ENDROOT
BRANCH   3   7
ATOM      7  C   UNL     1       3.096   4.907  17.175  0.00  0.00    +0.000 C 
ATOM      8  C   UNL     1       2.404   5.773  18.215  0.00  0.00    +0.000 A 
ATOM      9  C   UNL     1       2.086   7.104  17.906  0.00  0.00    +0.000 A 
ATOM     10  C   UNL     1       1.842   8.030  18.925  0.00  0.00    +0.000 A 
ATOM     11  C   UNL     1       1.831   7.612  20.257  0.00  0.00    +0.000 A 
ATOM     12  C   UNL     1       1.993   6.260  20.559  0.00  0.00    +0.000 A 
ATOM     13  C   UNL     1       2.277   5.348  19.543  0.00  0.00    +0.000 A 
ATOM     14  O   UNL     1       2.468   4.051  19.938  0.00  0.00    +0.000 OA
ATOM     15  C   UNL     1       3.502   3.370  19.199  0.00  0.00    +0.000 C 
ATOM     16  C   UNL     1       3.472   1.902  19.660  0.00  0.00    +0.000 C 
ATOM     17  C   UNL     1       4.862   3.953  19.629  0.00  0.00    +0.000 C 
ATOM     18  C   UNL     1       3.204   3.449  17.677  0.00  0.00    +0.000 C 
BRANCH  10  19
ATOM     19  C   UNL     1       1.698   9.413  18.596  0.00  0.00    +0.000 C 
ATOM     20  N   UNL     1       1.574  10.548  18.380  0.00  0.00    +0.000 NA
ENDBRANCH  10  19
BRANCH  18  21
ATOM     21  O   UNL     1       1.981   2.757  17.351  0.00  0.00    +0.000 OA
ATOM     22  H   UNL     1       1.335   3.439  17.087  0.00  0.00    +0.000 HD
ENDBRANCH  18  21
ENDBRANCH   3   7
BRANCH   1  27
ATOM     23  C   UNL     1       8.153   8.340  18.201  0.00  0.00    +0.000 A 
ATOM     24  C   UNL     1       8.551   7.443  19.201  0.00  0.00    +0.000 A 
ATOM     25  C   UNL     1       8.247   6.089  19.095  0.00  0.00    +0.000 A 
ATOM     26  C   UNL     1       7.545   5.617  17.982  0.00  0.00    +0.000 A 
ATOM     27  C   UNL     1       7.123   6.497  16.976  0.00  0.00    +0.000 A 
ATOM     28  C   UNL     1       7.416   7.862  17.112  0.00  0.00    +0.000 A 
BRANCH  23  30
ATOM     29  C   UNL     1       9.437  10.192  19.483  0.00  0.00    +0.000 C 
ATOM     30  C   UNL     1       8.561   9.766  18.330  0.00  0.00    +0.000 C 
ATOM     31  O   UNL     1       8.187  10.589  17.493  0.00  0.00    +0.000 OA
ENDBRANCH  23  30
ENDBRANCH   1  27
BRANCH   4  32
ATOM     32  C   UNL     1       5.967   4.131  13.963  0.00  0.00    +0.000 C 
ATOM     33  N   UNL     1       6.821   3.751  13.290  0.00  0.00    +0.000 NA
ENDBRANCH   4  32
TORSDOF 6
ENDMDL
MODEL 2
REMARK VINA RESULT:      -7.0      6.795     11.165
REMARK  Name = 
REMARK  9 active torsions:
REMARK  status: ('A' for Active; 'I' for Inactive)
REMARK    1  A    between atoms: C_1  and  C_2
REMARK    2  A    between atoms: C_2  and  C_4
REMARK    3  A    between atoms: C_8  and  N_9
REMARK    4  A    between atoms: N_11  and  C_12
REMARK    5  A    between atoms: C_15  and  C_16
REMARK    6  A    between atoms: C_22  and  C_23
REMARK    7  A    between atoms: C_22  and  C_24
REMARK    8  A    between atoms: C_25  and  O_26
REMARK    9  A    between atoms: N_27  and  C_28
REMARK                            x       y       z     vdW  Elec       q    Type
REMARK                         _______ _______ _______ _____ _____    ______ ____
ROOT
ATOM      1  N   UNL     1       6.255  15.059  20.616  0.00  0.00    +0.000 N 
ATOM      2  C   UNL     1       6.864  15.255  19.391  0.00  0.00    +0.000 C 
ATOM      3  N   UNL     1       8.090  14.900  19.225  0.00  0.00    +0.000 NA
ATOM      4  N   UNL     1       6.022  15.756  18.429  0.00  0.00    +0.000 N 
ATOM      5  H   UNL     1       5.371  14.560  20.563  0.00  0.00    +0.000 HD
ATOM      6  H   UNL     1       6.491  16.073  17.590  0.00  0.00    +0.000 HD
ENDROOT
BRANCH   3   7
ATOM      7  C   UNL     1       8.840  14.836  17.972  0.00  0.00    +0.000 C 
ATOM      8  C   UNL     1       9.634  13.541  17.945  0.00  0.00    +0.000 A 
ATOM      9  C   UNL     1       8.958  12.318  17.816  0.00  0.00    +0.000 A 
ATOM     10  C   UNL     1       9.577  11.122  18.193  0.00  0.00    +0.000 A 
ATOM     11  C   UNL     1      10.905  11.131  18.622  0.00  0.00    +0.000 A 
ATOM     12  C   UNL     1      11.629  12.322  18.604  0.00  0.00    +0.000 A 
ATOM     13  C   UNL     1      10.997  13.519  18.266  0.00  0.00    +0.000 A 
ATOM     14  O   UNL     1      11.773  14.645  18.322  0.00  0.00    +0.000 OA
ATOM     15  C   UNL     1      11.072  15.805  18.813  0.00  0.00    +0.000 C 
ATOM     16  C   UNL     1      12.037  16.994  18.662  0.00  0.00    +0.000 C 
ATOM     17  C   UNL     1      10.822  15.612  20.322  0.00  0.00    +0.000 C 
ATOM     18  C   UNL     1       9.796  16.051  17.962  0.00  0.00    +0.000 C 
BRANCH  10  19
ATOM     19  C   UNL     1       8.812   9.916  18.224  0.00  0.00    +0.000 C 
ATOM     20  N   UNL     1       8.224   8.913  18.216  0.00  0.00    +0.000 NA
ENDBRANCH  10  19
BRANCH  18  21
ATOM     21  O   UNL     1      10.136  16.359  16.595  0.00  0.00    +0.000 OA
ATOM     22  H   UNL     1      11.097  16.214  16.505  0.00  0.00    +0.000 HD
ENDBRANCH  18  21
ENDBRANCH   3   7
BRANCH   1  27
ATOM     23  C   UNL     1       7.687  13.450  23.674  0.00  0.00    +0.000 A 
ATOM     24  C   UNL     1       8.263  14.566  24.295  0.00  0.00    +0.000 A 
ATOM     25  C   UNL     1       8.165  15.825  23.711  0.00  0.00    +0.000 A 
ATOM     26  C   UNL     1       7.484  15.982  22.502  0.00  0.00    +0.000 A 
ATOM     27  C   UNL     1       6.912  14.880  21.854  0.00  0.00    +0.000 A 
ATOM     28  C   UNL     1       7.042  13.613  22.443  0.00  0.00    +0.000 A 
BRANCH  23  30
ATOM     29  C   UNL     1       7.529  12.066  25.861  0.00  0.00    +0.000 C 
ATOM     30  C   UNL     1       7.763  12.136  24.372  0.00  0.00    +0.000 C 
ATOM     31  O   UNL     1       8.009  11.114  23.730  0.00  0.00    +0.000 OA
ENDBRANCH  23  30
ENDBRANCH   1  27
BRANCH   4  32
ATOM     32  C   UNL     1       4.941  16.626  18.841  0.00  0.00    +0.000 C 
ATOM     33  N   UNL     1       4.099  17.339  19.171  0.00  0.00    +0.000 NA
ENDBRANCH   4  32
TORSDOF 6
ENDMDL
MODEL 3
REMARK VINA RESULT:      -6.6      6.267     10.642
REMARK  Name = 
REMARK  9 active torsions:
REMARK  status: ('A' for Active; 'I' for Inactive)
REMARK    1  A    between atoms: C_1  and  C_2
REMARK    2  A    between atoms: C_2  and  C_4
REMARK    3  A    between atoms: C_8  and  N_9
REMARK    4  A    between atoms: N_11  and  C_12
REMARK    5  A    between atoms: C_15  and  C_16
REMARK    6  A    between atoms: C_22  and  C_23
REMARK    7  A    between atoms: C_22  and  C_24
REMARK    8  A    between atoms: C_25  and  O_26
REMARK    9  A    between atoms: N_27  and  C_28
REMARK                            x       y       z     vdW  Elec       q    Type
REMARK                         _______ _______ _______ _____ _____    ______ ____
ROOT
ATOM      1  N   UNL     1      -0.913   9.819  18.704  0.00  0.00    +0.000 N 
ATOM      2  C   UNL     1       0.005  10.467  19.508  0.00  0.00    +0.000 C 
ATOM      3  N   UNL     1      -0.315  11.578  20.074  0.00  0.00    +0.000 NA
ATOM      4  N   UNL     1       1.178   9.774  19.677  0.00  0.00    +0.000 N 
ATOM      5  H   UNL     1      -1.060   8.844  18.948  0.00  0.00    +0.000 HD
ATOM      6  H   UNL     1       1.921  10.311  20.107  0.00  0.00    +0.000 HD
ENDROOT
BRANCH   3   7
ATOM      7  C   UNL     1       0.427  12.302  21.104  0.00  0.00    +0.000 C 
ATOM      8  C   UNL     1      -0.550  13.153  21.900  0.00  0.00    +0.000 A 
ATOM      9  C   UNL     1      -1.478  12.530  22.748  0.00  0.00    +0.000 A 
ATOM     10  C   UNL     1      -2.627  13.209  23.163  0.00  0.00    +0.000 A 
ATOM     11  C   UNL     1      -2.814  14.545  22.803  0.00  0.00    +0.000 A 
ATOM     12  C   UNL     1      -1.820  15.215  22.091  0.00  0.00    +0.000 A 
ATOM     13  C   UNL     1      -0.695  14.522  21.644  0.00  0.00    +0.000 A 
ATOM     14  O   UNL     1       0.205  15.248  20.912  0.00  0.00    +0.000 OA
ATOM     15  C   UNL     1       0.798  14.506  19.827  0.00  0.00    +0.000 C 
ATOM     16  C   UNL     1       1.883  15.414  19.220  0.00  0.00    +0.000 C 
ATOM     17  C   UNL     1      -0.278  14.299  18.743  0.00  0.00    +0.000 C 
ATOM     18  C   UNL     1       1.446  13.203  20.369  0.00  0.00    +0.000 C 
BRANCH  10  19
ATOM     19  C   UNL     1      -3.643  12.499  23.875  0.00  0.00    +0.000 C 
ATOM     20  N   UNL     1      -4.503  11.959  24.438  0.00  0.00    +0.000 NA
ENDBRANCH  10  19
BRANCH  18  21
ATOM     21  O   UNL     1       2.532  13.499  21.269  0.00  0.00    +0.000 OA
ATOM     22  H   UNL     1       2.906  14.355  20.985  0.00  0.00    +0.000 HD
ENDBRANCH  18  21
ENDBRANCH   3   7
BRANCH   1  27
ATOM     23  C   UNL     1      -4.103  11.707  18.201  0.00  0.00    +0.000 A 
ATOM     24  C   UNL     1      -4.244  11.590  16.812  0.00  0.00    +0.000 A 
ATOM     25  C   UNL     1      -3.304  10.887  16.065  0.00  0.00    +0.000 A 
ATOM     26  C   UNL     1      -2.213  10.289  16.701  0.00  0.00    +0.000 A 
ATOM     27  C   UNL     1      -2.041  10.406  18.087  0.00  0.00    +0.000 A 
ATOM     28  C   UNL     1      -2.985  11.139  18.822  0.00  0.00    +0.000 A 
BRANCH  23  30
ATOM     29  C   UNL     1      -5.078  12.511  20.465  0.00  0.00    +0.000 C 
ATOM     30  C   UNL     1      -5.171  12.413  18.961  0.00  0.00    +0.000 C 
ATOM     31  O   UNL     1      -6.121  12.917  18.360  0.00  0.00    +0.000 OA
ENDBRANCH  23  30
ENDBRANCH   1  27
BRANCH   4  32
ATOM     32  C   UNL     1       1.640   8.922  18.602  0.00  0.00    +0.000 C 
ATOM     33  N   UNL     1       2.028   8.235  17.763  0.00  0.00    +0.000 NA
ENDBRANCH   4  32
TORSDOF 6
ENDMDL
MODEL 4
REMARK VINA RESULT:      -6.6      2.104      7.136
REMARK  Name = 
REMARK  9 active torsions:
REMARK  status: ('A' for Active; 'I' for Inactive)
REMARK    1  A    between atoms: C_1  and  C_2
REMARK    2  A    between atoms: C_2  and  C_4
REMARK    3  A    between atoms: C_8  and  N_9
REMARK    4  A    between atoms: N_11  and  C_12
REMARK    5  A    between atoms: C_15  and  C_16
REMARK    6  A    between atoms: C_22  and  C_23
REMARK    7  A    between atoms: C_22  and  C_24
REMARK    8  A    between atoms: C_25  and  O_26
REMARK    9  A    between atoms: N_27  and  C_28
REMARK                            x       y       z     vdW  Elec       q    Type
REMARK                         _______ _______ _______ _____ _____    ______ ____
ROOT
ATOM      1  N   UNL     1       1.967   6.075  18.016  0.00  0.00    +0.000 N 
ATOM      2  C   UNL     1       3.051   6.834  17.618  0.00  0.00    +0.000 C 
ATOM      3  N   UNL     1       4.115   6.250  17.189  0.00  0.00    +0.000 NA
ATOM      4  N   UNL     1       2.821   8.187  17.655  0.00  0.00    +0.000 N 
ATOM      5  H   UNL     1       1.092   6.341  17.575  0.00  0.00    +0.000 HD
ATOM      6  H   UNL     1       3.652   8.754  17.543  0.00  0.00    +0.000 HD
ENDROOT
BRANCH   3   7
ATOM      7  C   UNL     1       5.272   6.865  16.542  0.00  0.00    +0.000 C 
ATOM      8  C   UNL     1       5.894   5.854  15.593  0.00  0.00    +0.000 A 
ATOM      9  C   UNL     1       5.207   5.487  14.427  0.00  0.00    +0.000 A 
ATOM     10  C   UNL     1       5.524   4.299  13.761  0.00  0.00    +0.000 A 
ATOM     11  C   UNL     1       6.588   3.513  14.208  0.00  0.00    +0.000 A 
ATOM     12  C   UNL     1       7.372   3.953  15.273  0.00  0.00    +0.000 A 
ATOM     13  C   UNL     1       7.027   5.117  15.960  0.00  0.00    +0.000 A 
ATOM     14  O   UNL     1       7.826   5.446  17.022  0.00  0.00    +0.000 OA
ATOM     15  C   UNL     1       7.102   6.005  18.136  0.00  0.00    +0.000 C 
ATOM     16  C   UNL     1       8.158   6.456  19.161  0.00  0.00    +0.000 C 
ATOM     17  C   UNL     1       6.285   4.875  18.793  0.00  0.00    +0.000 C 
ATOM     18  C   UNL     1       6.270   7.230  17.666  0.00  0.00    +0.000 C 
BRANCH  10  19
ATOM     19  C   UNL     1       4.696   3.856  12.684  0.00  0.00    +0.000 C 
ATOM     20  N   UNL     1       4.053   3.453  11.804  0.00  0.00    +0.000 NA
ENDBRANCH  10  19
BRANCH  18  21
ATOM     21  O   UNL     1       7.127   8.289  17.196  0.00  0.00    +0.000 OA
ATOM     22  H   UNL     1       7.144   8.968  17.897  0.00  0.00    +0.000 HD
ENDBRANCH  18  21
ENDBRANCH   3   7
BRANCH   1  27
ATOM     23  C   UNL     1       2.086   2.975  20.108  0.00  0.00    +0.000 A 
ATOM     24  C   UNL     1       2.015   1.998  19.107  0.00  0.00    +0.000 A 
ATOM     25  C   UNL     1       1.941   2.365  17.767  0.00  0.00    +0.000 A 
ATOM     26  C   UNL     1       1.943   3.717  17.413  0.00  0.00    +0.000 A 
ATOM     27  C   UNL     1       1.998   4.714  18.396  0.00  0.00    +0.000 A 
ATOM     28  C   UNL     1       2.046   4.326  19.744  0.00  0.00    +0.000 A 
BRANCH  23  30
ATOM     29  C   UNL     1       1.014   2.470  22.414  0.00  0.00    +0.000 C 
ATOM     30  C   UNL     1       2.230   2.529  21.521  0.00  0.00    +0.000 C 
ATOM     31  O   UNL     1       3.338   2.205  21.952  0.00  0.00    +0.000 OA
ENDBRANCH  23  30
ENDBRANCH   1  27
BRANCH   4  32
ATOM     32  C   UNL     1       1.907   8.706  18.650  0.00  0.00    +0.000 C 
ATOM     33  N   UNL     1       1.190   9.145  19.438  0.00  0.00    +0.000 NA
ENDBRANCH   4  32
TORSDOF 6
ENDMDL
MODEL 5
REMARK VINA RESULT:      -6.5      5.914      9.508
REMARK  Name = 
REMARK  9 active torsions:
REMARK  status: ('A' for Active; 'I' for Inactive)
REMARK    1  A    between atoms: C_1  and  C_2
REMARK    2  A    between atoms: C_2  and  C_4
REMARK    3  A    between atoms: C_8  and  N_9
REMARK    4  A    between atoms: N_11  and  C_12
REMARK    5  A    between atoms: C_15  and  C_16
REMARK    6  A    between atoms: C_22  and  C_23
REMARK    7  A    between atoms: C_22  and  C_24
REMARK    8  A    between atoms: C_25  and  O_26
REMARK    9  A    between atoms: N_27  and  C_28
REMARK                            x       y       z     vdW  Elec       q    Type
REMARK                         _______ _______ _______ _____ _____    ______ ____
ROOT
ATOM      1  N   UNL     1      -0.420  10.625  17.764  0.00  0.00    +0.000 N 
ATOM      2  C   UNL     1      -0.821  11.929  17.979  0.00  0.00    +0.000 C 
ATOM      3  N   UNL     1      -0.181  12.662  18.821  0.00  0.00    +0.000 NA
ATOM      4  N   UNL     1      -1.856  12.329  17.170  0.00  0.00    +0.000 N 
ATOM      5  H   UNL     1      -0.271  10.394  16.787  0.00  0.00    +0.000 HD
ATOM      6  H   UNL     1      -2.277  13.210  17.438  0.00  0.00    +0.000 HD
ENDROOT
BRANCH   3   7
ATOM      7  C   UNL     1      -0.317  14.102  19.038  0.00  0.00    +0.000 C 
ATOM      8  C   UNL     1       0.999  14.641  19.573  0.00  0.00    +0.000 A 
ATOM      9  C   UNL     1       2.121  14.688  18.731  0.00  0.00    +0.000 A 
ATOM     10  C   UNL     1       3.408  14.776  19.269  0.00  0.00    +0.000 A 
ATOM     11  C   UNL     1       3.578  14.904  20.649  0.00  0.00    +0.000 A 
ATOM     12  C   UNL     1       2.462  15.014  21.476  0.00  0.00    +0.000 A 
ATOM     13  C   UNL     1       1.181  14.884  20.940  0.00  0.00    +0.000 A 
ATOM     14  O   UNL     1       0.146  14.957  21.834  0.00  0.00    +0.000 OA
ATOM     15  C   UNL     1      -0.938  14.054  21.535  0.00  0.00    +0.000 C 
ATOM     16  C   UNL     1      -2.063  14.379  22.534  0.00  0.00    +0.000 C 
ATOM     17  C   UNL     1      -0.464  12.619  21.837  0.00  0.00    +0.000 C 
ATOM     18  C   UNL     1      -1.439  14.291  20.084  0.00  0.00    +0.000 C 
BRANCH  10  19
ATOM     19  C   UNL     1       4.539  14.642  18.406  0.00  0.00    +0.000 C 
ATOM     20  N   UNL     1       5.486  14.514  17.745  0.00  0.00    +0.000 NA
ENDBRANCH  10  19
BRANCH  18  21
ATOM     21  O   UNL     1      -1.991  15.614  19.935  0.00  0.00    +0.000 OA
ATOM     22  H   UNL     1      -2.331  15.877  20.811  0.00  0.00    +0.000 HD
ENDBRANCH  18  21
ENDBRANCH   3   7
BRANCH   1  27
ATOM     23  C   UNL     1       0.987   9.117  20.886  0.00  0.00    +0.000 A 
ATOM     24  C   UNL     1       1.922   8.232  20.334  0.00  0.00    +0.000 A 
ATOM     25  C   UNL     1       2.086   8.150  18.955  0.00  0.00    +0.000 A 
ATOM     26  C   UNL     1       1.319   8.958  18.112  0.00  0.00    +0.000 A 
ATOM     27  C   UNL     1       0.366   9.840  18.639  0.00  0.00    +0.000 A 
ATOM     28  C   UNL     1       0.196   9.892  20.030  0.00  0.00    +0.000 A 
BRANCH  23  30
ATOM     29  C   UNL     1      -0.454   9.168  23.041  0.00  0.00    +0.000 C 
ATOM     30  C   UNL     1       0.897   9.215  22.369  0.00  0.00    +0.000 C 
ATOM     31  O   UNL     1       1.924   9.326  23.040  0.00  0.00    +0.000 OA
ENDBRANCH  23  30
ENDBRANCH   1  27
BRANCH   4  32
ATOM     32  C   UNL     1      -2.824  11.341  16.746  0.00  0.00    +0.000 C 
ATOM     33  N   UNL     1      -3.607  10.556  16.433  0.00  0.00    +0.000 NA
ENDBRANCH   4  32
TORSDOF 6
ENDMDL
MODEL 6
REMARK VINA RESULT:      -6.4      5.148      9.115
REMARK  Name = 
REMARK  9 active torsions:
REMARK  status: ('A' for Active; 'I' for Inactive)
REMARK    1  A    between atoms: C_1  and  C_2
REMARK    2  A    between atoms: C_2  and  C_4
REMARK    3  A    between atoms: C_8  and  N_9
REMARK    4  A    between atoms: N_11  and  C_12
REMARK    5  A    between atoms: C_15  and  C_16
REMARK    6  A    between atoms: C_22  and  C_23
REMARK    7  A    between atoms: C_22  and  C_24
REMARK    8  A    between atoms: C_25  and  O_26
REMARK    9  A    between atoms: N_27  and  C_28
REMARK                            x       y       z     vdW  Elec       q    Type
REMARK                         _______ _______ _______ _____ _____    ______ ____
ROOT
ATOM      1  N   UNL     1      -0.444  10.494  17.718  0.00  0.00    +0.000 N 
ATOM      2  C   UNL     1      -0.878  11.771  18.020  0.00  0.00    +0.000 C 
ATOM      3  N   UNL     1      -0.279  12.447  18.937  0.00  0.00    +0.000 NA
ATOM      4  N   UNL     1      -1.895  12.214  17.211  0.00  0.00    +0.000 N 
ATOM      5  H   UNL     1      -0.261  10.343  16.731  0.00  0.00    +0.000 HD
ATOM      6  H   UNL     1      -2.341  13.065  17.533  0.00  0.00    +0.000 HD
ENDROOT
BRANCH   3   7
ATOM      7  C   UNL     1      -0.451  13.863  19.259  0.00  0.00    +0.000 C 
ATOM      8  C   UNL     1       0.868  14.407  19.783  0.00  0.00    +0.000 A 
ATOM      9  C   UNL     1       1.954  14.550  18.906  0.00  0.00    +0.000 A 
ATOM     10  C   UNL     1       3.258  14.643  19.401  0.00  0.00    +0.000 A 
ATOM     11  C   UNL     1       3.479  14.680  20.779  0.00  0.00    +0.000 A 
ATOM     12  C   UNL     1       2.392  14.695  21.652  0.00  0.00    +0.000 A 
ATOM     13  C   UNL     1       1.096  14.560  21.156  0.00  0.00    +0.000 A 
ATOM     14  O   UNL     1       0.095  14.536  22.090  0.00  0.00    +0.000 OA
ATOM     15  C   UNL     1      -0.971  13.621  21.769  0.00  0.00    +0.000 C 
ATOM     16  C   UNL     1      -2.066  13.838  22.829  0.00  0.00    +0.000 C 
ATOM     17  C   UNL     1      -0.442  12.185  21.950  0.00  0.00    +0.000 C 
ATOM     18  C   UNL     1      -1.536  13.941  20.358  0.00  0.00    +0.000 C 
BRANCH  10  19
ATOM     19  C   UNL     1       4.359  14.607  18.490  0.00  0.00    +0.000 C 
ATOM     20  N   UNL     1       5.265  14.626  17.763  0.00  0.00    +0.000 NA
ENDBRANCH  10  19
BRANCH  18  21
ATOM     21  O   UNL     1      -2.133  15.253  20.323  0.00  0.00    +0.000 OA
ATOM     22  H   UNL     1      -2.932  15.212  20.883  0.00  0.00    +0.000 HD
ENDBRANCH  18  21
ENDBRANCH   3   7
BRANCH   1  27
ATOM     23  C   UNL     1       2.126   8.037  18.882  0.00  0.00    +0.000 A 
ATOM     24  C   UNL     1       1.869   8.043  20.259  0.00  0.00    +0.000 A 
ATOM     25  C   UNL     1       0.855   8.838  20.783  0.00  0.00    +0.000 A 
ATOM     26  C   UNL     1       0.082   9.634  19.933  0.00  0.00    +0.000 A 
ATOM     27  C   UNL     1       0.330   9.658  18.554  0.00  0.00    +0.000 A 
ATOM     28  C   UNL     1       1.373   8.869  18.045  0.00  0.00    +0.000 A 
BRANCH  23  30
ATOM     29  C   UNL     1       3.488   5.843  19.107  0.00  0.00    +0.000 C 
ATOM     30  C   UNL     1       3.177   7.119  18.364  0.00  0.00    +0.000 C 
ATOM     31  O   UNL     1       3.784   7.402  17.329  0.00  0.00    +0.000 OA
ENDBRANCH  23  30
ENDBRANCH   1  27
BRANCH   4  32
ATOM     32  C   UNL     1      -2.829  11.245  16.680  0.00  0.00    +0.000 C 
ATOM     33  N   UNL     1      -3.564  10.456  16.277  0.00  0.00    +0.000 NA
ENDBRANCH   4  32
TORSDOF 6
ENDMDL
MODEL 7
REMARK VINA RESULT:      -6.3      7.332     11.455
REMARK  Name = 
REMARK  9 active torsions:
REMARK  status: ('A' for Active; 'I' for Inactive)
REMARK    1  A    between atoms: C_1  and  C_2
REMARK    2  A    between atoms: C_2  and  C_4
REMARK    3  A    between atoms: C_8  and  N_9
REMARK    4  A    between atoms: N_11  and  C_12
REMARK    5  A    between atoms: C_15  and  C_16
REMARK    6  A    between atoms: C_22  and  C_23
REMARK    7  A    between atoms: C_22  and  C_24
REMARK    8  A    between atoms: C_25  and  O_26
REMARK    9  A    between atoms: N_27  and  C_28
REMARK                            x       y       z     vdW  Elec       q    Type
REMARK                         _______ _______ _______ _____ _____    ______ ____
ROOT
ATOM      1  N   UNL     1       6.518  15.199  20.754  0.00  0.00    +0.000 N 
ATOM      2  C   UNL     1       7.074  15.411  19.507  0.00  0.00    +0.000 C 
ATOM      3  N   UNL     1       8.261  14.982  19.257  0.00  0.00    +0.000 NA
ATOM      4  N   UNL     1       6.219  16.013  18.616  0.00  0.00    +0.000 N 
ATOM      5  H   UNL     1       5.601  14.765  20.730  0.00  0.00    +0.000 HD
ATOM      6  H   UNL     1       6.664  16.336  17.766  0.00  0.00    +0.000 HD
ENDROOT
BRANCH   3   7
ATOM      7  C   UNL     1       8.937  14.926  17.962  0.00  0.00    +0.000 C 
ATOM      8  C   UNL     1       9.707  13.618  17.870  0.00  0.00    +0.000 A 
ATOM      9  C   UNL     1       9.004  12.409  17.762  0.00  0.00    +0.000 A 
ATOM     10  C   UNL     1       9.623  11.197  18.085  0.00  0.00    +0.000 A 
ATOM     11  C   UNL     1      10.974  11.179  18.437  0.00  0.00    +0.000 A 
ATOM     12  C   UNL     1      11.716  12.358  18.395  0.00  0.00    +0.000 A 
ATOM     13  C   UNL     1      11.085  13.569  18.113  0.00  0.00    +0.000 A 
ATOM     14  O   UNL     1      11.882  14.682  18.141  0.00  0.00    +0.000 OA
ATOM     15  C   UNL     1      11.229  15.845  18.688  0.00  0.00    +0.000 C 
ATOM     16  C   UNL     1      12.204  17.021  18.500  0.00  0.00    +0.000 C 
ATOM     17  C   UNL     1      11.063  15.632  20.206  0.00  0.00    +0.000 C 
ATOM     18  C   UNL     1       9.912  16.125  17.916  0.00  0.00    +0.000 C 
BRANCH  10  19
ATOM     19  C   UNL     1       8.841  10.003  18.142  0.00  0.00    +0.000 C 
ATOM     20  N   UNL     1       8.248   9.005  18.200  0.00  0.00    +0.000 NA
ENDBRANCH  10  19
BRANCH  18  21
ATOM     21  O   UNL     1      10.178  16.450  16.536  0.00  0.00    +0.000 OA
ATOM     22  H   UNL     1       9.826  17.348  16.386  0.00  0.00    +0.000 HD
ENDBRANCH  18  21
ENDBRANCH   3   7
BRANCH   1  27
ATOM     23  C   UNL     1       8.562  15.638  23.857  0.00  0.00    +0.000 A 
ATOM     24  C   UNL     1       8.586  14.318  24.327  0.00  0.00    +0.000 A 
ATOM     25  C   UNL     1       7.945  13.306  23.618  0.00  0.00    +0.000 A 
ATOM     26  C   UNL     1       7.278  13.603  22.427  0.00  0.00    +0.000 A 
ATOM     27  C   UNL     1       7.226  14.918  21.945  0.00  0.00    +0.000 A 
ATOM     28  C   UNL     1       7.855  15.930  22.685  0.00  0.00    +0.000 A 
BRANCH  23  30
ATOM     29  C   UNL     1       9.646  17.991  23.962  0.00  0.00    +0.000 C 
ATOM     30  C   UNL     1       9.318  16.671  24.617  0.00  0.00    +0.000 C 
ATOM     31  O   UNL     1       9.666  16.447  25.778  0.00  0.00    +0.000 OA
ENDBRANCH  23  30
ENDBRANCH   1  27
BRANCH   4  32
ATOM     32  C   UNL     1       5.226  16.933  19.125  0.00  0.00    +0.000 C 
ATOM     33  N   UNL     1       4.423  17.645  19.545  0.00  0.00    +0.000 NA
ENDBRANCH   4  32
TORSDOF 6
ENDMDL
MODEL 8
REMARK VINA RESULT:      -6.3      8.178     12.034
REMARK  Name = 
REMARK  9 active torsions:
REMARK  status: ('A' for Active; 'I' for Inactive)
REMARK    1  A    between atoms: C_1  and  C_2
REMARK    2  A    between atoms: C_2  and  C_4
REMARK    3  A    between atoms: C_8  and  N_9
REMARK    4  A    between atoms: N_11  and  C_12
REMARK    5  A    between atoms: C_15  and  C_16
REMARK    6  A    between atoms: C_22  and  C_23
REMARK    7  A    between atoms: C_22  and  C_24
REMARK    8  A    between atoms: C_25  and  O_26
REMARK    9  A    between atoms: N_27  and  C_28
REMARK                            x       y       z     vdW  Elec       q    Type
REMARK                         _______ _______ _______ _____ _____    ______ ____
ROOT
ATOM      1  N   UNL     1      -4.132  10.970  17.752  0.00  0.00    +0.000 N 
ATOM      2  C   UNL     1      -2.858  11.497  17.849  0.00  0.00    +0.000 C 
ATOM      3  N   UNL     1      -2.588  12.345  18.779  0.00  0.00    +0.000 NA
ATOM      4  N   UNL     1      -1.970  10.966  16.946  0.00  0.00    +0.000 N 
ATOM      5  H   UNL     1      -4.158   9.956  17.719  0.00  0.00    +0.000 HD
ATOM      6  H   UNL     1      -1.092  11.466  16.883  0.00  0.00    +0.000 HD
ENDROOT
BRANCH   3   7
ATOM      7  C   UNL     1      -1.275  12.854  19.170  0.00  0.00    +0.000 C 
ATOM      8  C   UNL     1      -0.864  12.191  20.474  0.00  0.00    +0.000 A 
ATOM      9  C   UNL     1      -0.541  10.825  20.484  0.00  0.00    +0.000 A 
ATOM     10  C   UNL     1      -0.563  10.099  21.678  0.00  0.00    +0.000 A 
ATOM     11  C   UNL     1      -0.826  10.752  22.884  0.00  0.00    +0.000 A 
ATOM     12  C   UNL     1      -0.995  12.135  22.899  0.00  0.00    +0.000 A 
ATOM     13  C   UNL     1      -1.012  12.849  21.701  0.00  0.00    +0.000 A 
ATOM     14  O   UNL     1      -1.232  14.196  21.808  0.00  0.00    +0.000 OA
ATOM     15  C   UNL     1      -2.050  14.733  20.750  0.00  0.00    +0.000 C 
ATOM     16  C   UNL     1      -2.062  16.260  20.940  0.00  0.00    +0.000 C 
ATOM     17  C   UNL     1      -3.494  14.238  20.963  0.00  0.00    +0.000 C 
ATOM     18  C   UNL     1      -1.430  14.379  19.371  0.00  0.00    +0.000 C 
BRANCH  10  19
ATOM     19  C   UNL     1      -0.408   8.679  21.639  0.00  0.00    +0.000 C 
ATOM     20  N   UNL     1      -0.280   7.527  21.556  0.00  0.00    +0.000 NA
ENDBRANCH  10  19
BRANCH  18  21
ATOM     21  O   UNL     1      -0.139  14.999  19.208  0.00  0.00    +0.000 OA
ATOM     22  H   UNL     1       0.516  14.277  19.162  0.00  0.00    +0.000 HD
ENDBRANCH  18  21
ENDBRANCH   3   7
BRANCH   1  27
ATOM     23  C   UNL     1      -6.988  11.679  20.061  0.00  0.00    +0.000 A 
ATOM     24  C   UNL     1      -7.629  12.706  19.356  0.00  0.00    +0.000 A 
ATOM     25  C   UNL     1      -7.125  13.142  18.134  0.00  0.00    +0.000 A 
ATOM     26  C   UNL     1      -5.977  12.550  17.602  0.00  0.00    +0.000 A 
ATOM     27  C   UNL     1      -5.310  11.532  18.295  0.00  0.00    +0.000 A 
ATOM     28  C   UNL     1      -5.816  11.122  19.538  0.00  0.00    +0.000 A 
BRANCH  23  30
ATOM     29  C   UNL     1      -7.917  12.194  22.427  0.00  0.00    +0.000 C 
ATOM     30  C   UNL     1      -7.604  11.204  21.331  0.00  0.00    +0.000 C 
ATOM     31  O   UNL     1      -7.861  10.008  21.479  0.00  0.00    +0.000 OA
ENDBRANCH  23  30
ENDBRANCH   1  27
BRANCH   4  32
ATOM     32  C   UNL     1      -2.470  10.529  15.660  0.00  0.00    +0.000 C 
ATOM     33  N   UNL     1      -2.868  10.154  14.646  0.00  0.00    +0.000 NA
ENDBRANCH   4  32
TORSDOF 6
ENDMDL
MODEL 9
REMARK VINA RESULT:      -6.2      8.192     11.831
REMARK  Name = 
REMARK  9 active torsions:
REMARK  status: ('A' for Active; 'I' for Inactive)
REMARK    1  A    between atoms: C_1  and  C_2
REMARK    2  A    between atoms: C_2  and  C_4
REMARK    3  A    between atoms: C_8  and  N_9
REMARK    4  A    between atoms: N_11  and  C_12
REMARK    5  A    between atoms: C_15  and  C_16
REMARK    6  A    between atoms: C_22  and  C_23
REMARK    7  A    between atoms: C_22  and  C_24
REMARK    8  A    between atoms: C_25  and  O_26
REMARK    9  A    between atoms: N_27  and  C_28
REMARK                            x       y       z     vdW  Elec       q    Type
REMARK                         _______ _______ _______ _____ _____    ______ ____
ROOT
ATOM      1  N   UNL     1      -2.722  12.260  18.011  0.00  0.00    +0.000 N 
ATOM      2  C   UNL     1      -4.051  11.996  18.284  0.00  0.00    +0.000 C 
ATOM      3  N   UNL     1      -4.527  12.264  19.449  0.00  0.00    +0.000 NA
ATOM      4  N   UNL     1      -4.755  11.531  17.201  0.00  0.00    +0.000 N 
ATOM      5  H   UNL     1      -2.575  12.816  17.174  0.00  0.00    +0.000 HD
ATOM      6  H   UNL     1      -5.672  11.165  17.428  0.00  0.00    +0.000 HD
ENDROOT
BRANCH   3   7
ATOM      7  C   UNL     1      -5.928  12.250  19.867  0.00  0.00    +0.000 C 
ATOM      8  C   UNL     1      -6.537  13.612  19.577  0.00  0.00    +0.000 A 
ATOM      9  C   UNL     1      -6.746  14.006  18.246  0.00  0.00    +0.000 A 
ATOM     10  C   UNL     1      -6.905  15.357  17.924  0.00  0.00    +0.000 A 
ATOM     11  C   UNL     1      -6.940  16.315  18.939  0.00  0.00    +0.000 A 
ATOM     12  C   UNL     1      -6.888  15.912  20.272  0.00  0.00    +0.000 A 
ATOM     13  C   UNL     1      -6.689  14.568  20.588  0.00  0.00    +0.000 A 
ATOM     14  O   UNL     1      -6.603  14.271  21.921  0.00  0.00    +0.000 OA
ATOM     15  C   UNL     1      -5.635  13.246  22.222  0.00  0.00    +0.000 C 
ATOM     16  C   UNL     1      -5.782  12.934  23.722  0.00  0.00    +0.000 C 
ATOM     17  C   UNL     1      -4.227  13.841  22.019  0.00  0.00    +0.000 C 
ATOM     18  C   UNL     1      -5.937  11.972  21.388  0.00  0.00    +0.000 C 
BRANCH  10  19
ATOM     19  C   UNL     1      -6.936  15.752  16.551  0.00  0.00    +0.000 C 
ATOM     20  N   UNL     1      -7.002  16.104  15.446  0.00  0.00    +0.000 NA
ENDBRANCH  10  19
BRANCH  18  21
ATOM     21  O   UNL     1      -7.215  11.408  21.745  0.00  0.00    +0.000 OA
ATOM     22  H   UNL     1      -7.884  12.098  21.574  0.00  0.00    +0.000 HD
ENDBRANCH  18  21
ENDBRANCH   3   7
BRANCH   1  27
ATOM     23  C   UNL     1      -0.414  11.627  20.887  0.00  0.00    +0.000 A 
ATOM     24  C   UNL     1       0.393  12.770  20.813  0.00  0.00    +0.000 A 
ATOM     25  C   UNL     1       0.164  13.732  19.835  0.00  0.00    +0.000 A 
ATOM     26  C   UNL     1      -0.880  13.565  18.922  0.00  0.00    +0.000 A 
ATOM     27  C   UNL     1      -1.692  12.423  18.965  0.00  0.00    +0.000 A 
ATOM     28  C   UNL     1      -1.431  11.450  19.941  0.00  0.00    +0.000 A 
BRANCH  23  30
ATOM     29  C   UNL     1       0.411   9.301  21.682  0.00  0.00    +0.000 C 
ATOM     30  C   UNL     1      -0.170  10.660  21.992  0.00  0.00    +0.000 C 
ATOM     31  O   UNL     1      -0.435  10.975  23.153  0.00  0.00    +0.000 OA
ENDBRANCH  23  30
ENDBRANCH   1  27
BRANCH   4  32
ATOM     32  C   UNL     1      -4.057  10.745  16.207  0.00  0.00    +0.000 C 
ATOM     33  N   UNL     1      -3.502  10.098  15.433  0.00  0.00    +0.000 NA
ENDBRANCH   4  32
TORSDOF 6
ENDMDL
