MODEL 1
REMARK VINA RESULT:      -8.4      0.000      0.000
REMARK  Name = 
REMARK  11 active torsions:
REMARK  status: ('A' for Active; 'I' for Inactive)
REMARK    1  A    between atoms: C_1  and  O_2
REMARK    2  A    between atoms: O_2  and  C_3
REMARK    3  A    between atoms: C_7  and  C_8
REMARK    4  A    between atoms: C_8  and  C_9
REMARK    5  A    between atoms: C_12  and  O_13
REMARK    6  A    between atoms: O_13  and  C_14
REMARK    7  A    between atoms: C_15  and  O_16
REMARK    8  A    between atoms: O_16  and  C_17
REMARK    9  A    between atoms: N_22  and  C_23
REMARK   10  A    between atoms: C_23  and  C_24
REMARK   11  A    between atoms: N_26  and  C_27
REMARK                            x       y       z     vdW  Elec       q    Type
REMARK                         _______ _______ _______ _____ _____    ______ ____
ROOT
ATOM      1  C   UNL     1      -0.848  12.202  19.593  0.00  0.00    +0.000 C 
ATOM      2  C   UNL     1      -2.365  12.289  19.708  0.00  0.00    +0.000 A 
ATOM      3  C   UNL     1      -2.952  12.738  20.887  0.00  0.00    +0.000 A 
ATOM      4  C   UNL     1      -4.341  12.752  21.046  0.00  0.00    +0.000 A 
ATOM      5  C   UNL     1      -5.168  12.414  19.957  0.00  0.00    +0.000 A 
ATOM      6  C   UNL     1      -4.567  11.878  18.785  0.00  0.00    +0.000 A 
ATOM      7  C   UNL     1      -3.180  11.731  18.711  0.00  0.00    +0.000 A 
ATOM      8  C   UNL     1      -2.479  10.921  17.644  0.00  0.00    +0.000 C 
ATOM      9  C   UNL     1      -1.093  10.302  18.139  0.00  0.00    +0.000 C 
ATOM     10  N   UNL     1      -0.584  10.752  19.495  0.00  0.00    +0.000 NA
ENDROOT
BRANCH   4  11
ATOM     11  O   UNL     1      -4.966  13.064  22.225  0.00  0.00    +0.000 OA
ATOM     12  C   UNL     1      -4.151  13.052  23.389  0.00  0.00    +0.000 C 
ENDBRANCH   4  11
BRANCH   5  13
ATOM     13  O   UNL     1      -6.520  12.510  20.199  0.00  0.00    +0.000 OA
ATOM     14  C   UNL     1      -7.362  11.420  19.865  0.00  0.00    +0.000 C 
ENDBRANCH   5  13
BRANCH   1  15
ATOM     15  C   UNL     1      -0.236  13.050  18.413  0.00  0.00    +0.000 C 
BRANCH  15  20
ATOM     16  C   UNL     1       2.688  15.445  18.968  0.00  0.00    +0.000 A 
ATOM     17  C   UNL     1       2.004  16.562  19.454  0.00  0.00    +0.000 A 
ATOM     18  C   UNL     1       0.615  16.566  19.541  0.00  0.00    +0.000 A 
ATOM     19  C   UNL     1      -0.092  15.424  19.184  0.00  0.00    +0.000 A 
ATOM     20  C   UNL     1       0.580  14.278  18.725  0.00  0.00    +0.000 A 
ATOM     21  C   UNL     1       1.966  14.323  18.563  0.00  0.00    +0.000 A 
BRANCH  16  23
ATOM     22  C   UNL     1       4.794  14.717  18.101  0.00  0.00    +0.000 C 
ATOM     23  O   UNL     1       4.049  15.565  18.967  0.00  0.00    +0.000 OA
ENDBRANCH  16  23
ENDBRANCH  15  20
ENDBRANCH   1  15
BRANCH  10  24
ATOM     24  C   UNL     1       0.840  10.403  19.740  0.00  0.00    +0.000 C 
BRANCH  24  25
ATOM     25  C   UNL     1       1.302   8.873  19.893  0.00  0.00    +0.000 C 
ATOM     26  O   UNL     1       1.306   8.409  21.042  0.00  0.00    +0.000 OA
ATOM     27  N   UNL     1       1.763   8.105  18.845  0.00  0.00    +0.000 N 
ATOM     28  H   UNL     1       1.905   8.590  17.967  0.00  0.00    +0.000 HD
BRANCH  27  29
ATOM     29  C   UNL     1       2.670   6.934  19.139  0.00  0.00    +0.000 C 
ATOM     30  C   UNL     1       3.471   6.656  17.839  0.00  0.00    +0.000 C 
ATOM     31  C   UNL     1       3.661   5.152  17.719  0.00  0.00    +0.000 C 
ATOM     32  C   UNL     1       2.407   4.663  18.365  0.00  0.00    +0.000 A 
ATOM     33  C   UNL     1       1.907   3.371  18.246  0.00  0.00    +0.000 A 
ATOM     34  C   UNL     1       1.216   2.848  19.322  0.00  0.00    +0.000 A 
ATOM     35  C   UNL     1       1.142   3.595  20.507  0.00  0.00    +0.000 A 
ATOM     36  C   UNL     1       1.554   4.950  20.546  0.00  0.00    +0.000 A 
ATOM     37  C   UNL     1       2.061   5.548  19.398  0.00  0.00    +0.000 A 
ENDBRANCH  27  29
ENDBRANCH  24  25
ENDBRANCH  10  24
TORSDOF 8
ENDMDL
MODEL 2
REMARK VINA RESULT:      -8.4      0.749      1.436
REMARK  Name = 
REMARK  11 active torsions:
REMARK  status: ('A' for Active; 'I' for Inactive)
REMARK    1  A    between atoms: C_1  and  O_2
REMARK    2  A    between atoms: O_2  and  C_3
REMARK    3  A    between atoms: C_7  and  C_8
REMARK    4  A    between atoms: C_8  and  C_9
REMARK    5  A    between atoms: C_12  and  O_13
REMARK    6  A    between atoms: O_13  and  C_14
REMARK    7  A    between atoms: C_15  and  O_16
REMARK    8  A    between atoms: O_16  and  C_17
REMARK    9  A    between atoms: N_22  and  C_23
REMARK   10  A    between atoms: C_23  and  C_24
REMARK   11  A    between atoms: N_26  and  C_27
REMARK                            x       y       z     vdW  Elec       q    Type
REMARK                         _______ _______ _______ _____ _____    ______ ____
ROOT
ATOM      1  C   UNL     1      -0.575  12.158  19.561  0.00  0.00    +0.000 C 
ATOM      2  C   UNL     1      -2.063  12.312  19.849  0.00  0.00    +0.000 A 
ATOM      3  C   UNL     1      -2.490  12.753  21.098  0.00  0.00    +0.000 A 
ATOM      4  C   UNL     1      -3.850  12.827  21.414  0.00  0.00    +0.000 A 
ATOM      5  C   UNL     1      -4.810  12.560  20.419  0.00  0.00    +0.000 A 
ATOM      6  C   UNL     1      -4.372  12.031  19.173  0.00  0.00    +0.000 A 
ATOM      7  C   UNL     1      -3.011  11.822  18.938  0.00  0.00    +0.000 A 
ATOM      8  C   UNL     1      -2.476  11.012  17.779  0.00  0.00    +0.000 C 
ATOM      9  C   UNL     1      -1.075  10.315  18.099  0.00  0.00    +0.000 C 
ATOM     10  N   UNL     1      -0.395  10.700  19.399  0.00  0.00    +0.000 NA
ENDROOT
BRANCH   4  11
ATOM     11  O   UNL     1      -4.322  13.133  22.664  0.00  0.00    +0.000 OA
ATOM     12  C   UNL     1      -3.626  12.551  23.757  0.00  0.00    +0.000 C 
ENDBRANCH   4  11
BRANCH   5  13
ATOM     13  O   UNL     1      -6.120  12.712  20.815  0.00  0.00    +0.000 OA
ATOM     14  C   UNL     1      -7.030  11.642  20.623  0.00  0.00    +0.000 C 
ENDBRANCH   5  13
BRANCH   1  15
ATOM     15  C   UNL     1      -0.058  13.010  18.339  0.00  0.00    +0.000 C 
BRANCH  15  20
ATOM     16  C   UNL     1       2.124  16.069  19.031  0.00  0.00    +0.000 A 
ATOM     17  C   UNL     1       3.379  15.561  18.687  0.00  0.00    +0.000 A 
ATOM     18  C   UNL     1       3.529  14.232  18.300  0.00  0.00    +0.000 A 
ATOM     19  C   UNL     1       2.406  13.419  18.209  0.00  0.00    +0.000 A 
ATOM     20  C   UNL     1       1.129  13.921  18.517  0.00  0.00    +0.000 A 
ATOM     21  C   UNL     1       1.010  15.231  18.987  0.00  0.00    +0.000 A 
BRANCH  16  23
ATOM     22  C   UNL     1       0.948  17.922  19.979  0.00  0.00    +0.000 C 
ATOM     23  O   UNL     1       2.116  17.395  19.361  0.00  0.00    +0.000 OA
ENDBRANCH  16  23
ENDBRANCH  15  20
ENDBRANCH   1  15
BRANCH  10  24
ATOM     24  C   UNL     1       1.028  10.278  19.471  0.00  0.00    +0.000 C 
BRANCH  24  25
ATOM     25  C   UNL     1       1.424   8.735  19.668  0.00  0.00    +0.000 C 
ATOM     26  O   UNL     1       1.366   8.292  20.824  0.00  0.00    +0.000 OA
ATOM     27  N   UNL     1       1.894   7.930  18.652  0.00  0.00    +0.000 N 
ATOM     28  H   UNL     1       2.088   8.394  17.772  0.00  0.00    +0.000 HD
BRANCH  27  29
ATOM     29  C   UNL     1       2.743   6.731  19.000  0.00  0.00    +0.000 C 
ATOM     30  C   UNL     1       3.598   6.413  17.745  0.00  0.00    +0.000 C 
ATOM     31  C   UNL     1       3.741   4.902  17.646  0.00  0.00    +0.000 C 
ATOM     32  C   UNL     1       2.439   4.463  18.231  0.00  0.00    +0.000 A 
ATOM     33  C   UNL     1       1.900   3.188  18.097  0.00  0.00    +0.000 A 
ATOM     34  C   UNL     1       1.137   2.700  19.140  0.00  0.00    +0.000 A 
ATOM     35  C   UNL     1       1.030   3.461  20.315  0.00  0.00    +0.000 A 
ATOM     36  C   UNL     1       1.487   4.801  20.364  0.00  0.00    +0.000 A 
ATOM     37  C   UNL     1       2.073   5.370  19.238  0.00  0.00    +0.000 A 
ENDBRANCH  27  29
ENDBRANCH  24  25
ENDBRANCH  10  24
TORSDOF 8
ENDMDL
MODEL 3
REMARK VINA RESULT:      -8.3      1.240      1.619
REMARK  Name = 
REMARK  11 active torsions:
REMARK  status: ('A' for Active; 'I' for Inactive)
REMARK    1  A    between atoms: C_1  and  O_2
REMARK    2  A    between atoms: O_2  and  C_3
REMARK    3  A    between atoms: C_7  and  C_8
REMARK    4  A    between atoms: C_8  and  C_9
REMARK    5  A    between atoms: C_12  and  O_13
REMARK    6  A    between atoms: O_13  and  C_14
REMARK    7  A    between atoms: C_15  and  O_16
REMARK    8  A    between atoms: O_16  and  C_17
REMARK    9  A    between atoms: N_22  and  C_23
REMARK   10  A    between atoms: C_23  and  C_24
REMARK   11  A    between atoms: N_26  and  C_27
REMARK                            x       y       z     vdW  Elec       q    Type
REMARK                         _______ _______ _______ _____ _____    ______ ____
ROOT
ATOM      1  C   UNL     1      -0.623  11.928  19.774  0.00  0.00    +0.000 C 
ATOM      2  C   UNL     1      -2.125  12.095  19.584  0.00  0.00    +0.000 A 
ATOM      3  C   UNL     1      -2.917  12.543  20.637  0.00  0.00    +0.000 A 
ATOM      4  C   UNL     1      -4.307  12.630  20.513  0.00  0.00    +0.000 A 
ATOM      5  C   UNL     1      -4.911  12.370  19.267  0.00  0.00    +0.000 A 
ATOM      6  C   UNL     1      -4.110  11.834  18.220  0.00  0.00    +0.000 A 
ATOM      7  C   UNL     1      -2.746  11.613  18.421  0.00  0.00    +0.000 A 
ATOM      8  C   UNL     1      -1.884  10.796  17.487  0.00  0.00    +0.000 C 
ATOM      9  C   UNL     1      -0.659  10.087  18.227  0.00  0.00    +0.000 C 
ATOM     10  N   UNL     1      -0.415  10.468  19.674  0.00  0.00    +0.000 NA
ENDROOT
BRANCH   4  11
ATOM     11  O   UNL     1      -5.143  12.942  21.553  0.00  0.00    +0.000 OA
ATOM     12  C   UNL     1      -4.889  14.176  22.211  0.00  0.00    +0.000 C 
ENDBRANCH   4  11
BRANCH   5  13
ATOM     13  O   UNL     1      -6.277  12.534  19.236  0.00  0.00    +0.000 OA
ATOM     14  C   UNL     1      -7.105  11.405  19.011  0.00  0.00    +0.000 C 
ENDBRANCH   5  13
BRANCH   1  15
ATOM     15  C   UNL     1       0.257  12.773  18.775  0.00  0.00    +0.000 C 
BRANCH  15  20
ATOM     16  C   UNL     1       2.965  14.284  21.007  0.00  0.00    +0.000 A 
ATOM     17  C   UNL     1       3.892  14.679  20.039  0.00  0.00    +0.000 A 
ATOM     18  C   UNL     1       3.677  14.403  18.692  0.00  0.00    +0.000 A 
ATOM     19  C   UNL     1       2.501  13.772  18.305  0.00  0.00    +0.000 A 
ATOM     20  C   UNL     1       1.540  13.398  19.260  0.00  0.00    +0.000 A 
ATOM     21  C   UNL     1       1.812  13.604  20.615  0.00  0.00    +0.000 A 
BRANCH  16  23
ATOM     22  C   UNL     1       2.998  15.977  22.695  0.00  0.00    +0.000 C 
ATOM     23  O   UNL     1       3.285  14.646  22.285  0.00  0.00    +0.000 OA
ENDBRANCH  16  23
ENDBRANCH  15  20
ENDBRANCH   1  15
BRANCH  10  24
ATOM     24  C   UNL     1       0.910  10.033  20.187  0.00  0.00    +0.000 C 
BRANCH  24  25
ATOM     25  C   UNL     1       1.323   8.482  20.202  0.00  0.00    +0.000 C 
ATOM     26  O   UNL     1       1.219   7.893  21.288  0.00  0.00    +0.000 OA
ATOM     27  N   UNL     1       1.854   7.821  19.115  0.00  0.00    +0.000 N 
ATOM     28  H   UNL     1       2.080   8.397  18.312  0.00  0.00    +0.000 HD
BRANCH  27  29
ATOM     29  C   UNL     1       2.706   6.596  19.347  0.00  0.00    +0.000 C 
ATOM     30  C   UNL     1       3.608   6.440  18.094  0.00  0.00    +0.000 C 
ATOM     31  C   UNL     1       3.775   4.954  17.819  0.00  0.00    +0.000 C 
ATOM     32  C   UNL     1       2.459   4.436  18.299  0.00  0.00    +0.000 A 
ATOM     33  C   UNL     1       1.943   3.181  17.993  0.00  0.00    +0.000 A 
ATOM     34  C   UNL     1       1.151   2.564  18.941  0.00  0.00    +0.000 A 
ATOM     35  C   UNL     1       0.992   3.175  20.194  0.00  0.00    +0.000 A 
ATOM     36  C   UNL     1       1.429   4.504  20.421  0.00  0.00    +0.000 A 
ATOM     37  C   UNL     1       2.046   5.210  19.394  0.00  0.00    +0.000 A 
ENDBRANCH  27  29
ENDBRANCH  24  25
ENDBRANCH  10  24
TORSDOF 8
ENDMDL
MODEL 4
REMARK VINA RESULT:      -8.2      2.158      5.960
REMARK  Name = 
REMARK  11 active torsions:
REMARK  status: ('A' for Active; 'I' for Inactive)
REMARK    1  A    between atoms: C_1  and  O_2
REMARK    2  A    between atoms: O_2  and  C_3
REMARK    3  A    between atoms: C_7  and  C_8
REMARK    4  A    between atoms: C_8  and  C_9
REMARK    5  A    between atoms: C_12  and  O_13
REMARK    6  A    between atoms: O_13  and  C_14
REMARK    7  A    between atoms: C_15  and  O_16
REMARK    8  A    between atoms: O_16  and  C_17
REMARK    9  A    between atoms: N_22  and  C_23
REMARK   10  A    between atoms: C_23  and  C_24
REMARK   11  A    between atoms: N_26  and  C_27
REMARK                            x       y       z     vdW  Elec       q    Type
REMARK                         _______ _______ _______ _____ _____    ______ ____
ROOT
ATOM      1  C   UNL     1       0.091  10.644  19.493  0.00  0.00    +0.000 C 
ATOM      2  C   UNL     1       0.277  12.144  19.689  0.00  0.00    +0.000 A 
ATOM      3  C   UNL     1       1.009  12.883  18.765  0.00  0.00    +0.000 A 
ATOM      4  C   UNL     1       1.261  14.244  18.962  0.00  0.00    +0.000 A 
ATOM      5  C   UNL     1       0.671  14.909  20.055  0.00  0.00    +0.000 A 
ATOM      6  C   UNL     1      -0.005  14.135  21.039  0.00  0.00    +0.000 A 
ATOM      7  C   UNL     1      -0.110  12.751  20.894  0.00  0.00    +0.000 A 
ATOM      8  C   UNL     1      -0.549  11.823  22.004  0.00  0.00    +0.000 C 
ATOM      9  C   UNL     1       0.080  10.360  21.881  0.00  0.00    +0.000 C 
ATOM     10  N   UNL     1       0.848  10.045  20.612  0.00  0.00    +0.000 NA
ENDROOT
BRANCH   4  11
ATOM     11  O   UNL     1       2.078  14.989  18.152  0.00  0.00    +0.000 OA
ATOM     12  C   UNL     1       3.439  14.585  18.093  0.00  0.00    +0.000 C 
ENDBRANCH   4  11
BRANCH   5  13
ATOM     13  O   UNL     1       0.938  16.257  20.131  0.00  0.00    +0.000 OA
ATOM     14  C   UNL     1       1.556  16.776  21.297  0.00  0.00    +0.000 C 
ENDBRANCH   5  13
BRANCH   1  15
ATOM     15  C   UNL     1      -1.415  10.181  19.414  0.00  0.00    +0.000 C 
BRANCH  15  20
ATOM     16  C   UNL     1      -4.120  11.541  17.084  0.00  0.00    +0.000 A 
ATOM     17  C   UNL     1      -3.739  10.937  15.883  0.00  0.00    +0.000 A 
ATOM     18  C   UNL     1      -2.590  10.155  15.811  0.00  0.00    +0.000 A 
ATOM     19  C   UNL     1      -1.843   9.935  16.963  0.00  0.00    +0.000 A 
ATOM     20  C   UNL     1      -2.229  10.506  18.188  0.00  0.00    +0.000 A 
ATOM     21  C   UNL     1      -3.335  11.358  18.222  0.00  0.00    +0.000 A 
BRANCH  16  23
ATOM     22  C   UNL     1      -6.393  11.791  17.780  0.00  0.00    +0.000 C 
ATOM     23  O   UNL     1      -5.284  12.254  17.020  0.00  0.00    +0.000 OA
ENDBRANCH  16  23
ENDBRANCH  15  20
ENDBRANCH   1  15
BRANCH  10  24
ATOM     24  C   UNL     1       1.114   8.596  20.424  0.00  0.00    +0.000 C 
BRANCH  24  25
ATOM     25  C   UNL     1       2.115   8.080  19.280  0.00  0.00    +0.000 C 
ATOM     26  O   UNL     1       2.327   8.857  18.338  0.00  0.00    +0.000 OA
ATOM     27  N   UNL     1       2.663   6.815  19.257  0.00  0.00    +0.000 N 
ATOM     28  H   UNL     1       2.315   6.167  19.954  0.00  0.00    +0.000 HD
BRANCH  27  29
ATOM     29  C   UNL     1       3.107   6.232  17.937  0.00  0.00    +0.000 C 
ATOM     30  C   UNL     1       2.613   4.762  17.912  0.00  0.00    +0.000 C 
ATOM     31  C   UNL     1       3.662   3.927  17.196  0.00  0.00    +0.000 C 
ATOM     32  C   UNL     1       4.905   4.664  17.572  0.00  0.00    +0.000 A 
ATOM     33  C   UNL     1       6.194   4.156  17.453  0.00  0.00    +0.000 A 
ATOM     34  C   UNL     1       7.213   5.046  17.174  0.00  0.00    +0.000 A 
ATOM     35  C   UNL     1       6.889   6.388  16.924  0.00  0.00    +0.000 A 
ATOM     36  C   UNL     1       5.587   6.888  17.176  0.00  0.00    +0.000 A 
ATOM     37  C   UNL     1       4.604   6.032  17.660  0.00  0.00    +0.000 A 
ENDBRANCH  27  29
ENDBRANCH  24  25
ENDBRANCH  10  24
TORSDOF 8
ENDMDL
MODEL 5
REMARK VINA RESULT:      -8.2      1.556      1.958
REMARK  Name = 
REMARK  11 active torsions:
REMARK  status: ('A' for Active; 'I' for Inactive)
REMARK    1  A    between atoms: C_1  and  O_2
REMARK    2  A    between atoms: O_2  and  C_3
REMARK    3  A    between atoms: C_7  and  C_8
REMARK    4  A    between atoms: C_8  and  C_9
REMARK    5  A    between atoms: C_12  and  O_13
REMARK    6  A    between atoms: O_13  and  C_14
REMARK    7  A    between atoms: C_15  and  O_16
REMARK    8  A    between atoms: O_16  and  C_17
REMARK    9  A    between atoms: N_22  and  C_23
REMARK   10  A    between atoms: C_23  and  C_24
REMARK   11  A    between atoms: N_26  and  C_27
REMARK                            x       y       z     vdW  Elec       q    Type
REMARK                         _______ _______ _______ _____ _____    ______ ____
ROOT
ATOM      1  C   UNL     1       0.066  12.078  19.876  0.00  0.00    +0.000 C 
ATOM      2  C   UNL     1      -1.356  12.312  20.369  0.00  0.00    +0.000 A 
ATOM      3  C   UNL     1      -1.614  12.423  21.732  0.00  0.00    +0.000 A 
ATOM      4  C   UNL     1      -2.919  12.559  22.215  0.00  0.00    +0.000 A 
ATOM      5  C   UNL     1      -3.985  12.700  21.305  0.00  0.00    +0.000 A 
ATOM      6  C   UNL     1      -3.729  12.503  19.920  0.00  0.00    +0.000 A 
ATOM      7  C   UNL     1      -2.436  12.216  19.478  0.00  0.00    +0.000 A 
ATOM      8  C   UNL     1      -2.118  11.716  18.087  0.00  0.00    +0.000 C 
ATOM      9  C   UNL     1      -0.810  10.801  18.036  0.00  0.00    +0.000 C 
ATOM     10  N   UNL     1       0.022  10.717  19.302  0.00  0.00    +0.000 NA
ENDROOT
BRANCH   4  11
ATOM     11  O   UNL     1      -3.240  12.546  23.547  0.00  0.00    +0.000 OA
ATOM     12  C   UNL     1      -3.139  13.790  24.227  0.00  0.00    +0.000 C 
ENDBRANCH   4  11
BRANCH   5  13
ATOM     13  O   UNL     1      -5.223  12.881  21.880  0.00  0.00    +0.000 OA
ATOM     14  C   UNL     1      -6.369  12.351  21.236  0.00  0.00    +0.000 C 
ENDBRANCH   5  13
BRANCH   1  15
ATOM     15  C   UNL     1       0.599  13.179  18.881  0.00  0.00    +0.000 C 
BRANCH  15  20
ATOM     16  C   UNL     1      -0.336  16.883  18.849  0.00  0.00    +0.000 A 
ATOM     17  C   UNL     1       0.413  17.338  19.937  0.00  0.00    +0.000 A 
ATOM     18  C   UNL     1       1.158  16.451  20.709  0.00  0.00    +0.000 A 
ATOM     19  C   UNL     1       1.192  15.107  20.360  0.00  0.00    +0.000 A 
ATOM     20  C   UNL     1       0.473  14.636  19.248  0.00  0.00    +0.000 A 
ATOM     21  C   UNL     1      -0.338  15.524  18.537  0.00  0.00    +0.000 A 
BRANCH  16  23
ATOM     22  C   UNL     1      -0.432  18.309  16.932  0.00  0.00    +0.000 C 
ATOM     23  O   UNL     1      -0.994  17.863  18.160  0.00  0.00    +0.000 OA
ENDBRANCH  16  23
ENDBRANCH  15  20
ENDBRANCH   1  15
BRANCH  10  24
ATOM     24  C   UNL     1       1.370  10.132  19.088  0.00  0.00    +0.000 C 
BRANCH  24  25
ATOM     25  C   UNL     1       1.655   8.580  19.383  0.00  0.00    +0.000 C 
ATOM     26  O   UNL     1       1.521   8.206  20.557  0.00  0.00    +0.000 OA
ATOM     27  N   UNL     1       2.112   7.692  18.432  0.00  0.00    +0.000 N 
ATOM     28  H   UNL     1       2.371   8.093  17.538  0.00  0.00    +0.000 HD
BRANCH  27  29
ATOM     29  C   UNL     1       2.864   6.462  18.880  0.00  0.00    +0.000 C 
ATOM     30  C   UNL     1       3.789   6.055  17.702  0.00  0.00    +0.000 C 
ATOM     31  C   UNL     1       3.854   4.536  17.662  0.00  0.00    +0.000 C 
ATOM     32  C   UNL     1       2.490   4.188  18.161  0.00  0.00    +0.000 A 
ATOM     33  C   UNL     1       1.893   2.940  18.028  0.00  0.00    +0.000 A 
ATOM     34  C   UNL     1       1.030   2.530  19.025  0.00  0.00    +0.000 A 
ATOM     35  C   UNL     1       0.880   3.336  20.164  0.00  0.00    +0.000 A 
ATOM     36  C   UNL     1       1.407   4.651  20.206  0.00  0.00    +0.000 A 
ATOM     37  C   UNL     1       2.103   5.148  19.110  0.00  0.00    +0.000 A 
ENDBRANCH  27  29
ENDBRANCH  24  25
ENDBRANCH  10  24
TORSDOF 8
ENDMDL
MODEL 6
REMARK VINA RESULT:      -8.2      2.375      4.948
REMARK  Name = 
REMARK  11 active torsions:
REMARK  status: ('A' for Active; 'I' for Inactive)
REMARK    1  A    between atoms: C_1  and  O_2
REMARK    2  A    between atoms: O_2  and  C_3
REMARK    3  A    between atoms: C_7  and  C_8
REMARK    4  A    between atoms: C_8  and  C_9
REMARK    5  A    between atoms: C_12  and  O_13
REMARK    6  A    between atoms: O_13  and  C_14
REMARK    7  A    between atoms: C_15  and  O_16
REMARK    8  A    between atoms: O_16  and  C_17
REMARK    9  A    between atoms: N_22  and  C_23
REMARK   10  A    between atoms: C_23  and  C_24
REMARK   11  A    between atoms: N_26  and  C_27
REMARK                            x       y       z     vdW  Elec       q    Type
REMARK                         _______ _______ _______ _____ _____    ______ ____
ROOT
ATOM      1  C   UNL     1      -0.209  11.407  19.074  0.00  0.00    +0.000 C 
ATOM      2  C   UNL     1      -0.560  12.564  20.001  0.00  0.00    +0.000 A 
ATOM      3  C   UNL     1      -0.495  13.875  19.538  0.00  0.00    +0.000 A 
ATOM      4  C   UNL     1      -0.734  14.957  20.390  0.00  0.00    +0.000 A 
ATOM      5  C   UNL     1      -1.161  14.721  21.711  0.00  0.00    +0.000 A 
ATOM      6  C   UNL     1      -1.146  13.386  22.204  0.00  0.00    +0.000 A 
ATOM      7  C   UNL     1      -0.753  12.335  21.372  0.00  0.00    +0.000 A 
ATOM      8  C   UNL     1      -0.433  10.945  21.874  0.00  0.00    +0.000 C 
ATOM      9  C   UNL     1       0.635  10.183  20.964  0.00  0.00    +0.000 C 
ATOM     10  N   UNL     1       1.028  10.848  19.659  0.00  0.00    +0.000 NA
ENDROOT
BRANCH   4  11
ATOM     11  O   UNL     1      -0.562  16.266  20.020  0.00  0.00    +0.000 OA
ATOM     12  C   UNL     1       0.780  16.728  19.962  0.00  0.00    +0.000 C 
ENDBRANCH   4  11
BRANCH   5  13
ATOM     13  O   UNL     1      -1.421  15.851  22.452  0.00  0.00    +0.000 OA
ATOM     14  C   UNL     1      -1.500  15.751  23.864  0.00  0.00    +0.000 C 
ENDBRANCH   5  13
BRANCH   1  15
ATOM     15  C   UNL     1      -1.366  10.352  18.885  0.00  0.00    +0.000 C 
BRANCH  15  20
ATOM     16  C   UNL     1      -3.041  10.311  15.452  0.00  0.00    +0.000 A 
ATOM     17  C   UNL     1      -4.206  11.028  15.736  0.00  0.00    +0.000 A 
ATOM     18  C   UNL     1      -4.477  11.463  17.030  0.00  0.00    +0.000 A 
ATOM     19  C   UNL     1      -3.552  11.220  18.038  0.00  0.00    +0.000 A 
ATOM     20  C   UNL     1      -2.358  10.530  17.765  0.00  0.00    +0.000 A 
ATOM     21  C   UNL     1      -2.143  10.026  16.480  0.00  0.00    +0.000 A 
BRANCH  16  23
ATOM     22  C   UNL     1      -4.047   9.917  13.320  0.00  0.00    +0.000 C 
ATOM     23  O   UNL     1      -2.885   9.973  14.137  0.00  0.00    +0.000 OA
ENDBRANCH  16  23
ENDBRANCH  15  20
ENDBRANCH   1  15
BRANCH  10  24
ATOM     24  C   UNL     1       1.755   9.947  18.728  0.00  0.00    +0.000 C 
BRANCH  24  25
ATOM     25  C   UNL     1       1.966   8.394  19.077  0.00  0.00    +0.000 C 
ATOM     26  O   UNL     1       1.866   8.077  20.271  0.00  0.00    +0.000 OA
ATOM     27  N   UNL     1       2.329   7.444  18.147  0.00  0.00    +0.000 N 
ATOM     28  H   UNL     1       2.570   7.792  17.226  0.00  0.00    +0.000 HD
BRANCH  27  29
ATOM     29  C   UNL     1       3.033   6.192  18.614  0.00  0.00    +0.000 C 
ATOM     30  C   UNL     1       3.890   5.693  17.421  0.00  0.00    +0.000 C 
ATOM     31  C   UNL     1       3.873   4.173  17.436  0.00  0.00    +0.000 C 
ATOM     32  C   UNL     1       2.513   3.917  17.997  0.00  0.00    +0.000 A 
ATOM     33  C   UNL     1       1.846   2.699  17.932  0.00  0.00    +0.000 A 
ATOM     34  C   UNL     1       1.001   2.373  18.975  0.00  0.00    +0.000 A 
ATOM     35  C   UNL     1       0.936   3.227  20.087  0.00  0.00    +0.000 A 
ATOM     36  C   UNL     1       1.533   4.512  20.059  0.00  0.00    +0.000 A 
ATOM     37  C   UNL     1       2.213   4.930  18.921  0.00  0.00    +0.000 A 
ENDBRANCH  27  29
ENDBRANCH  24  25
ENDBRANCH  10  24
TORSDOF 8
ENDMDL
MODEL 7
REMARK VINA RESULT:      -8.1      2.110      4.961
REMARK  Name = 
REMARK  11 active torsions:
REMARK  status: ('A' for Active; 'I' for Inactive)
REMARK    1  A    between atoms: C_1  and  O_2
REMARK    2  A    between atoms: O_2  and  C_3
REMARK    3  A    between atoms: C_7  and  C_8
REMARK    4  A    between atoms: C_8  and  C_9
REMARK    5  A    between atoms: C_12  and  O_13
REMARK    6  A    between atoms: O_13  and  C_14
REMARK    7  A    between atoms: C_15  and  O_16
REMARK    8  A    between atoms: O_16  and  C_17
REMARK    9  A    between atoms: N_22  and  C_23
REMARK   10  A    between atoms: C_23  and  C_24
REMARK   11  A    between atoms: N_26  and  C_27
REMARK                            x       y       z     vdW  Elec       q    Type
REMARK                         _______ _______ _______ _____ _____    ______ ____
ROOT
ATOM      1  C   UNL     1       0.107  10.736  18.847  0.00  0.00    +0.000 C 
ATOM      2  C   UNL     1      -0.190  11.490  20.137  0.00  0.00    +0.000 A 
ATOM      3  C   UNL     1      -0.148  12.880  20.159  0.00  0.00    +0.000 A 
ATOM      4  C   UNL     1      -0.338  13.593  21.347  0.00  0.00    +0.000 A 
ATOM      5  C   UNL     1      -0.691  12.902  22.523  0.00  0.00    +0.000 A 
ATOM      6  C   UNL     1      -0.651  11.480  22.515  0.00  0.00    +0.000 A 
ATOM      7  C   UNL     1      -0.307  10.792  21.349  0.00  0.00    +0.000 A 
ATOM      8  C   UNL     1       0.038   9.321  21.315  0.00  0.00    +0.000 C 
ATOM      9  C   UNL     1       1.053   8.944  20.142  0.00  0.00    +0.000 C 
ATOM     10  N   UNL     1       1.373  10.030  19.133  0.00  0.00    +0.000 NA
ENDROOT
BRANCH   4  11
ATOM     11  O   UNL     1      -0.184  14.951  21.450  0.00  0.00    +0.000 OA
ATOM     12  C   UNL     1       0.954  15.503  20.802  0.00  0.00    +0.000 C 
ENDBRANCH   4  11
BRANCH   5  13
ATOM     13  O   UNL     1      -0.907  13.697  23.625  0.00  0.00    +0.000 OA
ATOM     14  C   UNL     1      -2.234  14.063  23.965  0.00  0.00    +0.000 C 
ENDBRANCH   5  13
BRANCH   1  15
ATOM     15  C   UNL     1      -1.060   9.793  18.361  0.00  0.00    +0.000 C 
BRANCH  15  20
ATOM     16  C   UNL     1      -4.324  11.654  17.666  0.00  0.00    +0.000 A 
ATOM     17  C   UNL     1      -4.508  11.335  16.318  0.00  0.00    +0.000 A 
ATOM     18  C   UNL     1      -3.561  10.585  15.627  0.00  0.00    +0.000 A 
ATOM     19  C   UNL     1      -2.444  10.109  16.303  0.00  0.00    +0.000 A 
ATOM     20  C   UNL     1      -2.258  10.389  17.667  0.00  0.00    +0.000 A 
ATOM     21  C   UNL     1      -3.174  11.216  18.322  0.00  0.00    +0.000 A 
BRANCH  16  23
ATOM     22  C   UNL     1      -5.463  12.360  19.645  0.00  0.00    +0.000 C 
ATOM     23  O   UNL     1      -5.344  12.367  18.228  0.00  0.00    +0.000 OA
ENDBRANCH  16  23
ENDBRANCH  15  20
ENDBRANCH   1  15
BRANCH  10  24
ATOM     24  C   UNL     1       2.046   9.524  17.909  0.00  0.00    +0.000 C 
BRANCH  24  25
ATOM     25  C   UNL     1       2.480   7.983  17.781  0.00  0.00    +0.000 C 
ATOM     26  O   UNL     1       1.568   7.165  17.594  0.00  0.00    +0.000 OA
ATOM     27  N   UNL     1       3.774   7.537  17.950  0.00  0.00    +0.000 N 
ATOM     28  H   UNL     1       4.442   8.225  18.275  0.00  0.00    +0.000 HD
BRANCH  27  29
ATOM     29  C   UNL     1       4.005   6.103  18.364  0.00  0.00    +0.000 C 
ATOM     30  C   UNL     1       4.221   5.294  17.057  0.00  0.00    +0.000 C 
ATOM     31  C   UNL     1       3.592   3.923  17.246  0.00  0.00    +0.000 C 
ATOM     32  C   UNL     1       2.456   4.264  18.155  0.00  0.00    +0.000 A 
ATOM     33  C   UNL     1       1.362   3.441  18.396  0.00  0.00    +0.000 A 
ATOM     34  C   UNL     1       0.779   3.498  19.647  0.00  0.00    +0.000 A 
ATOM     35  C   UNL     1       1.375   4.294  20.637  0.00  0.00    +0.000 A 
ATOM     36  C   UNL     1       2.411   5.207  20.317  0.00  0.00    +0.000 A 
ATOM     37  C   UNL     1       2.861   5.304  19.005  0.00  0.00    +0.000 A 
ENDBRANCH  27  29
ENDBRANCH  24  25
ENDBRANCH  10  24
TORSDOF 8
ENDMDL
MODEL 8
REMARK VINA RESULT:      -8.1      1.066      1.341
REMARK  Name = 
REMARK  11 active torsions:
REMARK  status: ('A' for Active; 'I' for Inactive)
REMARK    1  A    between atoms: C_1  and  O_2
REMARK    2  A    between atoms: O_2  and  C_3
REMARK    3  A    between atoms: C_7  and  C_8
REMARK    4  A    between atoms: C_8  and  C_9
REMARK    5  A    between atoms: C_12  and  O_13
REMARK    6  A    between atoms: O_13  and  C_14
REMARK    7  A    between atoms: C_15  and  O_16
REMARK    8  A    between atoms: O_16  and  C_17
REMARK    9  A    between atoms: N_22  and  C_23
REMARK   10  A    between atoms: C_23  and  C_24
REMARK   11  A    between atoms: N_26  and  C_27
REMARK                            x       y       z     vdW  Elec       q    Type
REMARK                         _______ _______ _______ _____ _____    ______ ____
ROOT
ATOM      1  C   UNL     1      -0.001  12.185  19.668  0.00  0.00    +0.000 C 
ATOM      2  C   UNL     1      -1.366  12.460  20.287  0.00  0.00    +0.000 A 
ATOM      3  C   UNL     1      -1.466  12.799  21.633  0.00  0.00    +0.000 A 
ATOM      4  C   UNL     1      -2.711  12.979  22.245  0.00  0.00    +0.000 A 
ATOM      5  C   UNL     1      -3.882  12.928  21.464  0.00  0.00    +0.000 A 
ATOM      6  C   UNL     1      -3.782  12.500  20.111  0.00  0.00    +0.000 A 
ATOM      7  C   UNL     1      -2.537  12.178  19.566  0.00  0.00    +0.000 A 
ATOM      8  C   UNL     1      -2.359  11.453  18.252  0.00  0.00    +0.000 C 
ATOM      9  C   UNL     1      -1.022  10.582  18.194  0.00  0.00    +0.000 C 
ATOM     10  N   UNL     1      -0.045  10.744  19.343  0.00  0.00    +0.000 NA
ENDROOT
BRANCH   4  11
ATOM     11  O   UNL     1      -2.872  13.190  23.589  0.00  0.00    +0.000 OA
ATOM     12  C   UNL     1      -2.095  14.235  24.157  0.00  0.00    +0.000 C 
ENDBRANCH   4  11
BRANCH   5  13
ATOM     13  O   UNL     1      -5.052  13.170  22.149  0.00  0.00    +0.000 OA
ATOM     14  C   UNL     1      -6.290  13.053  21.469  0.00  0.00    +0.000 C 
ENDBRANCH   5  13
BRANCH   1  15
ATOM     15  C   UNL     1       0.355  13.111  18.442  0.00  0.00    +0.000 C 
BRANCH  15  20
ATOM     16  C   UNL     1       3.771  14.815  18.309  0.00  0.00    +0.000 A 
ATOM     17  C   UNL     1       3.481  16.006  18.980  0.00  0.00    +0.000 A 
ATOM     18  C   UNL     1       2.187  16.283  19.413  0.00  0.00    +0.000 A 
ATOM     19  C   UNL     1       1.186  15.339  19.215  0.00  0.00    +0.000 A 
ATOM     20  C   UNL     1       1.466  14.121  18.572  0.00  0.00    +0.000 A 
ATOM     21  C   UNL     1       2.749  13.898  18.068  0.00  0.00    +0.000 A 
BRANCH  16  23
ATOM     22  C   UNL     1       6.039  15.524  18.572  0.00  0.00    +0.000 C 
ATOM     23  O   UNL     1       5.085  14.658  17.969  0.00  0.00    +0.000 OA
ENDBRANCH  16  23
ENDBRANCH  15  20
ENDBRANCH   1  15
BRANCH  10  24
ATOM     24  C   UNL     1       1.297  10.170  19.065  0.00  0.00    +0.000 C 
BRANCH  24  25
ATOM     25  C   UNL     1       1.612   8.623  19.355  0.00  0.00    +0.000 C 
ATOM     26  O   UNL     1       1.481   8.243  20.528  0.00  0.00    +0.000 OA
ATOM     27  N   UNL     1       2.089   7.748  18.402  0.00  0.00    +0.000 N 
ATOM     28  H   UNL     1       2.343   8.157  17.511  0.00  0.00    +0.000 HD
BRANCH  27  29
ATOM     29  C   UNL     1       2.864   6.531  18.848  0.00  0.00    +0.000 C 
ATOM     30  C   UNL     1       3.828   6.170  17.687  0.00  0.00    +0.000 C 
ATOM     31  C   UNL     1       3.936   4.655  17.623  0.00  0.00    +0.000 C 
ATOM     32  C   UNL     1       2.571   4.261  18.083  0.00  0.00    +0.000 A 
ATOM     33  C   UNL     1       2.012   2.999  17.913  0.00  0.00    +0.000 A 
ATOM     34  C   UNL     1       1.136   2.549  18.882  0.00  0.00    +0.000 A 
ATOM     35  C   UNL     1       0.936   3.331  20.031  0.00  0.00    +0.000 A 
ATOM     36  C   UNL     1       1.426   4.659  20.107  0.00  0.00    +0.000 A 
ATOM     37  C   UNL     1       2.135   5.193  19.037  0.00  0.00    +0.000 A 
ENDBRANCH  27  29
ENDBRANCH  24  25
ENDBRANCH  10  24
TORSDOF 8
ENDMDL
MODEL 9
REMARK VINA RESULT:      -8.0      2.446      5.575
REMARK  Name = 
REMARK  11 active torsions:
REMARK  status: ('A' for Active; 'I' for Inactive)
REMARK    1  A    between atoms: C_1  and  O_2
REMARK    2  A    between atoms: O_2  and  C_3
REMARK    3  A    between atoms: C_7  and  C_8
REMARK    4  A    between atoms: C_8  and  C_9
REMARK    5  A    between atoms: C_12  and  O_13
REMARK    6  A    between atoms: O_13  and  C_14
REMARK    7  A    between atoms: C_15  and  O_16
REMARK    8  A    between atoms: O_16  and  C_17
REMARK    9  A    between atoms: N_22  and  C_23
REMARK   10  A    between atoms: C_23  and  C_24
REMARK   11  A    between atoms: N_26  and  C_27
REMARK                            x       y       z     vdW  Elec       q    Type
REMARK                         _______ _______ _______ _____ _____    ______ ____
ROOT
ATOM      1  C   UNL     1       0.329  10.259  19.600  0.00  0.00    +0.000 C 
ATOM      2  C   UNL     1       0.378  11.781  19.664  0.00  0.00    +0.000 A 
ATOM      3  C   UNL     1       1.151  12.494  18.753  0.00  0.00    +0.000 A 
ATOM      4  C   UNL     1       1.276  13.884  18.839  0.00  0.00    +0.000 A 
ATOM      5  C   UNL     1       0.518  14.591  19.793  0.00  0.00    +0.000 A 
ATOM      6  C   UNL     1      -0.204  13.854  20.772  0.00  0.00    +0.000 A 
ATOM      7  C   UNL     1      -0.188  12.458  20.755  0.00  0.00    +0.000 A 
ATOM      8  C   UNL     1      -0.678  11.600  21.899  0.00  0.00    +0.000 C 
ATOM      9  C   UNL     1       0.071  10.192  21.990  0.00  0.00    +0.000 C 
ATOM     10  N   UNL     1       0.999   9.831  20.845  0.00  0.00    +0.000 NA
ENDROOT
BRANCH   4  11
ATOM     11  O   UNL     1       2.120  14.620  18.050  0.00  0.00    +0.000 OA
ATOM     12  C   UNL     1       3.510  14.432  18.275  0.00  0.00    +0.000 C 
ENDBRANCH   4  11
BRANCH   5  13
ATOM     13  O   UNL     1       0.671  15.959  19.763  0.00  0.00    +0.000 OA
ATOM     14  C   UNL     1      -0.374  16.761  19.240  0.00  0.00    +0.000 C 
ENDBRANCH   5  13
BRANCH   1  15
ATOM     15  C   UNL     1      -1.118   9.662  19.409  0.00  0.00    +0.000 C 
BRANCH  15  20
ATOM     16  C   UNL     1      -2.764  10.844  16.170  0.00  0.00    +0.000 A 
ATOM     17  C   UNL     1      -3.790  11.638  16.689  0.00  0.00    +0.000 A 
ATOM     18  C   UNL     1      -3.988  11.739  18.063  0.00  0.00    +0.000 A 
ATOM     19  C   UNL     1      -3.122  11.078  18.926  0.00  0.00    +0.000 A 
ATOM     20  C   UNL     1      -2.062  10.303  18.424  0.00  0.00    +0.000 A 
ATOM     21  C   UNL     1      -1.932  10.143  17.042  0.00  0.00    +0.000 A 
BRANCH  16  23
ATOM     22  C   UNL     1      -3.415   9.905  14.071  0.00  0.00    +0.000 C 
ATOM     23  O   UNL     1      -2.663  10.861  14.807  0.00  0.00    +0.000 OA
ENDBRANCH  16  23
ENDBRANCH  15  20
ENDBRANCH   1  15
BRANCH  10  24
ATOM     24  C   UNL     1       1.393   8.399  20.831  0.00  0.00    +0.000 C 
BRANCH  24  25
ATOM     25  C   UNL     1       2.075   7.741  19.535  0.00  0.00    +0.000 C 
ATOM     26  O   UNL     1       2.328   8.508  18.594  0.00  0.00    +0.000 OA
ATOM     27  N   UNL     1       2.306   6.389  19.396  0.00  0.00    +0.000 N 
ATOM     28  H   UNL     1       1.918   5.795  20.119  0.00  0.00    +0.000 HD
BRANCH  27  29
ATOM     29  C   UNL     1       2.412   5.804  18.008  0.00  0.00    +0.000 C 
ATOM     30  C   UNL     1       1.875   4.351  18.097  0.00  0.00    +0.000 C 
ATOM     31  C   UNL     1       2.701   3.488  17.156  0.00  0.00    +0.000 C 
ATOM     32  C   UNL     1       4.022   4.180  17.235  0.00  0.00    +0.000 A 
ATOM     33  C   UNL     1       5.229   3.630  16.820  0.00  0.00    +0.000 A 
ATOM     34  C   UNL     1       6.187   4.488  16.315  0.00  0.00    +0.000 A 
ATOM     35  C   UNL     1       5.861   5.843  16.147  0.00  0.00    +0.000 A 
ATOM     36  C   UNL     1       4.670   6.383  16.694  0.00  0.00    +0.000 A 
ATOM     37  C   UNL     1       3.797   5.556  17.392  0.00  0.00    +0.000 A 
ENDBRANCH  27  29
ENDBRANCH  24  25
ENDBRANCH  10  24
TORSDOF 8
ENDMDL
