MODEL 1
REMARK VINA RESULT:      -7.6      0.000      0.000
REMARK  Name = 
REMARK  6 active torsions:
REMARK  status: ('A' for Active; 'I' for Inactive)
REMARK    1  A    between atoms: C_1  and  C_2
REMARK    2  A    between atoms: C_2  and  C_3
REMARK    3  A    between atoms: C_3  and  C_4
REMARK    4  A    between atoms: C_3  and  N_5
REMARK    5  A    between atoms: C_7  and  C_8
REMARK    6  A    between atoms: N_10  and  C_11
REMARK                            x       y       z     vdW  Elec       q    Type
REMARK                         _______ _______ _______ _____ _____    ______ ____
ROOT
ATOM      1  N   UNL     1       7.000   6.189  16.908  0.00  0.00    +0.000 N 
ATOM      2  C   UNL     1       5.793   6.667  16.266  0.00  0.00    +0.000 C 
ATOM      3  C   UNL     1       4.902   5.432  16.242  0.00  0.00    +0.000 C 
ATOM      4  C   UNL     1       5.911   4.291  16.096  0.00  0.00    +0.000 C 
ATOM      5  C   UNL     1       7.112   4.807  16.842  0.00  0.00    +0.000 C 
ATOM      6  O   UNL     1       8.025   4.122  17.270  0.00  0.00    +0.000 OA
ENDROOT
BRANCH   3   7
ATOM      7  C   UNL     1       4.081   5.387  17.523  0.00  0.00    +0.000 C 
ATOM      8  O   UNL     1       3.813   6.404  18.159  0.00  0.00    +0.000 OA
ATOM      9  N   UNL     1       3.606   4.151  17.881  0.00  0.00    +0.000 N 
ATOM     10  H   UNL     1       3.746   3.363  17.264  0.00  0.00    +0.000 HD
BRANCH   9  11
ATOM     11  C   UNL     1       2.946   3.887  19.149  0.00  0.00    +0.000 C 
ATOM     12  C   UNL     1       3.460   2.638  19.870  0.00  0.00    +0.000 C 
ATOM     13  C   UNL     1       2.879   2.585  21.283  0.00  0.00    +0.000 C 
ATOM     14  C   UNL     1       1.351   2.693  21.303  0.00  0.00    +0.000 C 
ATOM     15  C   UNL     1       0.802   3.821  20.427  0.00  0.00    +0.000 C 
ATOM     16  C   UNL     1       1.419   3.811  19.032  0.00  0.00    +0.000 C 
ENDBRANCH   9  11
ENDBRANCH   3   7
BRANCH   1  17
ATOM     17  C   UNL     1       7.924   7.048  17.645  0.00  0.00    +0.000 C 
ATOM     18  C   UNL     1       8.063   6.568  19.093  0.00  0.00    +0.000 C 
BRANCH  17  20
ATOM     19  C   UNL     1       8.535   9.438  18.253  0.00  0.00    +0.000 C 
ATOM     20  C   UNL     1       7.514   8.525  17.588  0.00  0.00    +0.000 C 
ENDBRANCH  17  20
ENDBRANCH   1  17
TORSDOF 4
ENDMDL
MODEL 2
REMARK VINA RESULT:      -7.4      0.434      1.224
REMARK  Name = 
REMARK  6 active torsions:
REMARK  status: ('A' for Active; 'I' for Inactive)
REMARK    1  A    between atoms: C_1  and  C_2
REMARK    2  A    between atoms: C_2  and  C_3
REMARK    3  A    between atoms: C_3  and  C_4
REMARK    4  A    between atoms: C_3  and  N_5
REMARK    5  A    between atoms: C_7  and  C_8
REMARK    6  A    between atoms: N_10  and  C_11
REMARK                            x       y       z     vdW  Elec       q    Type
REMARK                         _______ _______ _______ _____ _____    ______ ____
ROOT
ATOM      1  N   UNL     1       6.906   6.083  16.806  0.00  0.00    +0.000 N 
ATOM      2  C   UNL     1       5.656   6.560  16.251  0.00  0.00    +0.000 C 
ATOM      3  C   UNL     1       4.846   5.283  16.076  0.00  0.00    +0.000 C 
ATOM      4  C   UNL     1       5.922   4.240  15.765  0.00  0.00    +0.000 C 
ATOM      5  C   UNL     1       7.104   4.732  16.556  0.00  0.00    +0.000 C 
ATOM      6  O   UNL     1       8.069   4.059  16.876  0.00  0.00    +0.000 OA
ENDROOT
BRANCH   3   7
ATOM      7  C   UNL     1       4.059   5.015  17.352  0.00  0.00    +0.000 C 
ATOM      8  O   UNL     1       3.932   5.868  18.228  0.00  0.00    +0.000 OA
ATOM      9  N   UNL     1       3.449   3.789  17.428  0.00  0.00    +0.000 N 
ATOM     10  H   UNL     1       3.476   3.167  16.633  0.00  0.00    +0.000 HD
BRANCH   9  11
ATOM     11  C   UNL     1       2.796   3.297  18.629  0.00  0.00    +0.000 C 
ATOM     12  C   UNL     1       1.455   3.973  18.931  0.00  0.00    +0.000 C 
ATOM     13  C   UNL     1       0.748   3.228  20.063  0.00  0.00    +0.000 C 
ATOM     14  C   UNL     1       1.623   3.068  21.309  0.00  0.00    +0.000 C 
ATOM     15  C   UNL     1       3.040   2.575  21.008  0.00  0.00    +0.000 C 
ATOM     16  C   UNL     1       3.689   3.365  19.875  0.00  0.00    +0.000 C 
ENDBRANCH   9  11
ENDBRANCH   3   7
BRANCH   1  17
ATOM     17  C   UNL     1       7.790   6.897  17.636  0.00  0.00    +0.000 C 
ATOM     18  C   UNL     1       7.803   6.377  19.077  0.00  0.00    +0.000 C 
BRANCH  17  20
ATOM     19  C   UNL     1       8.466   9.265  18.265  0.00  0.00    +0.000 C 
ATOM     20  C   UNL     1       7.422   8.387  17.589  0.00  0.00    +0.000 C 
ENDBRANCH  17  20
ENDBRANCH   1  17
TORSDOF 4
ENDMDL
MODEL 3
REMARK VINA RESULT:      -7.4      1.857      3.306
REMARK  Name = 
REMARK  6 active torsions:
REMARK  status: ('A' for Active; 'I' for Inactive)
REMARK    1  A    between atoms: C_1  and  C_2
REMARK    2  A    between atoms: C_2  and  C_3
REMARK    3  A    between atoms: C_3  and  C_4
REMARK    4  A    between atoms: C_3  and  N_5
REMARK    5  A    between atoms: C_7  and  C_8
REMARK    6  A    between atoms: N_10  and  C_11
REMARK                            x       y       z     vdW  Elec       q    Type
REMARK                         _______ _______ _______ _____ _____    ______ ____
ROOT
ATOM      1  N   UNL     1       7.219   5.732  16.493  0.00  0.00    +0.000 N 
ATOM      2  C   UNL     1       7.391   4.472  17.187  0.00  0.00    +0.000 C 
ATOM      3  C   UNL     1       7.240   4.861  18.652  0.00  0.00    +0.000 C 
ATOM      4  C   UNL     1       7.808   6.281  18.685  0.00  0.00    +0.000 C 
ATOM      5  C   UNL     1       7.444   6.820  17.327  0.00  0.00    +0.000 C 
ATOM      6  O   UNL     1       7.398   8.000  17.024  0.00  0.00    +0.000 OA
ENDROOT
BRANCH   3   7
ATOM      7  C   UNL     1       5.772   4.759  19.043  0.00  0.00    +0.000 C 
ATOM      8  O   UNL     1       5.257   5.540  19.840  0.00  0.00    +0.000 OA
ATOM      9  N   UNL     1       5.052   3.785  18.400  0.00  0.00    +0.000 N 
ATOM     10  H   UNL     1       5.484   3.247  17.663  0.00  0.00    +0.000 HD
BRANCH   9  11
ATOM     11  C   UNL     1       3.688   3.434  18.760  0.00  0.00    +0.000 C 
ATOM     12  C   UNL     1       3.405   1.929  18.735  0.00  0.00    +0.000 C 
ATOM     13  C   UNL     1       2.033   1.655  19.351  0.00  0.00    +0.000 C 
ATOM     14  C   UNL     1       0.915   2.477  18.704  0.00  0.00    +0.000 C 
ATOM     15  C   UNL     1       1.256   3.959  18.539  0.00  0.00    +0.000 C 
ATOM     16  C   UNL     1       2.633   4.161  17.914  0.00  0.00    +0.000 C 
ENDBRANCH   9  11
ENDBRANCH   3   7
BRANCH   1  17
ATOM     17  C   UNL     1       6.744   5.845  15.117  0.00  0.00    +0.000 C 
ATOM     18  C   UNL     1       5.216   5.946  15.083  0.00  0.00    +0.000 C 
BRANCH  17  20
ATOM     19  C   UNL     1       6.099   3.875  13.646  0.00  0.00    +0.000 C 
ATOM     20  C   UNL     1       7.242   4.691  14.235  0.00  0.00    +0.000 C 
ENDBRANCH  17  20
ENDBRANCH   1  17
TORSDOF 4
ENDMDL
MODEL 4
REMARK VINA RESULT:      -7.2      1.880      3.575
REMARK  Name = 
REMARK  6 active torsions:
REMARK  status: ('A' for Active; 'I' for Inactive)
REMARK    1  A    between atoms: C_1  and  C_2
REMARK    2  A    between atoms: C_2  and  C_3
REMARK    3  A    between atoms: C_3  and  C_4
REMARK    4  A    between atoms: C_3  and  N_5
REMARK    5  A    between atoms: C_7  and  C_8
REMARK    6  A    between atoms: N_10  and  C_11
REMARK                            x       y       z     vdW  Elec       q    Type
REMARK                         _______ _______ _______ _____ _____    ______ ____
ROOT
ATOM      1  N   UNL     1       6.763   5.450  16.056  0.00  0.00    +0.000 N 
ATOM      2  C   UNL     1       7.442   5.337  17.330  0.00  0.00    +0.000 C 
ATOM      3  C   UNL     1       6.457   5.969  18.304  0.00  0.00    +0.000 C 
ATOM      4  C   UNL     1       5.779   7.043  17.450  0.00  0.00    +0.000 C 
ATOM      5  C   UNL     1       5.777   6.427  16.076  0.00  0.00    +0.000 C 
ATOM      6  O   UNL     1       5.059   6.767  15.152  0.00  0.00    +0.000 OA
ENDROOT
BRANCH   3   7
ATOM      7  C   UNL     1       5.515   4.893  18.826  0.00  0.00    +0.000 C 
ATOM      8  O   UNL     1       5.912   3.766  19.117  0.00  0.00    +0.000 OA
ATOM      9  N   UNL     1       4.213   5.282  19.013  0.00  0.00    +0.000 N 
ATOM     10  H   UNL     1       3.956   6.249  18.880  0.00  0.00    +0.000 HD
BRANCH   9  11
ATOM     11  C   UNL     1       3.144   4.355  19.347  0.00  0.00    +0.000 C 
ATOM     12  C   UNL     1       2.122   4.152  18.224  0.00  0.00    +0.000 C 
ATOM     13  C   UNL     1       1.189   2.996  18.583  0.00  0.00    +0.000 C 
ATOM     14  C   UNL     1       0.532   3.164  19.956  0.00  0.00    +0.000 C 
ATOM     15  C   UNL     1       1.512   3.562  21.063  0.00  0.00    +0.000 C 
ATOM     16  C   UNL     1       2.407   4.723  20.641  0.00  0.00    +0.000 C 
ENDBRANCH   9  11
ENDBRANCH   3   7
BRANCH   1  17
ATOM     17  C   UNL     1       7.002   4.557  14.925  0.00  0.00    +0.000 C 
ATOM     18  C   UNL     1       7.658   5.318  13.769  0.00  0.00    +0.000 C 
BRANCH  17  20
ATOM     19  C   UNL     1       5.701   3.602  12.962  0.00  0.00    +0.000 C 
ATOM     20  C   UNL     1       5.720   3.849  14.464  0.00  0.00    +0.000 C 
ENDBRANCH  17  20
ENDBRANCH   1  17
TORSDOF 4
ENDMDL
MODEL 5
REMARK VINA RESULT:      -7.1      1.668      3.359
REMARK  Name = 
REMARK  6 active torsions:
REMARK  status: ('A' for Active; 'I' for Inactive)
REMARK    1  A    between atoms: C_1  and  C_2
REMARK    2  A    between atoms: C_2  and  C_3
REMARK    3  A    between atoms: C_3  and  C_4
REMARK    4  A    between atoms: C_3  and  N_5
REMARK    5  A    between atoms: C_7  and  C_8
REMARK    6  A    between atoms: N_10  and  C_11
REMARK                            x       y       z     vdW  Elec       q    Type
REMARK                         _______ _______ _______ _____ _____    ______ ____
ROOT
ATOM      1  N   UNL     1       7.148   5.688  16.542  0.00  0.00    +0.000 N 
ATOM      2  C   UNL     1       7.306   4.419  17.223  0.00  0.00    +0.000 C 
ATOM      3  C   UNL     1       7.116   4.787  18.688  0.00  0.00    +0.000 C 
ATOM      4  C   UNL     1       7.677   6.209  18.755  0.00  0.00    +0.000 C 
ATOM      5  C   UNL     1       7.346   6.764  17.396  0.00  0.00    +0.000 C 
ATOM      6  O   UNL     1       7.303   7.948  17.107  0.00  0.00    +0.000 OA
ENDROOT
BRANCH   3   7
ATOM      7  C   UNL     1       5.639   4.675  19.040  0.00  0.00    +0.000 C 
ATOM      8  O   UNL     1       5.067   5.523  19.722  0.00  0.00    +0.000 OA
ATOM      9  N   UNL     1       4.977   3.606  18.493  0.00  0.00    +0.000 N 
ATOM     10  H   UNL     1       5.455   3.003  17.839  0.00  0.00    +0.000 HD
BRANCH   9  11
ATOM     11  C   UNL     1       3.613   3.246  18.846  0.00  0.00    +0.000 C 
ATOM     12  C   UNL     1       2.550   4.164  18.236  0.00  0.00    +0.000 C 
ATOM     13  C   UNL     1       1.162   3.567  18.468  0.00  0.00    +0.000 C 
ATOM     14  C   UNL     1       0.891   3.244  19.941  0.00  0.00    +0.000 C 
ATOM     15  C   UNL     1       2.034   2.493  20.627  0.00  0.00    +0.000 C 
ATOM     16  C   UNL     1       3.387   3.145  20.360  0.00  0.00    +0.000 C 
ENDBRANCH   9  11
ENDBRANCH   3   7
BRANCH   1  17
ATOM     17  C   UNL     1       6.708   5.817  15.155  0.00  0.00    +0.000 C 
ATOM     18  C   UNL     1       5.184   5.956  15.086  0.00  0.00    +0.000 C 
BRANCH  17  20
ATOM     19  C   UNL     1       6.049   3.849  13.687  0.00  0.00    +0.000 C 
ATOM     20  C   UNL     1       7.198   4.655  14.281  0.00  0.00    +0.000 C 
ENDBRANCH  17  20
ENDBRANCH   1  17
TORSDOF 4
ENDMDL
MODEL 6
REMARK VINA RESULT:      -7.1      1.103      1.103
REMARK  Name = 
REMARK  6 active torsions:
REMARK  status: ('A' for Active; 'I' for Inactive)
REMARK    1  A    between atoms: C_1  and  C_2
REMARK    2  A    between atoms: C_2  and  C_3
REMARK    3  A    between atoms: C_3  and  C_4
REMARK    4  A    between atoms: C_3  and  N_5
REMARK    5  A    between atoms: C_7  and  C_8
REMARK    6  A    between atoms: N_10  and  C_11
REMARK                            x       y       z     vdW  Elec       q    Type
REMARK                         _______ _______ _______ _____ _____    ______ ____
ROOT
ATOM      1  N   UNL     1       6.663   5.739  16.816  0.00  0.00    +0.000 N 
ATOM      2  C   UNL     1       5.307   6.067  16.425  0.00  0.00    +0.000 C 
ATOM      3  C   UNL     1       4.742   4.725  15.979  0.00  0.00    +0.000 C 
ATOM      4  C   UNL     1       5.969   4.016  15.402  0.00  0.00    +0.000 C 
ATOM      5  C   UNL     1       7.093   4.546  16.252  0.00  0.00    +0.000 C 
ATOM      6  O   UNL     1       8.189   4.026  16.377  0.00  0.00    +0.000 OA
ENDROOT
BRANCH   3   7
ATOM      7  C   UNL     1       4.117   4.027  17.179  0.00  0.00    +0.000 C 
ATOM      8  O   UNL     1       4.018   2.803  17.241  0.00  0.00    +0.000 OA
ATOM      9  N   UNL     1       3.735   4.846  18.211  0.00  0.00    +0.000 N 
ATOM     10  H   UNL     1       3.947   5.833  18.171  0.00  0.00    +0.000 HD
BRANCH   9  11
ATOM     11  C   UNL     1       2.977   4.380  19.361  0.00  0.00    +0.000 C 
ATOM     12  C   UNL     1       3.582   3.153  20.048  0.00  0.00    +0.000 C 
ATOM     13  C   UNL     1       2.854   2.893  21.367  0.00  0.00    +0.000 C 
ATOM     14  C   UNL     1       1.335   2.788  21.198  0.00  0.00    +0.000 C 
ATOM     15  C   UNL     1       0.732   3.905  20.344  0.00  0.00    +0.000 C 
ATOM     16  C   UNL     1       1.502   4.106  19.043  0.00  0.00    +0.000 C 
ENDBRANCH   9  11
ENDBRANCH   3   7
BRANCH   1  17
ATOM     17  C   UNL     1       7.437   6.507  17.788  0.00  0.00    +0.000 C 
ATOM     18  C   UNL     1       7.263   5.924  19.194  0.00  0.00    +0.000 C 
BRANCH  17  20
ATOM     19  C   UNL     1       8.293   8.887  18.034  0.00  0.00    +0.000 C 
ATOM     20  C   UNL     1       7.085   8.000  17.760  0.00  0.00    +0.000 C 
ENDBRANCH  17  20
ENDBRANCH   1  17
TORSDOF 4
ENDMDL
MODEL 7
REMARK VINA RESULT:      -7.1      1.261      1.641
REMARK  Name = 
REMARK  6 active torsions:
REMARK  status: ('A' for Active; 'I' for Inactive)
REMARK    1  A    between atoms: C_1  and  C_2
REMARK    2  A    between atoms: C_2  and  C_3
REMARK    3  A    between atoms: C_3  and  C_4
REMARK    4  A    between atoms: C_3  and  N_5
REMARK    5  A    between atoms: C_7  and  C_8
REMARK    6  A    between atoms: N_10  and  C_11
REMARK                            x       y       z     vdW  Elec       q    Type
REMARK                         _______ _______ _______ _____ _____    ______ ____
ROOT
ATOM      1  N   UNL     1       6.724   6.250  17.243  0.00  0.00    +0.000 N 
ATOM      2  C   UNL     1       5.424   6.862  17.434  0.00  0.00    +0.000 C 
ATOM      3  C   UNL     1       4.529   6.070  16.490  0.00  0.00    +0.000 C 
ATOM      4  C   UNL     1       5.477   5.712  15.344  0.00  0.00    +0.000 C 
ATOM      5  C   UNL     1       6.803   5.560  16.042  0.00  0.00    +0.000 C 
ATOM      6  O   UNL     1       7.771   4.967  15.597  0.00  0.00    +0.000 OA
ENDROOT
BRANCH   3   7
ATOM      7  C   UNL     1       3.959   4.871  17.236  0.00  0.00    +0.000 C 
ATOM      8  O   UNL     1       3.952   3.744  16.745  0.00  0.00    +0.000 OA
ATOM      9  N   UNL     1       3.519   5.119  18.511  0.00  0.00    +0.000 N 
ATOM     10  H   UNL     1       3.658   6.032  18.920  0.00  0.00    +0.000 HD
BRANCH   9  11
ATOM     11  C   UNL     1       2.801   4.140  19.310  0.00  0.00    +0.000 C 
ATOM     12  C   UNL     1       1.378   3.859  18.819  0.00  0.00    +0.000 C 
ATOM     13  C   UNL     1       0.803   2.659  19.572  0.00  0.00    +0.000 C 
ATOM     14  C   UNL     1       0.882   2.817  21.093  0.00  0.00    +0.000 C 
ATOM     15  C   UNL     1       2.249   3.289  21.593  0.00  0.00    +0.000 C 
ATOM     16  C   UNL     1       2.760   4.491  20.804  0.00  0.00    +0.000 C 
ENDBRANCH   9  11
ENDBRANCH   3   7
BRANCH   1  17
ATOM     17  C   UNL     1       7.780   6.254  18.253  0.00  0.00    +0.000 C 
ATOM     18  C   UNL     1       7.330   5.493  19.504  0.00  0.00    +0.000 C 
BRANCH  17  20
ATOM     19  C   UNL     1       7.981   8.666  17.477  0.00  0.00    +0.000 C 
ATOM     20  C   UNL     1       8.240   7.676  18.605  0.00  0.00    +0.000 C 
ENDBRANCH  17  20
ENDBRANCH   1  17
TORSDOF 4
ENDMDL
MODEL 8
REMARK VINA RESULT:      -6.8      2.914      4.423
REMARK  Name = 
REMARK  6 active torsions:
REMARK  status: ('A' for Active; 'I' for Inactive)
REMARK    1  A    between atoms: C_1  and  C_2
REMARK    2  A    between atoms: C_2  and  C_3
REMARK    3  A    between atoms: C_3  and  C_4
REMARK    4  A    between atoms: C_3  and  N_5
REMARK    5  A    between atoms: C_7  and  C_8
REMARK    6  A    between atoms: N_10  and  C_11
REMARK                            x       y       z     vdW  Elec       q    Type
REMARK                         _______ _______ _______ _____ _____    ______ ____
ROOT
ATOM      1  N   UNL     1       5.426   4.470  17.578  0.00  0.00    +0.000 N 
ATOM      2  C   UNL     1       4.322   3.630  17.163  0.00  0.00    +0.000 C 
ATOM      3  C   UNL     1       3.426   3.603  18.394  0.00  0.00    +0.000 C 
ATOM      4  C   UNL     1       4.429   3.703  19.545  0.00  0.00    +0.000 C 
ATOM      5  C   UNL     1       5.526   4.552  18.961  0.00  0.00    +0.000 C 
ATOM      6  O   UNL     1       6.365   5.162  19.602  0.00  0.00    +0.000 OA
ENDROOT
BRANCH   3   7
ATOM      7  C   UNL     1       2.440   4.760  18.315  0.00  0.00    +0.000 C 
ATOM      8  O   UNL     1       1.424   4.703  17.626  0.00  0.00    +0.000 OA
ATOM      9  N   UNL     1       2.726   5.840  19.112  0.00  0.00    +0.000 N 
ATOM     10  H   UNL     1       3.504   5.795  19.755  0.00  0.00    +0.000 HD
BRANCH   9  11
ATOM     11  C   UNL     1       1.994   7.094  19.049  0.00  0.00    +0.000 C 
ATOM     12  C   UNL     1       2.555   8.091  18.031  0.00  0.00    +0.000 C 
ATOM     13  C   UNL     1       1.587   9.263  17.873  0.00  0.00    +0.000 C 
ATOM     14  C   UNL     1       1.225   9.921  19.208  0.00  0.00    +0.000 C 
ATOM     15  C   UNL     1       0.848   8.923  20.305  0.00  0.00    +0.000 C 
ATOM     16  C   UNL     1       1.858   7.785  20.412  0.00  0.00    +0.000 C 
ENDBRANCH   9  11
ENDBRANCH   3   7
BRANCH   1  17
ATOM     17  C   UNL     1       6.255   5.240  16.654  0.00  0.00    +0.000 C 
ATOM     18  C   UNL     1       5.417   6.306  15.941  0.00  0.00    +0.000 C 
BRANCH  17  20
ATOM     19  C   UNL     1       6.386   4.436  14.246  0.00  0.00    +0.000 C 
ATOM     20  C   UNL     1       6.984   4.342  15.644  0.00  0.00    +0.000 C 
ENDBRANCH  17  20
ENDBRANCH   1  17
TORSDOF 4
ENDMDL
MODEL 9
REMARK VINA RESULT:      -6.8      1.926      3.561
REMARK  Name = 
REMARK  6 active torsions:
REMARK  status: ('A' for Active; 'I' for Inactive)
REMARK    1  A    between atoms: C_1  and  C_2
REMARK    2  A    between atoms: C_2  and  C_3
REMARK    3  A    between atoms: C_3  and  C_4
REMARK    4  A    between atoms: C_3  and  N_5
REMARK    5  A    between atoms: C_7  and  C_8
REMARK    6  A    between atoms: N_10  and  C_11
REMARK                            x       y       z     vdW  Elec       q    Type
REMARK                         _______ _______ _______ _____ _____    ______ ____
ROOT
ATOM      1  N   UNL     1       6.700   5.259  16.040  0.00  0.00    +0.000 N 
ATOM      2  C   UNL     1       7.320   4.959  17.315  0.00  0.00    +0.000 C 
ATOM      3  C   UNL     1       6.481   5.758  18.304  0.00  0.00    +0.000 C 
ATOM      4  C   UNL     1       6.065   6.981  17.483  0.00  0.00    +0.000 C 
ATOM      5  C   UNL     1       5.949   6.426  16.089  0.00  0.00    +0.000 C 
ATOM      6  O   UNL     1       5.334   6.943  15.172  0.00  0.00    +0.000 OA
ENDROOT
BRANCH   3   7
ATOM      7  C   UNL     1       5.322   4.895  18.781  0.00  0.00    +0.000 C 
ATOM      8  O   UNL     1       5.488   3.744  19.179  0.00  0.00    +0.000 OA
ATOM      9  N   UNL     1       4.094   5.507  18.801  0.00  0.00    +0.000 N 
ATOM     10  H   UNL     1       4.022   6.491  18.584  0.00  0.00    +0.000 HD
BRANCH   9  11
ATOM     11  C   UNL     1       2.854   4.798  19.070  0.00  0.00    +0.000 C 
ATOM     12  C   UNL     1       2.667   4.404  20.538  0.00  0.00    +0.000 C 
ATOM     13  C   UNL     1       1.246   3.885  20.753  0.00  0.00    +0.000 C 
ATOM     14  C   UNL     1       0.870   2.758  19.786  0.00  0.00    +0.000 C 
ATOM     15  C   UNL     1       1.230   3.052  18.328  0.00  0.00    +0.000 C 
ATOM     16  C   UNL     1       2.661   3.560  18.185  0.00  0.00    +0.000 C 
ENDBRANCH   9  11
ENDBRANCH   3   7
BRANCH   1  17
ATOM     17  C   UNL     1       6.755   4.373  14.881  0.00  0.00    +0.000 C 
ATOM     18  C   UNL     1       7.572   5.013  13.754  0.00  0.00    +0.000 C 
BRANCH  17  20
ATOM     19  C   UNL     1       5.343   3.602  12.913  0.00  0.00    +0.000 C 
ATOM     20  C   UNL     1       5.357   3.971  14.391  0.00  0.00    +0.000 C 
ENDBRANCH  17  20
ENDBRANCH   1  17
TORSDOF 4
ENDMDL
