MODEL 1
REMARK VINA RESULT:      -8.0      0.000      0.000
REMARK  Name = 
REMARK  7 active torsions:
REMARK  status: ('A' for Active; 'I' for Inactive)
REMARK    1  A    between atoms: C_1  and  C_2
REMARK    2  A    between atoms: C_4  and  C_5
REMARK    3  A    between atoms: C_7  and  C_8
REMARK    4  A    between atoms: N_10  and  C_11
REMARK    5  A    between atoms: C_11  and  C_12
REMARK    6  A    between atoms: C_14  and  C_15
REMARK    7  A    between atoms: C_24  and  C_25
REMARK                            x       y       z     vdW  Elec       q    Type
REMARK                         _______ _______ _______ _____ _____    ______ ____
ROOT
ATOM      1  C   UNL     1      -0.657  11.003  18.636  0.00  0.00    +0.000 C 
ATOM      2  O   UNL     1       0.161  11.907  18.487  0.00  0.00    +0.000 OA
ATOM      3  N   UNL     1      -0.345   9.839  19.290  0.00  0.00    +0.000 N 
ATOM      4  H   UNL     1      -0.976   9.046  19.250  0.00  0.00    +0.000 HD
ENDROOT
BRANCH   1  11
ATOM      5  C   UNL     1      -7.039  13.471  19.756  0.00  0.00    +0.000 C 
ATOM      6  C   UNL     1      -5.721  12.877  19.362  0.00  0.00    +0.000 A 
ATOM      7  C   UNL     1      -4.639  12.929  20.221  0.00  0.00    +0.000 A 
ATOM      8  C   UNL     1      -3.380  12.405  19.862  0.00  0.00    +0.000 A 
ATOM      9  C   UNL     1      -2.334  12.579  20.926  0.00  0.00    +0.000 C 
ATOM     10  C   UNL     1      -3.183  11.737  18.590  0.00  0.00    +0.000 A 
ATOM     11  C   UNL     1      -2.016  11.111  18.012  0.00  0.00    +0.000 A 
ATOM     12  C   UNL     1      -2.053  10.575  16.709  0.00  0.00    +0.000 A 
ATOM     13  C   UNL     1      -3.230  10.633  15.994  0.00  0.00    +0.000 A 
ATOM     14  C   UNL     1      -3.352  10.102  14.599  0.00  0.00    +0.000 C 
ATOM     15  N   UNL     1      -4.344  11.180  16.510  0.00  0.00    +0.000 NA
ATOM     16  C   UNL     1      -4.320  11.712  17.740  0.00  0.00    +0.000 A 
ATOM     17  C   UNL     1      -5.533  12.271  18.125  0.00  0.00    +0.000 A 
ENDBRANCH   1  11
BRANCH   3  18
ATOM     18  C   UNL     1       0.895   9.649  20.024  0.00  0.00    +0.000 C 
BRANCH  18  19
ATOM     19  C   UNL     1       1.688   8.593  19.328  0.00  0.00    +0.000 A 
ATOM     20  N   UNL     1       1.994   7.395  19.788  0.00  0.00    +0.000 NA
ATOM     21  C   UNL     1       2.835   6.858  18.833  0.00  0.00    +0.000 A 
ATOM     22  N   UNL     1       3.013   7.672  17.774  0.00  0.00    +0.000 NA
ATOM     23  N   UNL     1       2.270   8.745  18.106  0.00  0.00    +0.000 N 
ATOM     24  H   UNL     1       2.232   9.533  17.469  0.00  0.00    +0.000 HD
BRANCH  21  25
ATOM     25  C   UNL     1       3.470   5.545  18.998  0.00  0.00    +0.000 A 
ATOM     26  C   UNL     1       4.837   5.422  19.220  0.00  0.00    +0.000 A 
ATOM     27  N   UNL     1       5.463   4.221  19.368  0.00  0.00    +0.000 NA
ATOM     28  C   UNL     1       4.658   3.140  19.285  0.00  0.00    +0.000 A 
ATOM     29  C   UNL     1       3.293   3.249  19.077  0.00  0.00    +0.000 A 
ATOM     30  N   UNL     1       2.672   4.441  18.932  0.00  0.00    +0.000 NA
ENDBRANCH  21  25
ENDBRANCH  18  19
ENDBRANCH   3  18
TORSDOF 4
ENDMDL
MODEL 2
REMARK VINA RESULT:      -7.9      0.921      1.510
REMARK  Name = 
REMARK  7 active torsions:
REMARK  status: ('A' for Active; 'I' for Inactive)
REMARK    1  A    between atoms: C_1  and  C_2
REMARK    2  A    between atoms: C_4  and  C_5
REMARK    3  A    between atoms: C_7  and  C_8
REMARK    4  A    between atoms: N_10  and  C_11
REMARK    5  A    between atoms: C_11  and  C_12
REMARK    6  A    between atoms: C_14  and  C_15
REMARK    7  A    between atoms: C_24  and  C_25
REMARK                            x       y       z     vdW  Elec       q    Type
REMARK                         _______ _______ _______ _____ _____    ______ ____
ROOT
ATOM      1  C   UNL     1      -0.493  11.128  18.690  0.00  0.00    +0.000 C 
ATOM      2  O   UNL     1       0.223  12.120  18.575  0.00  0.00    +0.000 OA
ATOM      3  N   UNL     1      -0.043   9.969  19.265  0.00  0.00    +0.000 N 
ATOM      4  H   UNL     1      -0.590   9.117  19.194  0.00  0.00    +0.000 HD
ENDROOT
BRANCH   1  11
ATOM      5  C   UNL     1      -6.973  13.272  19.912  0.00  0.00    +0.000 C 
ATOM      6  C   UNL     1      -5.635  12.738  19.501  0.00  0.00    +0.000 A 
ATOM      7  C   UNL     1      -4.533  12.891  20.321  0.00  0.00    +0.000 A 
ATOM      8  C   UNL     1      -3.255  12.425  19.943  0.00  0.00    +0.000 A 
ATOM      9  C   UNL     1      -2.190  12.707  20.963  0.00  0.00    +0.000 C 
ATOM     10  C   UNL     1      -3.059  11.713  18.696  0.00  0.00    +0.000 A 
ATOM     11  C   UNL     1      -1.874  11.129  18.107  0.00  0.00    +0.000 A 
ATOM     12  C   UNL     1      -1.919  10.533  16.831  0.00  0.00    +0.000 A 
ATOM     13  C   UNL     1      -3.119  10.490  16.153  0.00  0.00    +0.000 A 
ATOM     14  C   UNL     1      -3.251   9.890  14.788  0.00  0.00    +0.000 C 
ATOM     15  N   UNL     1      -4.248  10.995  16.682  0.00  0.00    +0.000 NA
ATOM     16  C   UNL     1      -4.217  11.582  17.886  0.00  0.00    +0.000 A 
ATOM     17  C   UNL     1      -5.450  12.087  18.286  0.00  0.00    +0.000 A 
ENDBRANCH   1  11
BRANCH   3  18
ATOM     18  C   UNL     1       1.232   9.867  19.956  0.00  0.00    +0.000 C 
BRANCH  18  19
ATOM     19  C   UNL     1       1.606   8.425  20.030  0.00  0.00    +0.000 A 
ATOM     20  N   UNL     1       2.165   7.698  19.081  0.00  0.00    +0.000 NA
ATOM     21  C   UNL     1       2.189   6.415  19.591  0.00  0.00    +0.000 A 
ATOM     22  N   UNL     1       1.709   6.341  20.849  0.00  0.00    +0.000 NA
ATOM     23  N   UNL     1       1.366   7.618  21.101  0.00  0.00    +0.000 N 
ATOM     24  H   UNL     1       0.960   7.849  22.002  0.00  0.00    +0.000 HD
BRANCH  21  25
ATOM     25  C   UNL     1       2.673   5.270  18.810  0.00  0.00    +0.000 A 
ATOM     26  C   UNL     1       1.851   4.610  17.904  0.00  0.00    +0.000 A 
ATOM     27  N   UNL     1       2.261   3.538  17.169  0.00  0.00    +0.000 NA
ATOM     28  C   UNL     1       3.539   3.154  17.378  0.00  0.00    +0.000 A 
ATOM     29  C   UNL     1       4.372   3.811  18.268  0.00  0.00    +0.000 A 
ATOM     30  N   UNL     1       3.965   4.875  18.996  0.00  0.00    +0.000 NA
ENDBRANCH  21  25
ENDBRANCH  18  19
ENDBRANCH   3  18
TORSDOF 4
ENDMDL
MODEL 3
REMARK VINA RESULT:      -7.8      5.546      9.392
REMARK  Name = 
REMARK  7 active torsions:
REMARK  status: ('A' for Active; 'I' for Inactive)
REMARK    1  A    between atoms: C_1  and  C_2
REMARK    2  A    between atoms: C_4  and  C_5
REMARK    3  A    between atoms: C_7  and  C_8
REMARK    4  A    between atoms: N_10  and  C_11
REMARK    5  A    between atoms: C_11  and  C_12
REMARK    6  A    between atoms: C_14  and  C_15
REMARK    7  A    between atoms: C_24  and  C_25
REMARK                            x       y       z     vdW  Elec       q    Type
REMARK                         _______ _______ _______ _____ _____    ______ ____
ROOT
ATOM      1  C   UNL     1       5.430   7.041  17.155  0.00  0.00    +0.000 C 
ATOM      2  O   UNL     1       5.567   6.666  15.993  0.00  0.00    +0.000 OA
ATOM      3  N   UNL     1       6.489   7.472  17.910  0.00  0.00    +0.000 N 
ATOM      4  H   UNL     1       6.382   7.612  18.909  0.00  0.00    +0.000 HD
ENDROOT
BRANCH   1  11
ATOM      5  C   UNL     1       1.630   2.985  21.300  0.00  0.00    +0.000 C 
ATOM      6  C   UNL     1       2.313   3.967  20.398  0.00  0.00    +0.000 A 
ATOM      7  C   UNL     1       3.587   3.721  19.924  0.00  0.00    +0.000 A 
ATOM      8  C   UNL     1       4.264   4.644  19.099  0.00  0.00    +0.000 A 
ATOM      9  C   UNL     1       5.644   4.198  18.708  0.00  0.00    +0.000 C 
ATOM     10  C   UNL     1       3.623   5.871  18.668  0.00  0.00    +0.000 A 
ATOM     11  C   UNL     1       4.090   6.945  17.821  0.00  0.00    +0.000 A 
ATOM     12  C   UNL     1       3.295   8.086  17.594  0.00  0.00    +0.000 A 
ATOM     13  C   UNL     1       2.046   8.158  18.173  0.00  0.00    +0.000 A 
ATOM     14  C   UNL     1       1.144   9.340  17.997  0.00  0.00    +0.000 C 
ATOM     15  N   UNL     1       1.565   7.165  18.941  0.00  0.00    +0.000 NA
ATOM     16  C   UNL     1       2.317   6.083  19.182  0.00  0.00    +0.000 A 
ATOM     17  C   UNL     1       1.703   5.158  20.020  0.00  0.00    +0.000 A 
ENDBRANCH   1  11
BRANCH   3  18
ATOM     18  C   UNL     1       7.814   7.707  17.359  0.00  0.00    +0.000 C 
BRANCH  18  19
ATOM     19  C   UNL     1       8.376   8.928  18.008  0.00  0.00    +0.000 A 
ATOM     20  N   UNL     1       8.459  10.138  17.490  0.00  0.00    +0.000 NA
ATOM     21  C   UNL     1       9.161  10.873  18.426  0.00  0.00    +0.000 A 
ATOM     22  N   UNL     1       9.466  10.161  19.529  0.00  0.00    +0.000 NA
ATOM     23  N   UNL     1       8.948   8.951  19.244  0.00  0.00    +0.000 N 
ATOM     24  H   UNL     1       9.045   8.203  19.922  0.00  0.00    +0.000 HD
BRANCH  21  25
ATOM     25  C   UNL     1       9.539  12.272  18.200  0.00  0.00    +0.000 A 
ATOM     26  C   UNL     1       8.809  13.319  18.753  0.00  0.00    +0.000 A 
ATOM     27  N   UNL     1       9.122  14.631  18.558  0.00  0.00    +0.000 NA
ATOM     28  C   UNL     1      10.206  14.853  17.782  0.00  0.00    +0.000 A 
ATOM     29  C   UNL     1      10.949  13.819  17.236  0.00  0.00    +0.000 A 
ATOM     30  N   UNL     1      10.638  12.518  17.432  0.00  0.00    +0.000 NA
ENDBRANCH  21  25
ENDBRANCH  18  19
ENDBRANCH   3  18
TORSDOF 4
ENDMDL
MODEL 4
REMARK VINA RESULT:      -7.8      3.515     10.138
REMARK  Name = 
REMARK  7 active torsions:
REMARK  status: ('A' for Active; 'I' for Inactive)
REMARK    1  A    between atoms: C_1  and  C_2
REMARK    2  A    between atoms: C_4  and  C_5
REMARK    3  A    between atoms: C_7  and  C_8
REMARK    4  A    between atoms: N_10  and  C_11
REMARK    5  A    between atoms: C_11  and  C_12
REMARK    6  A    between atoms: C_14  and  C_15
REMARK    7  A    between atoms: C_24  and  C_25
REMARK                            x       y       z     vdW  Elec       q    Type
REMARK                         _______ _______ _______ _____ _____    ______ ____
ROOT
ATOM      1  C   UNL     1       4.318   5.494  19.079  0.00  0.00    +0.000 C 
ATOM      2  O   UNL     1       4.374   4.478  19.768  0.00  0.00    +0.000 OA
ATOM      3  N   UNL     1       3.266   6.370  19.158  0.00  0.00    +0.000 N 
ATOM      4  H   UNL     1       3.157   7.102  18.464  0.00  0.00    +0.000 HD
ENDROOT
BRANCH   1  11
ATOM      5  C   UNL     1       6.433   3.545  12.770  0.00  0.00    +0.000 C 
ATOM      6  C   UNL     1       6.114   4.074  14.135  0.00  0.00    +0.000 A 
ATOM      7  C   UNL     1       5.048   3.568  14.855  0.00  0.00    +0.000 A 
ATOM      8  C   UNL     1       4.707   4.070  16.129  0.00  0.00    +0.000 A 
ATOM      9  C   UNL     1       3.507   3.399  16.734  0.00  0.00    +0.000 C 
ATOM     10  C   UNL     1       5.500   5.106  16.760  0.00  0.00    +0.000 A 
ATOM     11  C   UNL     1       5.370   5.758  18.044  0.00  0.00    +0.000 A 
ATOM     12  C   UNL     1       6.240   6.801  18.417  0.00  0.00    +0.000 A 
ATOM     13  C   UNL     1       7.241   7.182  17.549  0.00  0.00    +0.000 A 
ATOM     14  C   UNL     1       8.198   8.290  17.860  0.00  0.00    +0.000 C 
ATOM     15  N   UNL     1       7.413   6.578  16.360  0.00  0.00    +0.000 NA
ATOM     16  C   UNL     1       6.581   5.597  15.982  0.00  0.00    +0.000 A 
ATOM     17  C   UNL     1       6.859   5.093  14.716  0.00  0.00    +0.000 A 
ENDBRANCH   1  11
BRANCH   3  18
ATOM     18  C   UNL     1       2.238   6.285  20.182  0.00  0.00    +0.000 C 
BRANCH  18  19
ATOM     19  C   UNL     1       1.697   7.657  20.409  0.00  0.00    +0.000 A 
ATOM     20  N   UNL     1       1.278   8.510  19.493  0.00  0.00    +0.000 NA
ATOM     21  C   UNL     1       0.999   9.667  20.193  0.00  0.00    +0.000 A 
ATOM     22  N   UNL     1       1.184   9.534  21.522  0.00  0.00    +0.000 NA
ATOM     23  N   UNL     1       1.607   8.260  21.628  0.00  0.00    +0.000 N 
ATOM     24  H   UNL     1       1.831   7.891  22.546  0.00  0.00    +0.000 HD
BRANCH  21  25
ATOM     25  C   UNL     1       0.570  10.902  19.526  0.00  0.00    +0.000 A 
ATOM     26  C   UNL     1      -0.743  11.081  19.107  0.00  0.00    +0.000 A 
ATOM     27  N   UNL     1      -1.176  12.208  18.475  0.00  0.00    +0.000 NA
ATOM     28  C   UNL     1      -0.234  13.157  18.282  0.00  0.00    +0.000 A 
ATOM     29  C   UNL     1       1.074  12.996  18.707  0.00  0.00    +0.000 A 
ATOM     30  N   UNL     1       1.503  11.877  19.335  0.00  0.00    +0.000 NA
ENDBRANCH  21  25
ENDBRANCH  18  19
ENDBRANCH   3  18
TORSDOF 4
ENDMDL
MODEL 5
REMARK VINA RESULT:      -7.8      1.490      2.085
REMARK  Name = 
REMARK  7 active torsions:
REMARK  status: ('A' for Active; 'I' for Inactive)
REMARK    1  A    between atoms: C_1  and  C_2
REMARK    2  A    between atoms: C_4  and  C_5
REMARK    3  A    between atoms: C_7  and  C_8
REMARK    4  A    between atoms: N_10  and  C_11
REMARK    5  A    between atoms: C_11  and  C_12
REMARK    6  A    between atoms: C_14  and  C_15
REMARK    7  A    between atoms: C_24  and  C_25
REMARK                            x       y       z     vdW  Elec       q    Type
REMARK                         _______ _______ _______ _____ _____    ______ ____
ROOT
ATOM      1  C   UNL     1       0.246  10.278  19.796  0.00  0.00    +0.000 C 
ATOM      2  O   UNL     1       1.296  10.830  19.477  0.00  0.00    +0.000 OA
ATOM      3  N   UNL     1       0.227   9.080  20.463  0.00  0.00    +0.000 N 
ATOM      4  H   UNL     1      -0.640   8.564  20.562  0.00  0.00    +0.000 HD
ENDROOT
BRANCH   1  11
ATOM      5  C   UNL     1      -5.041  14.136  22.081  0.00  0.00    +0.000 C 
ATOM      6  C   UNL     1      -3.987  13.290  21.437  0.00  0.00    +0.000 A 
ATOM      7  C   UNL     1      -2.873  12.888  22.150  0.00  0.00    +0.000 A 
ATOM      8  C   UNL     1      -1.850  12.117  21.558  0.00  0.00    +0.000 A 
ATOM      9  C   UNL     1      -0.719  11.802  22.495  0.00  0.00    +0.000 C 
ATOM     10  C   UNL     1      -1.955  11.666  20.184  0.00  0.00    +0.000 A 
ATOM     11  C   UNL     1      -1.068  10.862  19.373  0.00  0.00    +0.000 A 
ATOM     12  C   UNL     1      -1.360  10.605  18.019  0.00  0.00    +0.000 A 
ATOM     13  C   UNL     1      -2.522  11.110  17.476  0.00  0.00    +0.000 A 
ATOM     14  C   UNL     1      -2.900  10.897  16.043  0.00  0.00    +0.000 C 
ATOM     15  N   UNL     1      -3.387  11.835  18.207  0.00  0.00    +0.000 NA
ATOM     16  C   UNL     1      -3.114  12.105  19.491  0.00  0.00    +0.000 A 
ATOM     17  C   UNL     1      -4.080  12.892  20.108  0.00  0.00    +0.000 A 
ENDBRANCH   1  11
BRANCH   3  18
ATOM     18  C   UNL     1       1.420   8.460  21.017  0.00  0.00    +0.000 C 
BRANCH  18  19
ATOM     19  C   UNL     1       1.916   7.452  20.035  0.00  0.00    +0.000 A 
ATOM     20  N   UNL     1       1.954   6.142  20.191  0.00  0.00    +0.000 NA
ATOM     21  C   UNL     1       2.608   5.675  19.067  0.00  0.00    +0.000 A 
ATOM     22  N   UNL     1       2.925   6.657  18.199  0.00  0.00    +0.000 NA
ATOM     23  N   UNL     1       2.467   7.756  18.827  0.00  0.00    +0.000 N 
ATOM     24  H   UNL     1       2.585   8.661  18.384  0.00  0.00    +0.000 HD
BRANCH  21  25
ATOM     25  C   UNL     1       2.926   4.255  18.880  0.00  0.00    +0.000 A 
ATOM     26  C   UNL     1       2.320   3.501  17.881  0.00  0.00    +0.000 A 
ATOM     27  N   UNL     1       2.582   2.178  17.683  0.00  0.00    +0.000 NA
ATOM     28  C   UNL     1       3.485   1.639  18.531  0.00  0.00    +0.000 A 
ATOM     29  C   UNL     1       4.106   2.382  19.521  0.00  0.00    +0.000 A 
ATOM     30  N   UNL     1       3.846   3.695  19.716  0.00  0.00    +0.000 NA
ENDBRANCH  21  25
ENDBRANCH  18  19
ENDBRANCH   3  18
TORSDOF 4
ENDMDL
MODEL 6
REMARK VINA RESULT:      -7.8      2.065      9.539
REMARK  Name = 
REMARK  7 active torsions:
REMARK  status: ('A' for Active; 'I' for Inactive)
REMARK    1  A    between atoms: C_1  and  C_2
REMARK    2  A    between atoms: C_4  and  C_5
REMARK    3  A    between atoms: C_7  and  C_8
REMARK    4  A    between atoms: N_10  and  C_11
REMARK    5  A    between atoms: C_11  and  C_12
REMARK    6  A    between atoms: C_14  and  C_15
REMARK    7  A    between atoms: C_24  and  C_25
REMARK                            x       y       z     vdW  Elec       q    Type
REMARK                         _______ _______ _______ _____ _____    ______ ____
ROOT
ATOM      1  C   UNL     1       1.796   7.729  20.188  0.00  0.00    +0.000 C 
ATOM      2  O   UNL     1       1.942   8.110  21.346  0.00  0.00    +0.000 OA
ATOM      3  N   UNL     1       1.219   8.520  19.228  0.00  0.00    +0.000 N 
ATOM      4  H   UNL     1       0.954   8.126  18.332  0.00  0.00    +0.000 HD
ENDROOT
BRANCH   1  11
ATOM      5  C   UNL     1       5.531   4.070  15.634  0.00  0.00    +0.000 C 
ATOM      6  C   UNL     1       4.673   4.707  16.685  0.00  0.00    +0.000 A 
ATOM      7  C   UNL     1       4.523   6.080  16.735  0.00  0.00    +0.000 A 
ATOM      8  C   UNL     1       3.747   6.706  17.732  0.00  0.00    +0.000 A 
ATOM      9  C   UNL     1       3.728   8.204  17.622  0.00  0.00    +0.000 C 
ATOM     10  C   UNL     1       3.026   5.926  18.718  0.00  0.00    +0.000 A 
ATOM     11  C   UNL     1       2.163   6.326  19.807  0.00  0.00    +0.000 A 
ATOM     12  C   UNL     1       1.619   5.370  20.687  0.00  0.00    +0.000 A 
ATOM     13  C   UNL     1       1.899   4.036  20.485  0.00  0.00    +0.000 A 
ATOM     14  C   UNL     1       1.374   2.957  21.381  0.00  0.00    +0.000 C 
ATOM     15  N   UNL     1       2.671   3.623  19.464  0.00  0.00    +0.000 NA
ATOM     16  C   UNL     1       3.213   4.521  18.631  0.00  0.00    +0.000 A 
ATOM     17  C   UNL     1       4.015   3.951  17.648  0.00  0.00    +0.000 A 
ENDBRANCH   1  11
BRANCH   3  18
ATOM     18  C   UNL     1       0.913   9.925  19.437  0.00  0.00    +0.000 C 
BRANCH  18  19
ATOM     19  C   UNL     1      -0.318  10.252  18.659  0.00  0.00    +0.000 A 
ATOM     20  N   UNL     1      -1.336  10.993  19.054  0.00  0.00    +0.000 NA
ATOM     21  C   UNL     1      -2.263  10.886  18.035  0.00  0.00    +0.000 A 
ATOM     22  N   UNL     1      -1.821  10.143  17.000  0.00  0.00    +0.000 NA
ATOM     23  N   UNL     1      -0.594   9.773  17.415  0.00  0.00    +0.000 N 
ATOM     24  H   UNL     1      -0.029   9.185  16.811  0.00  0.00    +0.000 HD
BRANCH  21  25
ATOM     25  C   UNL     1      -3.588  11.510  18.113  0.00  0.00    +0.000 A 
ATOM     26  C   UNL     1      -4.431  11.566  17.009  0.00  0.00    +0.000 A 
ATOM     27  N   UNL     1      -5.664  12.145  17.040  0.00  0.00    +0.000 NA
ATOM     28  C   UNL     1      -6.022  12.669  18.233  0.00  0.00    +0.000 A 
ATOM     29  C   UNL     1      -5.197  12.609  19.344  0.00  0.00    +0.000 A 
ATOM     30  N   UNL     1      -3.975  12.032  19.312  0.00  0.00    +0.000 NA
ENDBRANCH  21  25
ENDBRANCH  18  19
ENDBRANCH   3  18
TORSDOF 4
ENDMDL
MODEL 7
REMARK VINA RESULT:      -7.8      5.469      9.484
REMARK  Name = 
REMARK  7 active torsions:
REMARK  status: ('A' for Active; 'I' for Inactive)
REMARK    1  A    between atoms: C_1  and  C_2
REMARK    2  A    between atoms: C_4  and  C_5
REMARK    3  A    between atoms: C_7  and  C_8
REMARK    4  A    between atoms: N_10  and  C_11
REMARK    5  A    between atoms: C_11  and  C_12
REMARK    6  A    between atoms: C_14  and  C_15
REMARK    7  A    between atoms: C_24  and  C_25
REMARK                            x       y       z     vdW  Elec       q    Type
REMARK                         _______ _______ _______ _____ _____    ______ ____
ROOT
ATOM      1  C   UNL     1       5.555   6.931  16.763  0.00  0.00    +0.000 C 
ATOM      2  O   UNL     1       5.764   6.715  15.571  0.00  0.00    +0.000 OA
ATOM      3  N   UNL     1       6.563   7.263  17.630  0.00  0.00    +0.000 N 
ATOM      4  H   UNL     1       6.396   7.267  18.631  0.00  0.00    +0.000 HD
ENDROOT
BRANCH   1  11
ATOM      5  C   UNL     1       1.060   2.043  18.757  0.00  0.00    +0.000 C 
ATOM      6  C   UNL     1       1.908   3.215  18.367  0.00  0.00    +0.000 A 
ATOM      7  C   UNL     1       3.165   3.027  17.825  0.00  0.00    +0.000 A 
ATOM      8  C   UNL     1       3.995   4.114  17.479  0.00  0.00    +0.000 A 
ATOM      9  C   UNL     1       5.327   3.696  16.925  0.00  0.00    +0.000 C 
ATOM     10  C   UNL     1       3.537   5.481  17.628  0.00  0.00    +0.000 A 
ATOM     11  C   UNL     1       4.180   6.741  17.329  0.00  0.00    +0.000 A 
ATOM     12  C   UNL     1       3.547   7.964  17.627  0.00  0.00    +0.000 A 
ATOM     13  C   UNL     1       2.288   7.949  18.187  0.00  0.00    +0.000 A 
ATOM     14  C   UNL     1       1.552   9.202  18.547  0.00  0.00    +0.000 C 
ATOM     15  N   UNL     1       1.646   6.798  18.450  0.00  0.00    +0.000 NA
ATOM     16  C   UNL     1       2.242   5.626  18.192  0.00  0.00    +0.000 A 
ATOM     17  C   UNL     1       1.473   4.523  18.548  0.00  0.00    +0.000 A 
ENDBRANCH   1  11
BRANCH   3  18
ATOM     18  C   UNL     1       7.914   7.576  17.195  0.00  0.00    +0.000 C 
BRANCH  18  19
ATOM     19  C   UNL     1       8.356   8.811  17.906  0.00  0.00    +0.000 A 
ATOM     20  N   UNL     1       8.395  10.038  17.421  0.00  0.00    +0.000 NA
ATOM     21  C   UNL     1       8.989  10.789  18.416  0.00  0.00    +0.000 A 
ATOM     22  N   UNL     1       9.267  10.069  19.521  0.00  0.00    +0.000 NA
ATOM     23  N   UNL     1       8.846   8.837  19.177  0.00  0.00    +0.000 N 
ATOM     24  H   UNL     1       8.947   8.079  19.843  0.00  0.00    +0.000 HD
BRANCH  21  25
ATOM     25  C   UNL     1       9.290  12.215  18.247  0.00  0.00    +0.000 A 
ATOM     26  C   UNL     1      10.576  12.655  17.951  0.00  0.00    +0.000 A 
ATOM     27  N   UNL     1      10.896  13.970  17.797  0.00  0.00    +0.000 NA
ATOM     28  C   UNL     1       9.868  14.833  17.949  0.00  0.00    +0.000 A 
ATOM     29  C   UNL     1       8.581  14.407  18.230  0.00  0.00    +0.000 A 
ATOM     30  N   UNL     1       8.263  13.101  18.382  0.00  0.00    +0.000 NA
ENDBRANCH  21  25
ENDBRANCH  18  19
ENDBRANCH   3  18
TORSDOF 4
ENDMDL
MODEL 8
REMARK VINA RESULT:      -7.8      3.688     10.195
REMARK  Name = 
REMARK  7 active torsions:
REMARK  status: ('A' for Active; 'I' for Inactive)
REMARK    1  A    between atoms: C_1  and  C_2
REMARK    2  A    between atoms: C_4  and  C_5
REMARK    3  A    between atoms: C_7  and  C_8
REMARK    4  A    between atoms: N_10  and  C_11
REMARK    5  A    between atoms: C_11  and  C_12
REMARK    6  A    between atoms: C_14  and  C_15
REMARK    7  A    between atoms: C_24  and  C_25
REMARK                            x       y       z     vdW  Elec       q    Type
REMARK                         _______ _______ _______ _____ _____    ______ ____
ROOT
ATOM      1  C   UNL     1       4.298   5.652  19.007  0.00  0.00    +0.000 C 
ATOM      2  O   UNL     1       4.332   4.689  19.770  0.00  0.00    +0.000 OA
ATOM      3  N   UNL     1       3.249   6.534  18.995  0.00  0.00    +0.000 N 
ATOM      4  H   UNL     1       3.161   7.214  18.247  0.00  0.00    +0.000 HD
ENDROOT
BRANCH   1  11
ATOM      5  C   UNL     1       6.445   3.408  12.808  0.00  0.00    +0.000 C 
ATOM      6  C   UNL     1       6.123   3.995  14.148  0.00  0.00    +0.000 A 
ATOM      7  C   UNL     1       5.024   3.557  14.864  0.00  0.00    +0.000 A 
ATOM      8  C   UNL     1       4.681   4.115  16.114  0.00  0.00    +0.000 A 
ATOM      9  C   UNL     1       3.444   3.514  16.718  0.00  0.00    +0.000 C 
ATOM     10  C   UNL     1       5.505   5.138  16.726  0.00  0.00    +0.000 A 
ATOM     11  C   UNL     1       5.379   5.838  17.985  0.00  0.00    +0.000 A 
ATOM     12  C   UNL     1       6.285   6.857  18.340  0.00  0.00    +0.000 A 
ATOM     13  C   UNL     1       7.316   7.167  17.480  0.00  0.00    +0.000 A 
ATOM     14  C   UNL     1       8.312   8.245  17.773  0.00  0.00    +0.000 C 
ATOM     15  N   UNL     1       7.484   6.517  16.315  0.00  0.00    +0.000 NA
ATOM     16  C   UNL     1       6.619   5.559  15.954  0.00  0.00    +0.000 A 
ATOM     17  C   UNL     1       6.899   5.002  14.711  0.00  0.00    +0.000 A 
ENDBRANCH   1  11
BRANCH   3  18
ATOM     18  C   UNL     1       2.193   6.526  19.994  0.00  0.00    +0.000 C 
BRANCH  18  19
ATOM     19  C   UNL     1       1.603   7.895  20.056  0.00  0.00    +0.000 A 
ATOM     20  N   UNL     1       0.897   8.414  21.043  0.00  0.00    +0.000 NA
ATOM     21  C   UNL     1       0.481   9.642  20.567  0.00  0.00    +0.000 A 
ATOM     22  N   UNL     1       0.956   9.916  19.335  0.00  0.00    +0.000 NA
ATOM     23  N   UNL     1       1.667   8.809  19.048  0.00  0.00    +0.000 N 
ATOM     24  H   UNL     1       2.138   8.747  18.152  0.00  0.00    +0.000 HD
BRANCH  21  25
ATOM     25  C   UNL     1      -0.403  10.522  21.339  0.00  0.00    +0.000 A 
ATOM     26  C   UNL     1      -0.505  10.417  22.722  0.00  0.00    +0.000 A 
ATOM     27  N   UNL     1      -1.322  11.208  23.472  0.00  0.00    +0.000 NA
ATOM     28  C   UNL     1      -2.037  12.119  22.775  0.00  0.00    +0.000 A 
ATOM     29  C   UNL     1      -1.935  12.243  21.400  0.00  0.00    +0.000 A 
ATOM     30  N   UNL     1      -1.123  11.458  20.657  0.00  0.00    +0.000 NA
ENDBRANCH  21  25
ENDBRANCH  18  19
ENDBRANCH   3  18
TORSDOF 4
ENDMDL
MODEL 9
REMARK VINA RESULT:      -7.7      0.898      1.144
REMARK  Name = 
REMARK  7 active torsions:
REMARK  status: ('A' for Active; 'I' for Inactive)
REMARK    1  A    between atoms: C_1  and  C_2
REMARK    2  A    between atoms: C_4  and  C_5
REMARK    3  A    between atoms: C_7  and  C_8
REMARK    4  A    between atoms: N_10  and  C_11
REMARK    5  A    between atoms: C_11  and  C_12
REMARK    6  A    between atoms: C_14  and  C_15
REMARK    7  A    between atoms: C_24  and  C_25
REMARK                            x       y       z     vdW  Elec       q    Type
REMARK                         _______ _______ _______ _____ _____    ______ ____
ROOT
ATOM      1  C   UNL     1      -0.748  11.309  18.480  0.00  0.00    +0.000 C 
ATOM      2  O   UNL     1      -0.174  12.386  18.625  0.00  0.00    +0.000 OA
ATOM      3  N   UNL     1      -0.135  10.115  18.756  0.00  0.00    +0.000 N 
ATOM      4  H   UNL     1      -0.563   9.241  18.469  0.00  0.00    +0.000 HD
ENDROOT
BRANCH   1  11
ATOM      5  C   UNL     1      -7.338  12.994  19.825  0.00  0.00    +0.000 C 
ATOM      6  C   UNL     1      -5.972  12.565  19.383  0.00  0.00    +0.000 A 
ATOM      7  C   UNL     1      -4.879  12.730  20.212  0.00  0.00    +0.000 A 
ATOM      8  C   UNL     1      -3.578  12.363  19.808  0.00  0.00    +0.000 A 
ATOM      9  C   UNL     1      -2.528  12.640  20.846  0.00  0.00    +0.000 C 
ATOM     10  C   UNL     1      -3.343  11.743  18.519  0.00  0.00    +0.000 A 
ATOM     11  C   UNL     1      -2.128  11.267  17.896  0.00  0.00    +0.000 A 
ATOM     12  C   UNL     1      -2.141  10.752  16.585  0.00  0.00    +0.000 A 
ATOM     13  C   UNL     1      -3.337  10.683  15.903  0.00  0.00    +0.000 A 
ATOM     14  C   UNL     1      -3.438  10.165  14.503  0.00  0.00    +0.000 C 
ATOM     15  N   UNL     1      -4.492  11.088  16.461  0.00  0.00    +0.000 NA
ATOM     16  C   UNL     1      -4.493  11.599  17.700  0.00  0.00    +0.000 A 
ATOM     17  C   UNL     1      -5.752  12.005  18.130  0.00  0.00    +0.000 A 
ENDBRANCH   1  11
BRANCH   3  18
ATOM     18  C   UNL     1       1.156  10.019  19.418  0.00  0.00    +0.000 C 
BRANCH  18  19
ATOM     19  C   UNL     1       1.734   8.677  19.115  0.00  0.00    +0.000 A 
ATOM     20  N   UNL     1       1.665   7.593  19.863  0.00  0.00    +0.000 NA
ATOM     21  C   UNL     1       2.454   6.666  19.210  0.00  0.00    +0.000 A 
ATOM     22  N   UNL     1       2.964   7.133  18.053  0.00  0.00    +0.000 NA
ATOM     23  N   UNL     1       2.484   8.391  18.014  0.00  0.00    +0.000 N 
ATOM     24  H   UNL     1       2.727   8.985  17.229  0.00  0.00    +0.000 HD
BRANCH  21  25
ATOM     25  C   UNL     1       2.707   5.329  19.759  0.00  0.00    +0.000 A 
ATOM     26  C   UNL     1       2.046   4.872  20.894  0.00  0.00    +0.000 A 
ATOM     27  N   UNL     1       2.262   3.642  21.438  0.00  0.00    +0.000 NA
ATOM     28  C   UNL     1       3.173   2.880  20.792  0.00  0.00    +0.000 A 
ATOM     29  C   UNL     1       3.828   3.318  19.654  0.00  0.00    +0.000 A 
ATOM     30  N   UNL     1       3.612   4.539  19.113  0.00  0.00    +0.000 NA
ENDBRANCH  21  25
ENDBRANCH  18  19
ENDBRANCH   3  18
TORSDOF 4
ENDMDL
