MODEL 1
REMARK VINA RESULT:      -6.8      0.000      0.000
REMARK  Name = 
REMARK  3 active torsions:
REMARK  status: ('A' for Active; 'I' for Inactive)
REMARK    1  A    between atoms: C_7  and  N_8
REMARK    2  A    between atoms: N_11  and  C_12
REMARK    3  A    between atoms: C_12  and  C_13
REMARK                            x       y       z     vdW  Elec       q    Type
REMARK                         _______ _______ _______ _____ _____    ______ ____
ROOT
ATOM      1  N   UNL     1       4.427   4.547  18.173  0.00  0.00    +0.000 N 
ATOM      2  C   UNL     1       4.233   4.463  16.716  0.00  0.00    +0.000 C 
ATOM      3  C   UNL     1       4.959   5.630  15.998  0.00  0.00    +0.000 C 
ATOM      4  N   UNL     1       6.382   5.836  16.373  0.00  0.00    +0.000 NA
ATOM      5  C   UNL     1       6.434   5.940  17.854  0.00  0.00    +0.000 C 
ATOM      6  C   UNL     1       5.822   4.742  18.609  0.00  0.00    +0.000 C 
ENDROOT
BRANCH   1  13
ATOM      7 CL   UNL     1       3.558   1.439  18.463  0.00  0.00    +0.000 Cl
ATOM      8  C   UNL     1       2.924   2.848  19.253  0.00  0.00    +0.000 A 
ATOM      9  C   UNL     1       1.872   2.595  20.152  0.00  0.00    +0.000 A 
ATOM     10  C   UNL     1       1.331   3.612  20.927  0.00  0.00    +0.000 A 
ATOM     11  C   UNL     1       1.842   4.896  20.808  0.00  0.00    +0.000 A 
ATOM     12  C   UNL     1       2.871   5.155  19.898  0.00  0.00    +0.000 A 
ATOM     13  C   UNL     1       3.453   4.156  19.087  0.00  0.00    +0.000 A 
ENDBRANCH   1  13
BRANCH   4  14
ATOM     14  C   UNL     1       7.204   4.726  15.850  0.00  0.00    +0.000 C 
BRANCH  14  15
ATOM     15  C   UNL     1       7.006   4.482  14.378  0.00  0.00    +0.000 A 
ATOM     16  C   UNL     1       6.123   3.619  13.759  0.00  0.00    +0.000 A 
ATOM     17  C   UNL     1       6.237   3.650  12.339  0.00  0.00    +0.000 A 
ATOM     18  C   UNL     1       7.200   4.541  11.920  0.00  0.00    +0.000 A 
ATOM     19  S   UNL     1       7.965   5.324  13.230  0.00  0.00    +0.000 S 
ENDBRANCH  14  15
ENDBRANCH   4  14
TORSDOF 3
ENDMDL
MODEL 2
REMARK VINA RESULT:      -6.8      1.413      1.752
REMARK  Name = 
REMARK  3 active torsions:
REMARK  status: ('A' for Active; 'I' for Inactive)
REMARK    1  A    between atoms: C_7  and  N_8
REMARK    2  A    between atoms: N_11  and  C_12
REMARK    3  A    between atoms: C_12  and  C_13
REMARK                            x       y       z     vdW  Elec       q    Type
REMARK                         _______ _______ _______ _____ _____    ______ ____
ROOT
ATOM      1  N   UNL     1       4.607   4.899  18.221  0.00  0.00    +0.000 N 
ATOM      2  C   UNL     1       4.347   4.712  16.784  0.00  0.00    +0.000 C 
ATOM      3  C   UNL     1       5.062   5.806  15.950  0.00  0.00    +0.000 C 
ATOM      4  N   UNL     1       6.503   6.009  16.247  0.00  0.00    +0.000 NA
ATOM      5  C   UNL     1       6.623   6.222  17.713  0.00  0.00    +0.000 C 
ATOM      6  C   UNL     1       6.024   5.096  18.580  0.00  0.00    +0.000 C 
ENDROOT
BRANCH   1  13
ATOM      7 CL   UNL     1       2.414   7.088  19.164  0.00  0.00    +0.000 Cl
ATOM      8  C   UNL     1       2.713   5.487  19.763  0.00  0.00    +0.000 A 
ATOM      9  C   UNL     1       1.874   5.088  20.819  0.00  0.00    +0.000 A 
ATOM     10  C   UNL     1       1.935   3.800  21.334  0.00  0.00    +0.000 A 
ATOM     11  C   UNL     1       2.839   2.898  20.793  0.00  0.00    +0.000 A 
ATOM     12  C   UNL     1       3.690   3.300  19.759  0.00  0.00    +0.000 A 
ATOM     13  C   UNL     1       3.668   4.597  19.202  0.00  0.00    +0.000 A 
ENDBRANCH   1  13
BRANCH   4  14
ATOM     14  C   UNL     1       7.281   4.847  15.773  0.00  0.00    +0.000 C 
BRANCH  14  15
ATOM     15  C   UNL     1       7.046   4.526  14.322  0.00  0.00    +0.000 A 
ATOM     16  C   UNL     1       6.169   3.611  13.773  0.00  0.00    +0.000 A 
ATOM     17  C   UNL     1       6.240   3.575  12.350  0.00  0.00    +0.000 A 
ATOM     18  C   UNL     1       7.166   4.469  11.859  0.00  0.00    +0.000 A 
ATOM     19  S   UNL     1       7.947   5.335  13.105  0.00  0.00    +0.000 S 
ENDBRANCH  14  15
ENDBRANCH   4  14
TORSDOF 3
ENDMDL
MODEL 3
REMARK VINA RESULT:      -6.6      1.134      1.408
REMARK  Name = 
REMARK  3 active torsions:
REMARK  status: ('A' for Active; 'I' for Inactive)
REMARK    1  A    between atoms: C_7  and  N_8
REMARK    2  A    between atoms: N_11  and  C_12
REMARK    3  A    between atoms: C_12  and  C_13
REMARK                            x       y       z     vdW  Elec       q    Type
REMARK                         _______ _______ _______ _____ _____    ______ ____
ROOT
ATOM      1  N   UNL     1       4.030   4.454  18.325  0.00  0.00    +0.000 N 
ATOM      2  C   UNL     1       4.324   5.875  18.084  0.00  0.00    +0.000 C 
ATOM      3  C   UNL     1       5.786   6.059  17.601  0.00  0.00    +0.000 C 
ATOM      4  N   UNL     1       6.210   5.190  16.473  0.00  0.00    +0.000 NA
ATOM      5  C   UNL     1       5.894   3.790  16.857  0.00  0.00    +0.000 C 
ATOM      6  C   UNL     1       4.420   3.540  17.235  0.00  0.00    +0.000 C 
ENDROOT
BRANCH   1  13
ATOM      7 CL   UNL     1       4.859   2.021  20.297  0.00  0.00    +0.000 Cl
ATOM      8  C   UNL     1       3.377   2.919  20.203  0.00  0.00    +0.000 A 
ATOM      9  C   UNL     1       2.390   2.523  21.125  0.00  0.00    +0.000 A 
ATOM     10  C   UNL     1       1.191   3.214  21.230  0.00  0.00    +0.000 A 
ATOM     11  C   UNL     1       0.968   4.311  20.412  0.00  0.00    +0.000 A 
ATOM     12  C   UNL     1       1.938   4.692  19.479  0.00  0.00    +0.000 A 
ATOM     13  C   UNL     1       3.172   4.022  19.331  0.00  0.00    +0.000 A 
ENDBRANCH   1  13
BRANCH   4  14
ATOM     14  C   UNL     1       5.527   5.610  15.232  0.00  0.00    +0.000 C 
BRANCH  14  15
ATOM     15  C   UNL     1       5.915   4.788  14.033  0.00  0.00    +0.000 A 
ATOM     16  C   UNL     1       5.163   3.852  13.351  0.00  0.00    +0.000 A 
ATOM     17  C   UNL     1       5.879   3.262  12.269  0.00  0.00    +0.000 A 
ATOM     18  C   UNL     1       7.153   3.772  12.157  0.00  0.00    +0.000 A 
ATOM     19  S   UNL     1       7.484   4.944  13.354  0.00  0.00    +0.000 S 
ENDBRANCH  14  15
ENDBRANCH   4  14
TORSDOF 3
ENDMDL
MODEL 4
REMARK VINA RESULT:      -6.4      1.199      1.343
REMARK  Name = 
REMARK  3 active torsions:
REMARK  status: ('A' for Active; 'I' for Inactive)
REMARK    1  A    between atoms: C_7  and  N_8
REMARK    2  A    between atoms: N_11  and  C_12
REMARK    3  A    between atoms: C_12  and  C_13
REMARK                            x       y       z     vdW  Elec       q    Type
REMARK                         _______ _______ _______ _____ _____    ______ ____
ROOT
ATOM      1  N   UNL     1       4.230   4.203  18.315  0.00  0.00    +0.000 N 
ATOM      2  C   UNL     1       4.088   4.193  16.850  0.00  0.00    +0.000 C 
ATOM      3  C   UNL     1       4.815   5.408  16.219  0.00  0.00    +0.000 C 
ATOM      4  N   UNL     1       6.220   5.620  16.654  0.00  0.00    +0.000 NA
ATOM      5  C   UNL     1       6.219   5.648  18.140  0.00  0.00    +0.000 C 
ATOM      6  C   UNL     1       5.606   4.401  18.809  0.00  0.00    +0.000 C 
ENDROOT
BRANCH   1  13
ATOM      7 CL   UNL     1       1.096   4.584  17.587  0.00  0.00    +0.000 Cl
ATOM      8  C   UNL     1       1.833   3.925  19.013  0.00  0.00    +0.000 A 
ATOM      9  C   UNL     1       0.926   3.496  19.999  0.00  0.00    +0.000 A 
ATOM     10  C   UNL     1       1.368   2.861  21.151  0.00  0.00    +0.000 A 
ATOM     11  C   UNL     1       2.727   2.649  21.327  0.00  0.00    +0.000 A 
ATOM     12  C   UNL     1       3.633   3.095  20.359  0.00  0.00    +0.000 A 
ATOM     13  C   UNL     1       3.234   3.748  19.172  0.00  0.00    +0.000 A 
ENDBRANCH   1  13
BRANCH   4  14
ATOM     14  C   UNL     1       7.081   4.555  16.103  0.00  0.00    +0.000 C 
BRANCH  14  15
ATOM     15  C   UNL     1       6.923   4.370  14.618  0.00  0.00    +0.000 A 
ATOM     16  C   UNL     1       6.096   3.494  13.943  0.00  0.00    +0.000 A 
ATOM     17  C   UNL     1       6.235   3.597  12.528  0.00  0.00    +0.000 A 
ATOM     18  C   UNL     1       7.159   4.553  12.170  0.00  0.00    +0.000 A 
ATOM     19  S   UNL     1       7.858   5.312  13.530  0.00  0.00    +0.000 S 
ENDBRANCH  14  15
ENDBRANCH   4  14
TORSDOF 3
ENDMDL
MODEL 5
REMARK VINA RESULT:      -6.3      1.412      1.747
REMARK  Name = 
REMARK  3 active torsions:
REMARK  status: ('A' for Active; 'I' for Inactive)
REMARK    1  A    between atoms: C_7  and  N_8
REMARK    2  A    between atoms: N_11  and  C_12
REMARK    3  A    between atoms: C_12  and  C_13
REMARK                            x       y       z     vdW  Elec       q    Type
REMARK                         _______ _______ _______ _____ _____    ______ ____
ROOT
ATOM      1  N   UNL     1       4.052   4.297  18.174  0.00  0.00    +0.000 N 
ATOM      2  C   UNL     1       4.411   5.723  18.092  0.00  0.00    +0.000 C 
ATOM      3  C   UNL     1       5.908   5.891  17.724  0.00  0.00    +0.000 C 
ATOM      4  N   UNL     1       6.377   5.116  16.546  0.00  0.00    +0.000 NA
ATOM      5  C   UNL     1       5.988   3.699  16.771  0.00  0.00    +0.000 C 
ATOM      6  C   UNL     1       4.484   3.476  17.028  0.00  0.00    +0.000 C 
ENDROOT
BRANCH   1  13
ATOM      7 CL   UNL     1       0.886   4.357  17.492  0.00  0.00    +0.000 Cl
ATOM      8  C   UNL     1       1.701   3.852  18.938  0.00  0.00    +0.000 A 
ATOM      9  C   UNL     1       0.851   3.404  19.966  0.00  0.00    +0.000 A 
ATOM     10  C   UNL     1       1.367   2.880  21.144  0.00  0.00    +0.000 A 
ATOM     11  C   UNL     1       2.742   2.799  21.303  0.00  0.00    +0.000 A 
ATOM     12  C   UNL     1       3.589   3.265  20.292  0.00  0.00    +0.000 A 
ATOM     13  C   UNL     1       3.114   3.808  19.077  0.00  0.00    +0.000 A 
ENDBRANCH   1  13
BRANCH   4  14
ATOM     14  C   UNL     1       5.795   5.679  15.311  0.00  0.00    +0.000 C 
BRANCH  14  15
ATOM     15  C   UNL     1       6.093   4.858  14.086  0.00  0.00    +0.000 A 
ATOM     16  C   UNL     1       5.290   3.927  13.456  0.00  0.00    +0.000 A 
ATOM     17  C   UNL     1       5.926   3.337  12.325  0.00  0.00    +0.000 A 
ATOM     18  C   UNL     1       7.192   3.841  12.125  0.00  0.00    +0.000 A 
ATOM     19  S   UNL     1       7.611   5.008  13.298  0.00  0.00    +0.000 S 
ENDBRANCH  14  15
ENDBRANCH   4  14
TORSDOF 3
ENDMDL
MODEL 6
REMARK VINA RESULT:      -6.2      3.814      5.217
REMARK  Name = 
REMARK  3 active torsions:
REMARK  status: ('A' for Active; 'I' for Inactive)
REMARK    1  A    between atoms: C_7  and  N_8
REMARK    2  A    between atoms: N_11  and  C_12
REMARK    3  A    between atoms: C_12  and  C_13
REMARK                            x       y       z     vdW  Elec       q    Type
REMARK                         _______ _______ _______ _____ _____    ______ ____
ROOT
ATOM      1  N   UNL     1       1.917   7.102  19.876  0.00  0.00    +0.000 N 
ATOM      2  C   UNL     1       1.935   5.846  20.644  0.00  0.00    +0.000 C 
ATOM      3  C   UNL     1       1.795   4.624  19.700  0.00  0.00    +0.000 C 
ATOM      4  N   UNL     1       2.719   4.595  18.536  0.00  0.00    +0.000 NA
ATOM      5  C   UNL     1       2.576   5.895  17.831  0.00  0.00    +0.000 C 
ATOM      6  C   UNL     1       2.822   7.137  18.711  0.00  0.00    +0.000 C 
ENDROOT
BRANCH   1  13
ATOM      7 CL   UNL     1       0.980   9.469  17.872  0.00  0.00    +0.000 Cl
ATOM      8  C   UNL     1       0.983   9.418  19.607  0.00  0.00    +0.000 A 
ATOM      9  C   UNL     1       0.507  10.587  20.230  0.00  0.00    +0.000 A 
ATOM     10  C   UNL     1       0.362  10.654  21.609  0.00  0.00    +0.000 A 
ATOM     11  C   UNL     1       0.692   9.549  22.378  0.00  0.00    +0.000 A 
ATOM     12  C   UNL     1       1.188   8.394  21.763  0.00  0.00    +0.000 A 
ATOM     13  C   UNL     1       1.355   8.277  20.366  0.00  0.00    +0.000 A 
ENDBRANCH   1  13
BRANCH   4  14
ATOM     14  C   UNL     1       4.099   4.343  18.997  0.00  0.00    +0.000 C 
BRANCH  14  15
ATOM     15  C   UNL     1       5.106   4.330  17.880  0.00  0.00    +0.000 A 
ATOM     16  C   UNL     1       4.972   3.815  16.605  0.00  0.00    +0.000 A 
ATOM     17  C   UNL     1       6.156   3.974  15.827  0.00  0.00    +0.000 A 
ATOM     18  C   UNL     1       7.153   4.610  16.532  0.00  0.00    +0.000 A 
ATOM     19  S   UNL     1       6.667   5.003  18.121  0.00  0.00    +0.000 S 
ENDBRANCH  14  15
ENDBRANCH   4  14
TORSDOF 3
ENDMDL
MODEL 7
REMARK VINA RESULT:      -6.1      1.522      2.113
REMARK  Name = 
REMARK  3 active torsions:
REMARK  status: ('A' for Active; 'I' for Inactive)
REMARK    1  A    between atoms: C_7  and  N_8
REMARK    2  A    between atoms: N_11  and  C_12
REMARK    3  A    between atoms: C_12  and  C_13
REMARK                            x       y       z     vdW  Elec       q    Type
REMARK                         _______ _______ _______ _____ _____    ______ ____
ROOT
ATOM      1  N   UNL     1       4.536   4.443  18.289  0.00  0.00    +0.000 N 
ATOM      2  C   UNL     1       5.563   5.495  18.359  0.00  0.00    +0.000 C 
ATOM      3  C   UNL     1       6.920   4.974  17.819  0.00  0.00    +0.000 C 
ATOM      4  N   UNL     1       6.876   4.308  16.491  0.00  0.00    +0.000 NA
ATOM      5  C   UNL     1       5.833   3.252  16.566  0.00  0.00    +0.000 C 
ATOM      6  C   UNL     1       4.437   3.750  16.991  0.00  0.00    +0.000 C 
ENDROOT
BRANCH   1  13
ATOM      7 CL   UNL     1       2.374   6.811  18.751  0.00  0.00    +0.000 Cl
ATOM      8  C   UNL     1       2.569   5.305  19.592  0.00  0.00    +0.000 A 
ATOM      9  C   UNL     1       1.646   5.089  20.631  0.00  0.00    +0.000 A 
ATOM     10  C   UNL     1       1.620   3.888  21.327  0.00  0.00    +0.000 A 
ATOM     11  C   UNL     1       2.521   2.890  20.986  0.00  0.00    +0.000 A 
ATOM     12  C   UNL     1       3.455   3.112  19.969  0.00  0.00    +0.000 A 
ATOM     13  C   UNL     1       3.522   4.316  19.233  0.00  0.00    +0.000 A 
ENDBRANCH   1  13
BRANCH   4  14
ATOM     14  C   UNL     1       6.602   5.307  15.438  0.00  0.00    +0.000 C 
BRANCH  14  15
ATOM     15  C   UNL     1       6.652   4.733  14.048  0.00  0.00    +0.000 A 
ATOM     16  C   UNL     1       5.795   3.824  13.460  0.00  0.00    +0.000 A 
ATOM     17  C   UNL     1       6.176   3.502  12.124  0.00  0.00    +0.000 A 
ATOM     18  C   UNL     1       7.309   4.182  11.735  0.00  0.00    +0.000 A 
ATOM     19  S   UNL     1       7.911   5.191  12.974  0.00  0.00    +0.000 S 
ENDBRANCH  14  15
ENDBRANCH   4  14
TORSDOF 3
ENDMDL
MODEL 8
REMARK VINA RESULT:      -6.1      3.755      5.401
REMARK  Name = 
REMARK  3 active torsions:
REMARK  status: ('A' for Active; 'I' for Inactive)
REMARK    1  A    between atoms: C_7  and  N_8
REMARK    2  A    between atoms: N_11  and  C_12
REMARK    3  A    between atoms: C_12  and  C_13
REMARK                            x       y       z     vdW  Elec       q    Type
REMARK                         _______ _______ _______ _____ _____    ______ ____
ROOT
ATOM      1  N   UNL     1       1.962   7.092  19.934  0.00  0.00    +0.000 N 
ATOM      2  C   UNL     1       1.784   5.800  20.614  0.00  0.00    +0.000 C 
ATOM      3  C   UNL     1       1.783   4.636  19.589  0.00  0.00    +0.000 C 
ATOM      4  N   UNL     1       2.912   4.622  18.624  0.00  0.00    +0.000 NA
ATOM      5  C   UNL     1       2.959   5.962  17.984  0.00  0.00    +0.000 C 
ATOM      6  C   UNL     1       3.076   7.144  18.968  0.00  0.00    +0.000 C 
ENDROOT
BRANCH   1  13
ATOM      7 CL   UNL     1       1.076   9.407  17.847  0.00  0.00    +0.000 Cl
ATOM      8  C   UNL     1       1.004   9.388  19.581  0.00  0.00    +0.000 A 
ATOM      9  C   UNL     1       0.483  10.559  20.161  0.00  0.00    +0.000 A 
ATOM     10  C   UNL     1       0.277  10.649  21.531  0.00  0.00    +0.000 A 
ATOM     11  C   UNL     1       0.592   9.563  22.335  0.00  0.00    +0.000 A 
ATOM     12  C   UNL     1       1.132   8.407  21.763  0.00  0.00    +0.000 A 
ATOM     13  C   UNL     1       1.361   8.266  20.377  0.00  0.00    +0.000 A 
ENDBRANCH   1  13
BRANCH   4  14
ATOM     14  C   UNL     1       4.166   4.279  19.325  0.00  0.00    +0.000 C 
BRANCH  14  15
ATOM     15  C   UNL     1       5.399   4.566  18.512  0.00  0.00    +0.000 A 
ATOM     16  C   UNL     1       6.519   5.290  18.872  0.00  0.00    +0.000 A 
ATOM     17  C   UNL     1       7.482   5.361  17.823  0.00  0.00    +0.000 A 
ATOM     18  C   UNL     1       7.067   4.684  16.698  0.00  0.00    +0.000 A 
ATOM     19  S   UNL     1       5.526   3.978  16.904  0.00  0.00    +0.000 S 
ENDBRANCH  14  15
ENDBRANCH   4  14
TORSDOF 3
ENDMDL
MODEL 9
REMARK VINA RESULT:      -6.0      1.075      1.651
REMARK  Name = 
REMARK  3 active torsions:
REMARK  status: ('A' for Active; 'I' for Inactive)
REMARK    1  A    between atoms: C_7  and  N_8
REMARK    2  A    between atoms: N_11  and  C_12
REMARK    3  A    between atoms: C_12  and  C_13
REMARK                            x       y       z     vdW  Elec       q    Type
REMARK                         _______ _______ _______ _____ _____    ______ ____
ROOT
ATOM      1  N   UNL     1       4.673   5.006  18.213  0.00  0.00    +0.000 N 
ATOM      2  C   UNL     1       5.890   5.833  18.241  0.00  0.00    +0.000 C 
ATOM      3  C   UNL     1       7.111   5.028  17.727  0.00  0.00    +0.000 C 
ATOM      4  N   UNL     1       6.927   4.328  16.429  0.00  0.00    +0.000 NA
ATOM      5  C   UNL     1       5.695   3.505  16.547  0.00  0.00    +0.000 C 
ATOM      6  C   UNL     1       4.429   4.291  16.946  0.00  0.00    +0.000 C 
ENDROOT
BRANCH   1  13
ATOM      7 CL   UNL     1       3.760   2.470  20.012  0.00  0.00    +0.000 Cl
ATOM      8  C   UNL     1       3.110   4.078  19.948  0.00  0.00    +0.000 A 
ATOM      9  C   UNL     1       2.021   4.307  20.808  0.00  0.00    +0.000 A 
ATOM     10  C   UNL     1       1.461   5.571  20.935  0.00  0.00    +0.000 A 
ATOM     11  C   UNL     1       1.989   6.621  20.198  0.00  0.00    +0.000 A 
ATOM     12  C   UNL     1       3.056   6.391  19.324  0.00  0.00    +0.000 A 
ATOM     13  C   UNL     1       3.659   5.124  19.159  0.00  0.00    +0.000 A 
ENDBRANCH   1  13
BRANCH   4  14
ATOM     14  C   UNL     1       6.853   5.314  15.333  0.00  0.00    +0.000 C 
BRANCH  14  15
ATOM     15  C   UNL     1       6.763   4.683  13.970  0.00  0.00    +0.000 A 
ATOM     16  C   UNL     1       5.841   3.766  13.505  0.00  0.00    +0.000 A 
ATOM     17  C   UNL     1       6.090   3.383  12.154  0.00  0.00    +0.000 A 
ATOM     18  C   UNL     1       7.191   4.025  11.632  0.00  0.00    +0.000 A 
ATOM     19  S   UNL     1       7.922   5.072  12.765  0.00  0.00    +0.000 S 
ENDBRANCH  14  15
ENDBRANCH   4  14
TORSDOF 3
ENDMDL
