MODEL 1
REMARK VINA RESULT:      -8.2      0.000      0.000
REMARK  Name = 
REMARK  15 active torsions:
REMARK  status: ('A' for Active; 'I' for Inactive)
REMARK    1  A    between atoms: C_1  and  C_2
REMARK    2  A    between atoms: C_2  and  C_3
REMARK    3  A    between atoms: C_4  and  C_5
REMARK    4  A    between atoms: C_7  and  C_8
REMARK    5  A    between atoms: C_8  and  C_9
REMARK    6  A    between atoms: C_9  and  C_10
REMARK    7  A    between atoms: C_10  and  C_11
REMARK    8  A    between atoms: C_11  and  C_12
REMARK    9  A    between atoms: C_13  and  C_14
REMARK   10  A    between atoms: C_14  and  C_15
REMARK   11  A    between atoms: C_16  and  O_17
REMARK   12  A    between atoms: C_19  and  C_20
REMARK   13  A    between atoms: C_21  and  C_22
REMARK   14  A    between atoms: C_22  and  O_24
REMARK   15  A    between atoms: C_25  and  O_26
REMARK                            x       y       z     vdW  Elec       q    Type
REMARK                         _______ _______ _______ _____ _____    ______ ____
ROOT
ATOM      1  C   UNL     1       2.683   7.244  19.470  0.00  0.00    +0.000 C 
ENDROOT
BRANCH   1   2
ATOM      2  C   UNL     1       1.689   8.385  19.591  0.00  0.00    +0.000 A 
ATOM      3  C   UNL     1       1.310   9.167  18.496  0.00  0.00    +0.000 A 
ATOM      4  C   UNL     1       0.415  10.231  18.634  0.00  0.00    +0.000 A 
ATOM      5  C   UNL     1      -0.154  10.563  19.875  0.00  0.00    +0.000 A 
ATOM      6  C   UNL     1      -1.063  11.761  19.907  0.00  0.00    +0.000 C 
ATOM      7  C   UNL     1       0.181   9.771  20.991  0.00  0.00    +0.000 A 
ATOM      8  C   UNL     1       1.101   8.699  20.835  0.00  0.00    +0.000 A 
BRANCH   3   9
ATOM      9  O   UNL     1       1.763   8.967  17.221  0.00  0.00    +0.000 OA
ATOM     10  H   UNL     1       2.725   9.072  17.200  0.00  0.00    +0.000 HD
ENDBRANCH   3   9
BRANCH   7  11
ATOM     11  C   UNL     1      -0.316  10.033  22.374  0.00  0.00    +0.000 C 
ATOM     12  O   UNL     1      -0.146  11.120  22.908  0.00  0.00    +0.000 OA
BRANCH  11  13
ATOM     13  O   UNL     1      -0.865   8.995  23.029  0.00  0.00    +0.000 OA
ATOM     14  H   UNL     1      -1.327   8.352  22.465  0.00  0.00    +0.000 HD
ENDBRANCH  11  13
ENDBRANCH   7  11
BRANCH   8  15
ATOM     15  O   UNL     1       1.454   7.902  21.903  0.00  0.00    +0.000 OA
ATOM     16  H   UNL     1       1.963   8.435  22.554  0.00  0.00    +0.000 HD
ENDBRANCH   8  15
ENDBRANCH   1   2
BRANCH   1  19
ATOM     17  C   UNL     1       1.692   4.927  19.044  0.00  0.00    +0.000 C 
ATOM     18  C   UNL     1       1.567   4.608  20.511  0.00  0.00    +0.000 C 
ATOM     19  C   UNL     1       2.215   6.092  18.611  0.00  0.00    +0.000 C 
BRANCH  17  20
ATOM     20  C   UNL     1       1.226   3.864  18.068  0.00  0.00    +0.000 C 
BRANCH  20  21
ATOM     21  C   UNL     1       1.695   2.464  18.467  0.00  0.00    +0.000 C 
BRANCH  21  22
ATOM     22  C   UNL     1       2.979   2.050  17.740  0.00  0.00    +0.000 C 
BRANCH  22  25
ATOM     23  C   UNL     1       5.528   4.772  17.890  0.00  0.00    +0.000 A 
ATOM     24  C   UNL     1       4.592   4.031  17.178  0.00  0.00    +0.000 A 
ATOM     25  C   UNL     1       4.078   3.012  18.030  0.00  0.00    +0.000 A 
ATOM     26  C   UNL     1       4.778   3.150  19.204  0.00  0.00    +0.000 A 
ATOM     27  O   UNL     1       5.638   4.187  19.132  0.00  0.00    +0.000 OA
BRANCH  23  31
ATOM     28  C   UNL     1       7.885   7.759  17.582  0.00  0.00    +0.000 C 
ATOM     29  C   UNL     1       7.308   6.461  18.085  0.00  0.00    +0.000 C 
ATOM     30  C   UNL     1       7.995   5.847  19.273  0.00  0.00    +0.000 C 
ATOM     31  C   UNL     1       6.224   5.944  17.468  0.00  0.00    +0.000 C 
ENDBRANCH  23  31
ENDBRANCH  22  25
ENDBRANCH  21  22
ENDBRANCH  20  21
ENDBRANCH  17  20
ENDBRANCH   1  19
TORSDOF 11
ENDMDL
MODEL 2
REMARK VINA RESULT:      -7.9      1.197      1.657
REMARK  Name = 
REMARK  15 active torsions:
REMARK  status: ('A' for Active; 'I' for Inactive)
REMARK    1  A    between atoms: C_1  and  C_2
REMARK    2  A    between atoms: C_2  and  C_3
REMARK    3  A    between atoms: C_4  and  C_5
REMARK    4  A    between atoms: C_7  and  C_8
REMARK    5  A    between atoms: C_8  and  C_9
REMARK    6  A    between atoms: C_9  and  C_10
REMARK    7  A    between atoms: C_10  and  C_11
REMARK    8  A    between atoms: C_11  and  C_12
REMARK    9  A    between atoms: C_13  and  C_14
REMARK   10  A    between atoms: C_14  and  C_15
REMARK   11  A    between atoms: C_16  and  O_17
REMARK   12  A    between atoms: C_19  and  C_20
REMARK   13  A    between atoms: C_21  and  C_22
REMARK   14  A    between atoms: C_22  and  O_24
REMARK   15  A    between atoms: C_25  and  O_26
REMARK                            x       y       z     vdW  Elec       q    Type
REMARK                         _______ _______ _______ _____ _____    ______ ____
ROOT
ATOM      1  C   UNL     1       1.880   6.481  20.902  0.00  0.00    +0.000 C 
ENDROOT
BRANCH   1   2
ATOM      2  C   UNL     1       1.645   7.819  20.227  0.00  0.00    +0.000 A 
ATOM      3  C   UNL     1       2.058   8.080  18.917  0.00  0.00    +0.000 A 
ATOM      4  C   UNL     1       1.857   9.329  18.324  0.00  0.00    +0.000 A 
ATOM      5  C   UNL     1       1.226  10.381  19.008  0.00  0.00    +0.000 A 
ATOM      6  C   UNL     1       1.115  11.694  18.283  0.00  0.00    +0.000 C 
ATOM      7  C   UNL     1       0.767  10.139  20.318  0.00  0.00    +0.000 A 
ATOM      8  C   UNL     1       0.989   8.866  20.910  0.00  0.00    +0.000 A 
BRANCH   3   9
ATOM      9  O   UNL     1       2.674   7.161  18.113  0.00  0.00    +0.000 OA
ATOM     10  H   UNL     1       3.107   7.615  17.376  0.00  0.00    +0.000 HD
ENDBRANCH   3   9
BRANCH   7  11
ATOM     11  C   UNL     1       0.118  11.173  21.176  0.00  0.00    +0.000 C 
ATOM     12  O   UNL     1      -1.091  11.170  21.357  0.00  0.00    +0.000 OA
BRANCH  11  13
ATOM     13  O   UNL     1       0.908  12.152  21.651  0.00  0.00    +0.000 OA
ATOM     14  H   UNL     1       1.855  11.932  21.690  0.00  0.00    +0.000 HD
ENDBRANCH  11  13
ENDBRANCH   7  11
BRANCH   8  15
ATOM     15  O   UNL     1       0.555   8.590  22.190  0.00  0.00    +0.000 OA
ATOM     16  H   UNL     1       1.198   8.954  22.839  0.00  0.00    +0.000 HD
ENDBRANCH   8  15
ENDBRANCH   1   2
BRANCH   1  19
ATOM     17  C   UNL     1       1.400   3.999  20.525  0.00  0.00    +0.000 C 
ATOM     18  C   UNL     1       2.135   3.572  21.767  0.00  0.00    +0.000 C 
ATOM     19  C   UNL     1       1.325   5.293  20.151  0.00  0.00    +0.000 C 
BRANCH  17  20
ATOM     20  C   UNL     1       0.763   2.903  19.692  0.00  0.00    +0.000 C 
BRANCH  20  21
ATOM     21  C   UNL     1       1.166   2.987  18.218  0.00  0.00    +0.000 C 
BRANCH  21  22
ATOM     22  C   UNL     1       2.423   2.168  17.909  0.00  0.00    +0.000 C 
BRANCH  22  25
ATOM     23  C   UNL     1       5.224   4.546  18.569  0.00  0.00    +0.000 A 
ATOM     24  C   UNL     1       4.114   4.162  17.825  0.00  0.00    +0.000 A 
ATOM     25  C   UNL     1       3.647   2.911  18.320  0.00  0.00    +0.000 A 
ATOM     26  C   UNL     1       4.539   2.568  19.307  0.00  0.00    +0.000 A 
ATOM     27  O   UNL     1       5.476   3.527  19.462  0.00  0.00    +0.000 OA
BRANCH  23  31
ATOM     28  C   UNL     1       7.587   7.376  17.585  0.00  0.00    +0.000 C 
ATOM     29  C   UNL     1       6.811   6.088  17.494  0.00  0.00    +0.000 C 
ATOM     30  C   UNL     1       7.079   5.239  16.282  0.00  0.00    +0.000 C 
ATOM     31  C   UNL     1       5.956   5.767  18.487  0.00  0.00    +0.000 C 
ENDBRANCH  23  31
ENDBRANCH  22  25
ENDBRANCH  21  22
ENDBRANCH  20  21
ENDBRANCH  17  20
ENDBRANCH   1  19
TORSDOF 11
ENDMDL
MODEL 3
REMARK VINA RESULT:      -7.6      1.138      2.717
REMARK  Name = 
REMARK  15 active torsions:
REMARK  status: ('A' for Active; 'I' for Inactive)
REMARK    1  A    between atoms: C_1  and  C_2
REMARK    2  A    between atoms: C_2  and  C_3
REMARK    3  A    between atoms: C_4  and  C_5
REMARK    4  A    between atoms: C_7  and  C_8
REMARK    5  A    between atoms: C_8  and  C_9
REMARK    6  A    between atoms: C_9  and  C_10
REMARK    7  A    between atoms: C_10  and  C_11
REMARK    8  A    between atoms: C_11  and  C_12
REMARK    9  A    between atoms: C_13  and  C_14
REMARK   10  A    between atoms: C_14  and  C_15
REMARK   11  A    between atoms: C_16  and  O_17
REMARK   12  A    between atoms: C_19  and  C_20
REMARK   13  A    between atoms: C_21  and  C_22
REMARK   14  A    between atoms: C_22  and  O_24
REMARK   15  A    between atoms: C_25  and  O_26
REMARK                            x       y       z     vdW  Elec       q    Type
REMARK                         _______ _______ _______ _____ _____    ______ ____
ROOT
ATOM      1  C   UNL     1       1.401   6.340  21.315  0.00  0.00    +0.000 C 
ENDROOT
BRANCH   1   2
ATOM      2  C   UNL     1       1.005   7.722  20.828  0.00  0.00    +0.000 A 
ATOM      3  C   UNL     1       0.035   8.494  21.474  0.00  0.00    +0.000 A 
ATOM      4  C   UNL     1      -0.335   9.752  20.992  0.00  0.00    +0.000 A 
ATOM      5  C   UNL     1       0.252  10.307  19.842  0.00  0.00    +0.000 A 
ATOM      6  C   UNL     1      -0.267  11.645  19.393  0.00  0.00    +0.000 C 
ATOM      7  C   UNL     1       1.258   9.568  19.189  0.00  0.00    +0.000 A 
ATOM      8  C   UNL     1       1.615   8.285  19.686  0.00  0.00    +0.000 A 
BRANCH   3   9
ATOM      9  O   UNL     1      -0.620   8.104  22.609  0.00  0.00    +0.000 OA
ATOM     10  H   UNL     1      -0.428   8.729  23.324  0.00  0.00    +0.000 HD
ENDBRANCH   3   9
BRANCH   7  11
ATOM     11  C   UNL     1       1.937  10.015  17.937  0.00  0.00    +0.000 C 
ATOM     12  O   UNL     1       2.157   9.229  17.027  0.00  0.00    +0.000 OA
BRANCH  11  13
ATOM     13  O   UNL     1       2.374  11.286  17.904  0.00  0.00    +0.000 OA
ATOM     14  H   UNL     1       2.040  11.853  18.620  0.00  0.00    +0.000 HD
ENDBRANCH  11  13
ENDBRANCH   7  11
BRANCH   8  15
ATOM     15  O   UNL     1       2.595   7.531  19.075  0.00  0.00    +0.000 OA
ATOM     16  H   UNL     1       3.025   6.952  19.743  0.00  0.00    +0.000 HD
ENDBRANCH   8  15
ENDBRANCH   1   2
BRANCH   1  19
ATOM     17  C   UNL     1       1.347   3.909  20.528  0.00  0.00    +0.000 C 
ATOM     18  C   UNL     1       2.028   3.394  21.768  0.00  0.00    +0.000 C 
ATOM     19  C   UNL     1       1.105   5.223  20.341  0.00  0.00    +0.000 C 
BRANCH  17  20
ATOM     20  C   UNL     1       0.963   2.883  19.479  0.00  0.00    +0.000 C 
BRANCH  20  21
ATOM     21  C   UNL     1       1.302   3.348  18.062  0.00  0.00    +0.000 C 
BRANCH  21  22
ATOM     22  C   UNL     1       2.588   2.708  17.530  0.00  0.00    +0.000 C 
BRANCH  22  25
ATOM     23  C   UNL     1       5.304   5.256  17.791  0.00  0.00    +0.000 A 
ATOM     24  C   UNL     1       4.265   4.665  17.081  0.00  0.00    +0.000 A 
ATOM     25  C   UNL     1       3.766   3.566  17.837  0.00  0.00    +0.000 A 
ATOM     26  C   UNL     1       4.574   3.509  18.947  0.00  0.00    +0.000 A 
ATOM     27  O   UNL     1       5.486   4.503  18.929  0.00  0.00    +0.000 OA
BRANCH  23  31
ATOM     28  C   UNL     1       7.838   8.104  17.612  0.00  0.00    +0.000 C 
ATOM     29  C   UNL     1       7.229   6.776  17.982  0.00  0.00    +0.000 C 
ATOM     30  C   UNL     1       8.021   5.929  18.940  0.00  0.00    +0.000 C 
ATOM     31  C   UNL     1       6.030   6.439  17.462  0.00  0.00    +0.000 C 
ENDBRANCH  23  31
ENDBRANCH  22  25
ENDBRANCH  21  22
ENDBRANCH  20  21
ENDBRANCH  17  20
ENDBRANCH   1  19
TORSDOF 11
ENDMDL
MODEL 4
REMARK VINA RESULT:      -7.6      2.534      4.007
REMARK  Name = 
REMARK  15 active torsions:
REMARK  status: ('A' for Active; 'I' for Inactive)
REMARK    1  A    between atoms: C_1  and  C_2
REMARK    2  A    between atoms: C_2  and  C_3
REMARK    3  A    between atoms: C_4  and  C_5
REMARK    4  A    between atoms: C_7  and  C_8
REMARK    5  A    between atoms: C_8  and  C_9
REMARK    6  A    between atoms: C_9  and  C_10
REMARK    7  A    between atoms: C_10  and  C_11
REMARK    8  A    between atoms: C_11  and  C_12
REMARK    9  A    between atoms: C_13  and  C_14
REMARK   10  A    between atoms: C_14  and  C_15
REMARK   11  A    between atoms: C_16  and  O_17
REMARK   12  A    between atoms: C_19  and  C_20
REMARK   13  A    between atoms: C_21  and  C_22
REMARK   14  A    between atoms: C_22  and  O_24
REMARK   15  A    between atoms: C_25  and  O_26
REMARK                            x       y       z     vdW  Elec       q    Type
REMARK                         _______ _______ _______ _____ _____    ______ ____
ROOT
ATOM      1  C   UNL     1       2.916   6.101  19.131  0.00  0.00    +0.000 C 
ENDROOT
BRANCH   1   2
ATOM      2  C   UNL     1       2.200   7.423  19.343  0.00  0.00    +0.000 A 
ATOM      3  C   UNL     1       2.146   8.412  18.356  0.00  0.00    +0.000 A 
ATOM      4  C   UNL     1       1.506   9.633  18.582  0.00  0.00    +0.000 A 
ATOM      5  C   UNL     1       0.878   9.925  19.805  0.00  0.00    +0.000 A 
ATOM      6  C   UNL     1       0.268  11.292  19.946  0.00  0.00    +0.000 C 
ATOM      7  C   UNL     1       0.885   8.934  20.807  0.00  0.00    +0.000 A 
ATOM      8  C   UNL     1       1.550   7.702  20.564  0.00  0.00    +0.000 A 
BRANCH   3   9
ATOM      9  O   UNL     1       2.695   8.279  17.112  0.00  0.00    +0.000 OA
ATOM     10  H   UNL     1       3.381   7.596  17.131  0.00  0.00    +0.000 HD
ENDBRANCH   3   9
BRANCH   7  11
ATOM     11  C   UNL     1       0.294   9.122  22.164  0.00  0.00    +0.000 C 
ATOM     12  O   UNL     1       0.802   9.890  22.970  0.00  0.00    +0.000 OA
BRANCH  11  13
ATOM     13  O   UNL     1      -0.753   8.342  22.485  0.00  0.00    +0.000 OA
ATOM     14  H   UNL     1      -1.612   8.647  22.144  0.00  0.00    +0.000 HD
ENDBRANCH  11  13
ENDBRANCH   7  11
BRANCH   8  15
ATOM     15  O   UNL     1       1.578   6.708  21.519  0.00  0.00    +0.000 OA
ATOM     16  H   UNL     1       2.136   6.998  22.276  0.00  0.00    +0.000 HD
ENDBRANCH   8  15
ENDBRANCH   1   2
BRANCH   1  19
ATOM     17  C   UNL     1       5.285   5.146  19.219  0.00  0.00    +0.000 C 
ATOM     18  C   UNL     1       4.875   3.825  18.626  0.00  0.00    +0.000 C 
ATOM     19  C   UNL     1       4.392   6.129  19.457  0.00  0.00    +0.000 C 
BRANCH  17  20
ATOM     20  C   UNL     1       6.752   5.319  19.563  0.00  0.00    +0.000 C 
BRANCH  20  21
ATOM     21  C   UNL     1       7.656   5.168  18.338  0.00  0.00    +0.000 C 
BRANCH  21  22
ATOM     22  C   UNL     1       7.452   6.295  17.321  0.00  0.00    +0.000 C 
BRANCH  22  25
ATOM     23  C   UNL     1       5.759   4.538  14.496  0.00  0.00    +0.000 A 
ATOM     24  C   UNL     1       6.831   4.665  15.371  0.00  0.00    +0.000 A 
ATOM     25  C   UNL     1       6.626   5.823  16.175  0.00  0.00    +0.000 A 
ATOM     26  C   UNL     1       5.462   6.377  15.700  0.00  0.00    +0.000 A 
ATOM     27  O   UNL     1       4.942   5.626  14.708  0.00  0.00    +0.000 OA
BRANCH  23  31
ATOM     28  C   UNL     1       5.634   2.228  11.460  0.00  0.00    +0.000 C 
ATOM     29  C   UNL     1       6.076   3.349  12.365  0.00  0.00    +0.000 C 
ATOM     30  C   UNL     1       7.138   4.262  11.817  0.00  0.00    +0.000 C 
ATOM     31  C   UNL     1       5.497   3.478  13.577  0.00  0.00    +0.000 C 
ENDBRANCH  23  31
ENDBRANCH  22  25
ENDBRANCH  21  22
ENDBRANCH  20  21
ENDBRANCH  17  20
ENDBRANCH   1  19
TORSDOF 11
ENDMDL
MODEL 5
REMARK VINA RESULT:      -7.4      1.004      1.410
REMARK  Name = 
REMARK  15 active torsions:
REMARK  status: ('A' for Active; 'I' for Inactive)
REMARK    1  A    between atoms: C_1  and  C_2
REMARK    2  A    between atoms: C_2  and  C_3
REMARK    3  A    between atoms: C_4  and  C_5
REMARK    4  A    between atoms: C_7  and  C_8
REMARK    5  A    between atoms: C_8  and  C_9
REMARK    6  A    between atoms: C_9  and  C_10
REMARK    7  A    between atoms: C_10  and  C_11
REMARK    8  A    between atoms: C_11  and  C_12
REMARK    9  A    between atoms: C_13  and  C_14
REMARK   10  A    between atoms: C_14  and  C_15
REMARK   11  A    between atoms: C_16  and  O_17
REMARK   12  A    between atoms: C_19  and  C_20
REMARK   13  A    between atoms: C_21  and  C_22
REMARK   14  A    between atoms: C_22  and  O_24
REMARK   15  A    between atoms: C_25  and  O_26
REMARK                            x       y       z     vdW  Elec       q    Type
REMARK                         _______ _______ _______ _____ _____    ______ ____
ROOT
ATOM      1  C   UNL     1       2.496   7.146  18.986  0.00  0.00    +0.000 C 
ENDROOT
BRANCH   1   2
ATOM      2  C   UNL     1       1.684   8.327  19.486  0.00  0.00    +0.000 A 
ATOM      3  C   UNL     1       1.276   9.365  18.644  0.00  0.00    +0.000 A 
ATOM      4  C   UNL     1       0.553  10.458  19.130  0.00  0.00    +0.000 A 
ATOM      5  C   UNL     1       0.195  10.564  20.485  0.00  0.00    +0.000 A 
ATOM      6  C   UNL     1      -0.537  11.812  20.898  0.00  0.00    +0.000 C 
ATOM      7  C   UNL     1       0.561   9.516  21.352  0.00  0.00    +0.000 A 
ATOM      8  C   UNL     1       1.305   8.417  20.842  0.00  0.00    +0.000 A 
BRANCH   3   9
ATOM      9  O   UNL     1       1.533   9.406  17.302  0.00  0.00    +0.000 OA
ATOM     10  H   UNL     1       2.024   8.613  17.042  0.00  0.00    +0.000 HD
ENDBRANCH   3   9
BRANCH   7  11
ATOM     11  C   UNL     1       0.282   9.515  22.818  0.00  0.00    +0.000 C 
ATOM     12  O   UNL     1       1.192   9.599  23.631  0.00  0.00    +0.000 OA
BRANCH  11  13
ATOM     13  O   UNL     1      -0.994   9.322  23.194  0.00  0.00    +0.000 OA
ATOM     14  H   UNL     1      -1.275   8.391  23.227  0.00  0.00    +0.000 HD
ENDBRANCH  11  13
ENDBRANCH   7  11
BRANCH   8  15
ATOM     15  O   UNL     1       1.682   7.372  21.659  0.00  0.00    +0.000 OA
ATOM     16  H   UNL     1       0.980   6.683  21.653  0.00  0.00    +0.000 HD
ENDBRANCH   8  15
ENDBRANCH   1   2
BRANCH   1  19
ATOM     17  C   UNL     1       1.672   4.729  19.082  0.00  0.00    +0.000 C 
ATOM     18  C   UNL     1       1.292   4.701  17.626  0.00  0.00    +0.000 C 
ATOM     19  C   UNL     1       2.179   5.834  19.666  0.00  0.00    +0.000 C 
BRANCH  17  20
ATOM     20  C   UNL     1       1.435   3.459  19.878  0.00  0.00    +0.000 C 
BRANCH  20  21
ATOM     21  C   UNL     1       2.014   2.225  19.183  0.00  0.00    +0.000 C 
BRANCH  21  22
ATOM     22  C   UNL     1       3.504   2.030  19.486  0.00  0.00    +0.000 C 
BRANCH  22  25
ATOM     23  C   UNL     1       5.831   4.605  18.111  0.00  0.00    +0.000 A 
ATOM     24  C   UNL     1       5.146   4.044  19.182  0.00  0.00    +0.000 A 
ATOM     25  C   UNL     1       4.328   2.986  18.694  0.00  0.00    +0.000 A 
ATOM     26  C   UNL     1       4.513   2.999  17.333  0.00  0.00    +0.000 A 
ATOM     27  O   UNL     1       5.400   3.952  16.977  0.00  0.00    +0.000 OA
BRANCH  23  31
ATOM     28  C   UNL     1       7.878   7.787  17.607  0.00  0.00    +0.000 C 
ATOM     29  C   UNL     1       6.705   6.842  17.574  0.00  0.00    +0.000 C 
ATOM     30  C   UNL     1       5.472   7.343  16.873  0.00  0.00    +0.000 C 
ATOM     31  C   UNL     1       6.829   5.624  18.143  0.00  0.00    +0.000 C 
ENDBRANCH  23  31
ENDBRANCH  22  25
ENDBRANCH  21  22
ENDBRANCH  20  21
ENDBRANCH  17  20
ENDBRANCH   1  19
TORSDOF 11
ENDMDL
MODEL 6
REMARK VINA RESULT:      -7.3      1.922      4.294
REMARK  Name = 
REMARK  15 active torsions:
REMARK  status: ('A' for Active; 'I' for Inactive)
REMARK    1  A    between atoms: C_1  and  C_2
REMARK    2  A    between atoms: C_2  and  C_3
REMARK    3  A    between atoms: C_4  and  C_5
REMARK    4  A    between atoms: C_7  and  C_8
REMARK    5  A    between atoms: C_8  and  C_9
REMARK    6  A    between atoms: C_9  and  C_10
REMARK    7  A    between atoms: C_10  and  C_11
REMARK    8  A    between atoms: C_11  and  C_12
REMARK    9  A    between atoms: C_13  and  C_14
REMARK   10  A    between atoms: C_14  and  C_15
REMARK   11  A    between atoms: C_16  and  O_17
REMARK   12  A    between atoms: C_19  and  C_20
REMARK   13  A    between atoms: C_21  and  C_22
REMARK   14  A    between atoms: C_22  and  O_24
REMARK   15  A    between atoms: C_25  and  O_26
REMARK                            x       y       z     vdW  Elec       q    Type
REMARK                         _______ _______ _______ _____ _____    ______ ____
ROOT
ATOM      1  C   UNL     1       0.907   9.161  17.973  0.00  0.00    +0.000 C 
ENDROOT
BRANCH   1   2
ATOM      2  C   UNL     1       0.450   9.876  19.231  0.00  0.00    +0.000 A 
ATOM      3  C   UNL     1       0.607   9.325  20.506  0.00  0.00    +0.000 A 
ATOM      4  C   UNL     1       0.153   9.988  21.648  0.00  0.00    +0.000 A 
ATOM      5  C   UNL     1      -0.476  11.242  21.576  0.00  0.00    +0.000 A 
ATOM      6  C   UNL     1      -0.968  11.832  22.869  0.00  0.00    +0.000 C 
ATOM      7  C   UNL     1      -0.617  11.841  20.308  0.00  0.00    +0.000 A 
ATOM      8  C   UNL     1      -0.159  11.147  19.155  0.00  0.00    +0.000 A 
BRANCH   3   9
ATOM      9  O   UNL     1       1.207   8.121  20.748  0.00  0.00    +0.000 OA
ATOM     10  H   UNL     1       1.029   7.516  20.013  0.00  0.00    +0.000 HD
ENDBRANCH   3   9
BRANCH   7  11
ATOM     11  C   UNL     1      -1.299  13.148  20.078  0.00  0.00    +0.000 C 
ATOM     12  O   UNL     1      -0.771  14.199  20.412  0.00  0.00    +0.000 OA
BRANCH  11  13
ATOM     13  O   UNL     1      -2.548  13.103  19.581  0.00  0.00    +0.000 OA
ATOM     14  H   UNL     1      -3.080  13.903  19.736  0.00  0.00    +0.000 HD
ENDBRANCH  11  13
ENDBRANCH   7  11
BRANCH   8  15
ATOM     15  O   UNL     1      -0.279  11.700  17.897  0.00  0.00    +0.000 OA
ATOM     16  H   UNL     1      -0.972  11.216  17.393  0.00  0.00    +0.000 HD
ENDBRANCH   8  15
ENDBRANCH   1   2
BRANCH   1  19
ATOM     17  C   UNL     1       2.953   7.636  17.828  0.00  0.00    +0.000 C 
ATOM     18  C   UNL     1       2.130   6.376  17.811  0.00  0.00    +0.000 C 
ATOM     19  C   UNL     1       2.387   8.856  17.927  0.00  0.00    +0.000 C 
BRANCH  17  20
ATOM     20  C   UNL     1       4.459   7.473  17.754  0.00  0.00    +0.000 C 
BRANCH  20  21
ATOM     21  C   UNL     1       4.893   6.640  16.546  0.00  0.00    +0.000 C 
BRANCH  21  22
ATOM     22  C   UNL     1       5.783   5.458  16.942  0.00  0.00    +0.000 C 
BRANCH  22  25
ATOM     23  C   UNL     1       3.842   3.137  19.129  0.00  0.00    +0.000 A 
ATOM     24  C   UNL     1       4.756   4.173  18.977  0.00  0.00    +0.000 A 
ATOM     25  C   UNL     1       4.974   4.385  17.586  0.00  0.00    +0.000 A 
ATOM     26  C   UNL     1       4.221   3.420  16.962  0.00  0.00    +0.000 A 
ATOM     27  O   UNL     1       3.548   2.676  17.865  0.00  0.00    +0.000 OA
BRANCH  23  31
ATOM     28  C   UNL     1       1.544   2.390  22.084  0.00  0.00    +0.000 C 
ATOM     29  C   UNL     1       1.995   2.893  20.737  0.00  0.00    +0.000 C 
ATOM     30  C   UNL     1       0.975   3.660  19.942  0.00  0.00    +0.000 C 
ATOM     31  C   UNL     1       3.261   2.649  20.337  0.00  0.00    +0.000 C 
ENDBRANCH  23  31
ENDBRANCH  22  25
ENDBRANCH  21  22
ENDBRANCH  20  21
ENDBRANCH  17  20
ENDBRANCH   1  19
TORSDOF 11
ENDMDL
MODEL 7
REMARK VINA RESULT:      -7.2      2.936      4.745
REMARK  Name = 
REMARK  15 active torsions:
REMARK  status: ('A' for Active; 'I' for Inactive)
REMARK    1  A    between atoms: C_1  and  C_2
REMARK    2  A    between atoms: C_2  and  C_3
REMARK    3  A    between atoms: C_4  and  C_5
REMARK    4  A    between atoms: C_7  and  C_8
REMARK    5  A    between atoms: C_8  and  C_9
REMARK    6  A    between atoms: C_9  and  C_10
REMARK    7  A    between atoms: C_10  and  C_11
REMARK    8  A    between atoms: C_11  and  C_12
REMARK    9  A    between atoms: C_13  and  C_14
REMARK   10  A    between atoms: C_14  and  C_15
REMARK   11  A    between atoms: C_16  and  O_17
REMARK   12  A    between atoms: C_19  and  C_20
REMARK   13  A    between atoms: C_21  and  C_22
REMARK   14  A    between atoms: C_22  and  O_24
REMARK   15  A    between atoms: C_25  and  O_26
REMARK                            x       y       z     vdW  Elec       q    Type
REMARK                         _______ _______ _______ _____ _____    ______ ____
ROOT
ATOM      1  C   UNL     1       3.002   6.714  18.158  0.00  0.00    +0.000 C 
ENDROOT
BRANCH   1   2
ATOM      2  C   UNL     1       2.194   7.591  19.097  0.00  0.00    +0.000 A 
ATOM      3  C   UNL     1       1.882   7.202  20.403  0.00  0.00    +0.000 A 
ATOM      4  C   UNL     1       1.113   8.012  21.242  0.00  0.00    +0.000 A 
ATOM      5  C   UNL     1       0.622   9.259  20.819  0.00  0.00    +0.000 A 
ATOM      6  C   UNL     1      -0.238  10.017  21.794  0.00  0.00    +0.000 C 
ATOM      7  C   UNL     1       0.949   9.695  19.520  0.00  0.00    +0.000 A 
ATOM      8  C   UNL     1       1.723   8.854  18.677  0.00  0.00    +0.000 A 
BRANCH   3   9
ATOM      9  O   UNL     1       2.294   6.027  20.968  0.00  0.00    +0.000 OA
ATOM     10  H   UNL     1       3.105   6.178  21.475  0.00  0.00    +0.000 HD
ENDBRANCH   3   9
BRANCH   7  11
ATOM     11  C   UNL     1       0.463  10.976  18.927  0.00  0.00    +0.000 C 
ATOM     12  O   UNL     1      -0.485  10.991  18.154  0.00  0.00    +0.000 OA
BRANCH  11  13
ATOM     13  O   UNL     1       1.173  12.083  19.206  0.00  0.00    +0.000 OA
ATOM     14  H   UNL     1       1.960  11.937  19.759  0.00  0.00    +0.000 HD
ENDBRANCH  11  13
ENDBRANCH   7  11
BRANCH   8  15
ATOM     15  O   UNL     1       2.064   9.245  17.399  0.00  0.00    +0.000 OA
ATOM     16  H   UNL     1       1.317   9.051  16.788  0.00  0.00    +0.000 HD
ENDBRANCH   8  15
ENDBRANCH   1   2
BRANCH   1  19
ATOM     17  C   UNL     1       5.111   5.453  18.861  0.00  0.00    +0.000 C 
ATOM     18  C   UNL     1       4.395   4.134  18.981  0.00  0.00    +0.000 C 
ATOM     19  C   UNL     1       4.463   6.586  18.520  0.00  0.00    +0.000 C 
BRANCH  17  20
ATOM     20  C   UNL     1       6.597   5.459  19.166  0.00  0.00    +0.000 C 
BRANCH  20  21
ATOM     21  C   UNL     1       7.445   5.220  17.915  0.00  0.00    +0.000 C 
BRANCH  21  22
ATOM     22  C   UNL     1       7.057   6.150  16.761  0.00  0.00    +0.000 C 
BRANCH  22  25
ATOM     23  C   UNL     1       6.275   3.933  13.861  0.00  0.00    +0.000 A 
ATOM     24  C   UNL     1       7.199   4.592  14.664  0.00  0.00    +0.000 A 
ATOM     25  C   UNL     1       6.492   5.368  15.626  0.00  0.00    +0.000 A 
ATOM     26  C   UNL     1       5.165   5.186  15.317  0.00  0.00    +0.000 A 
ATOM     27  O   UNL     1       5.026   4.340  14.275  0.00  0.00    +0.000 OA
BRANCH  23  31
ATOM     28  C   UNL     1       6.047   1.599  10.850  0.00  0.00    +0.000 C 
ATOM     29  C   UNL     1       5.688   2.699  11.814  0.00  0.00    +0.000 C 
ATOM     30  C   UNL     1       4.379   3.396  11.565  0.00  0.00    +0.000 C 
ATOM     31  C   UNL     1       6.530   2.979  12.832  0.00  0.00    +0.000 C 
ENDBRANCH  23  31
ENDBRANCH  22  25
ENDBRANCH  21  22
ENDBRANCH  20  21
ENDBRANCH  17  20
ENDBRANCH   1  19
TORSDOF 11
ENDMDL
MODEL 8
REMARK VINA RESULT:      -7.2      4.323      7.843
REMARK  Name = 
REMARK  15 active torsions:
REMARK  status: ('A' for Active; 'I' for Inactive)
REMARK    1  A    between atoms: C_1  and  C_2
REMARK    2  A    between atoms: C_2  and  C_3
REMARK    3  A    between atoms: C_4  and  C_5
REMARK    4  A    between atoms: C_7  and  C_8
REMARK    5  A    between atoms: C_8  and  C_9
REMARK    6  A    between atoms: C_9  and  C_10
REMARK    7  A    between atoms: C_10  and  C_11
REMARK    8  A    between atoms: C_11  and  C_12
REMARK    9  A    between atoms: C_13  and  C_14
REMARK   10  A    between atoms: C_14  and  C_15
REMARK   11  A    between atoms: C_16  and  O_17
REMARK   12  A    between atoms: C_19  and  C_20
REMARK   13  A    between atoms: C_21  and  C_22
REMARK   14  A    between atoms: C_22  and  O_24
REMARK   15  A    between atoms: C_25  and  O_26
REMARK                            x       y       z     vdW  Elec       q    Type
REMARK                         _______ _______ _______ _____ _____    ______ ____
ROOT
ATOM      1  C   UNL     1       4.453   6.740  16.994  0.00  0.00    +0.000 C 
ENDROOT
BRANCH   1   2
ATOM      2  C   UNL     1       3.913   5.426  17.528  0.00  0.00    +0.000 A 
ATOM      3  C   UNL     1       4.145   4.205  16.887  0.00  0.00    +0.000 A 
ATOM      4  C   UNL     1       3.614   3.011  17.379  0.00  0.00    +0.000 A 
ATOM      5  C   UNL     1       2.828   2.974  18.544  0.00  0.00    +0.000 A 
ATOM      6  C   UNL     1       2.270   1.636  18.946  0.00  0.00    +0.000 C 
ATOM      7  C   UNL     1       2.606   4.183  19.232  0.00  0.00    +0.000 A 
ATOM      8  C   UNL     1       3.145   5.391  18.712  0.00  0.00    +0.000 A 
BRANCH   3   9
ATOM      9  O   UNL     1       4.896   4.069  15.753  0.00  0.00    +0.000 OA
ATOM     10  H   UNL     1       4.323   3.824  15.013  0.00  0.00    +0.000 HD
ENDBRANCH   3   9
BRANCH   7  11
ATOM     11  C   UNL     1       1.760   4.299  20.457  0.00  0.00    +0.000 C 
ATOM     12  O   UNL     1       2.268   4.434  21.561  0.00  0.00    +0.000 OA
BRANCH  11  13
ATOM     13  O   UNL     1       0.434   4.151  20.295  0.00  0.00    +0.000 OA
ATOM     14  H   UNL     1       0.016   3.512  20.898  0.00  0.00    +0.000 HD
ENDBRANCH  11  13
ENDBRANCH   7  11
BRANCH   8  15
ATOM     15  O   UNL     1       2.949   6.594  19.356  0.00  0.00    +0.000 OA
ATOM     16  H   UNL     1       3.654   6.722  20.030  0.00  0.00    +0.000 HD
ENDBRANCH   8  15
ENDBRANCH   1   2
BRANCH   1  19
ATOM     17  C   UNL     1       6.959   6.965  17.444  0.00  0.00    +0.000 C 
ATOM     18  C   UNL     1       7.337   5.992  16.359  0.00  0.00    +0.000 C 
ATOM     19  C   UNL     1       5.672   7.259  17.722  0.00  0.00    +0.000 C 
BRANCH  17  20
ATOM     20  C   UNL     1       8.095   7.588  18.234  0.00  0.00    +0.000 C 
BRANCH  20  21
ATOM     21  C   UNL     1       8.266   9.077  17.926  0.00  0.00    +0.000 C 
BRANCH  21  22
ATOM     22  C   UNL     1       9.123   9.794  18.974  0.00  0.00    +0.000 C 
BRANCH  22  25
ATOM     23  C   UNL     1       9.619  13.434  18.309  0.00  0.00    +0.000 A 
ATOM     24  C   UNL     1       8.895  12.399  18.890  0.00  0.00    +0.000 A 
ATOM     25  C   UNL     1       9.486  11.161  18.507  0.00  0.00    +0.000 A 
ATOM     26  C   UNL     1      10.508  11.509  17.657  0.00  0.00    +0.000 A 
ATOM     27  O   UNL     1      10.595  12.849  17.533  0.00  0.00    +0.000 OA
BRANCH  23  31
ATOM     28  C   UNL     1       8.312  17.020  18.352  0.00  0.00    +0.000 C 
ATOM     29  C   UNL     1       8.321  15.522  18.191  0.00  0.00    +0.000 C 
ATOM     30  C   UNL     1       7.051  14.904  17.675  0.00  0.00    +0.000 C 
ATOM     31  C   UNL     1       9.445  14.838  18.493  0.00  0.00    +0.000 C 
ENDBRANCH  23  31
ENDBRANCH  22  25
ENDBRANCH  21  22
ENDBRANCH  20  21
ENDBRANCH  17  20
ENDBRANCH   1  19
TORSDOF 11
ENDMDL
MODEL 9
REMARK VINA RESULT:      -7.2      2.350      3.844
REMARK  Name = 
REMARK  15 active torsions:
REMARK  status: ('A' for Active; 'I' for Inactive)
REMARK    1  A    between atoms: C_1  and  C_2
REMARK    2  A    between atoms: C_2  and  C_3
REMARK    3  A    between atoms: C_4  and  C_5
REMARK    4  A    between atoms: C_7  and  C_8
REMARK    5  A    between atoms: C_8  and  C_9
REMARK    6  A    between atoms: C_9  and  C_10
REMARK    7  A    between atoms: C_10  and  C_11
REMARK    8  A    between atoms: C_11  and  C_12
REMARK    9  A    between atoms: C_13  and  C_14
REMARK   10  A    between atoms: C_14  and  C_15
REMARK   11  A    between atoms: C_16  and  O_17
REMARK   12  A    between atoms: C_19  and  C_20
REMARK   13  A    between atoms: C_21  and  C_22
REMARK   14  A    between atoms: C_22  and  O_24
REMARK   15  A    between atoms: C_25  and  O_26
REMARK                            x       y       z     vdW  Elec       q    Type
REMARK                         _______ _______ _______ _____ _____    ______ ____
ROOT
ATOM      1  C   UNL     1       1.328  10.047  18.593  0.00  0.00    +0.000 C 
ENDROOT
BRANCH   1   2
ATOM      2  C   UNL     1       0.081  10.769  19.068  0.00  0.00    +0.000 A 
ATOM      3  C   UNL     1       0.059  11.541  20.233  0.00  0.00    +0.000 A 
ATOM      4  C   UNL     1      -1.108  12.174  20.667  0.00  0.00    +0.000 A 
ATOM      5  C   UNL     1      -2.314  12.074  19.954  0.00  0.00    +0.000 A 
ATOM      6  C   UNL     1      -3.515  12.756  20.549  0.00  0.00    +0.000 C 
ATOM      7  C   UNL     1      -2.316  11.331  18.756  0.00  0.00    +0.000 A 
ATOM      8  C   UNL     1      -1.123  10.685  18.335  0.00  0.00    +0.000 A 
BRANCH   3   9
ATOM      9  O   UNL     1       1.149  11.748  21.032  0.00  0.00    +0.000 OA
ATOM     10  H   UNL     1       0.996  12.521  21.594  0.00  0.00    +0.000 HD
ENDBRANCH   3   9
BRANCH   7  11
ATOM     11  C   UNL     1      -3.532  11.107  17.920  0.00  0.00    +0.000 C 
ATOM     12  O   UNL     1      -4.061  10.006  17.862  0.00  0.00    +0.000 OA
BRANCH  11  13
ATOM     13  O   UNL     1      -3.951  12.140  17.168  0.00  0.00    +0.000 OA
ATOM     14  H   UNL     1      -4.838  12.474  17.387  0.00  0.00    +0.000 HD
ENDBRANCH  11  13
ENDBRANCH   7  11
BRANCH   8  15
ATOM     15  O   UNL     1      -1.084   9.949  17.169  0.00  0.00    +0.000 OA
ATOM     16  H   UNL     1      -0.575   9.121  17.322  0.00  0.00    +0.000 HD
ENDBRANCH   8  15
ENDBRANCH   1   2
BRANCH   1  19
ATOM     17  C   UNL     1       2.345   7.730  18.954  0.00  0.00    +0.000 C 
ATOM     18  C   UNL     1       2.760   7.585  17.513  0.00  0.00    +0.000 C 
ATOM     19  C   UNL     1       1.689   8.820  19.400  0.00  0.00    +0.000 C 
BRANCH  17  20
ATOM     20  C   UNL     1       2.678   6.578  19.883  0.00  0.00    +0.000 C 
BRANCH  20  21
ATOM     21  C   UNL     1       1.434   5.792  20.299  0.00  0.00    +0.000 C 
BRANCH  21  22
ATOM     22  C   UNL     1       1.297   4.470  19.537  0.00  0.00    +0.000 C 
BRANCH  22  25
ATOM     23  C   UNL     1       4.289   3.698  17.442  0.00  0.00    +0.000 A 
ATOM     24  C   UNL     1       2.932   3.981  17.554  0.00  0.00    +0.000 A 
ATOM     25  C   UNL     1       2.602   4.075  18.936  0.00  0.00    +0.000 A 
ATOM     26  C   UNL     1       3.770   3.782  19.597  0.00  0.00    +0.000 A 
ATOM     27  O   UNL     1       4.773   3.557  18.723  0.00  0.00    +0.000 OA
BRANCH  23  31
ATOM     28  C   UNL     1       6.357   4.431  14.319  0.00  0.00    +0.000 C 
ATOM     29  C   UNL     1       5.634   4.662  15.620  0.00  0.00    +0.000 C 
ATOM     30  C   UNL     1       5.583   6.084  16.105  0.00  0.00    +0.000 C 
ATOM     31  C   UNL     1       5.071   3.610  16.252  0.00  0.00    +0.000 C 
ENDBRANCH  23  31
ENDBRANCH  22  25
ENDBRANCH  21  22
ENDBRANCH  20  21
ENDBRANCH  17  20
ENDBRANCH   1  19
TORSDOF 11
ENDMDL
