MODEL 1
REMARK VINA RESULT:      -7.6      0.000      0.000
REMARK  Name = 
REMARK  2 active torsions:
REMARK  status: ('A' for Active; 'I' for Inactive)
REMARK    1  A    between atoms: C_8  and  C_9
REMARK    2  A    between atoms: C_11  and  C_12
REMARK                            x       y       z     vdW  Elec       q    Type
REMARK                         _______ _______ _______ _____ _____    ______ ____
ROOT
ATOM      1  C   UNL     1       4.371   3.993  18.107  0.00  0.00    +0.000 C 
ATOM      2  N   UNL     1       5.565   3.861  18.594  0.00  0.00    +0.000 NA
ATOM      3  C   UNL     1       6.440   4.311  17.493  0.00  0.00    +0.000 C 
ATOM      4  C   UNL     1       5.531   4.302  16.271  0.00  0.00    +0.000 C 
ATOM      5  O   UNL     1       4.214   4.359  16.812  0.00  0.00    +0.000 OA
ENDROOT
BRANCH   1  13
ATOM      6  F   UNL     1       3.398   5.920  19.977  0.00  0.00    +0.000 F 
ATOM      7  C   UNL     1       2.690   4.804  19.755  0.00  0.00    +0.000 A 
ATOM      8  C   UNL     1       1.489   4.641  20.449  0.00  0.00    +0.000 A 
ATOM      9  C   UNL     1       0.706   3.508  20.232  0.00  0.00    +0.000 A 
ATOM     10  C   UNL     1       1.133   2.539  19.327  0.00  0.00    +0.000 A 
ATOM     11  C   UNL     1       2.335   2.709  18.641  0.00  0.00    +0.000 A 
ATOM     12  F   UNL     1       2.722   1.733  17.809  0.00  0.00    +0.000 F 
ATOM     13  C   UNL     1       3.121   3.843  18.845  0.00  0.00    +0.000 A 
ENDBRANCH   1  13
BRANCH   3  14
ATOM     14  C   UNL     1       7.047   5.669  17.802  0.00  0.00    +0.000 A 
ATOM     15  C   UNL     1       6.810   6.755  16.946  0.00  0.00    +0.000 A 
ATOM     16  C   UNL     1       7.392   8.000  17.198  0.00  0.00    +0.000 A 
ATOM     17  C   UNL     1       8.221   8.176  18.305  0.00  0.00    +0.000 A 
ATOM     18  C   UNL     1       8.465   7.109  19.165  0.00  0.00    +0.000 A 
ATOM     19  C   UNL     1       7.881   5.867  18.916  0.00  0.00    +0.000 A 
ENDBRANCH   3  14
TORSDOF 2
ENDMDL
MODEL 2
REMARK VINA RESULT:      -7.6      0.159      1.117
REMARK  Name = 
REMARK  2 active torsions:
REMARK  status: ('A' for Active; 'I' for Inactive)
REMARK    1  A    between atoms: C_8  and  C_9
REMARK    2  A    between atoms: C_11  and  C_12
REMARK                            x       y       z     vdW  Elec       q    Type
REMARK                         _______ _______ _______ _____ _____    ______ ____
ROOT
ATOM      1  C   UNL     1       4.353   3.938  18.043  0.00  0.00    +0.000 C 
ATOM      2  N   UNL     1       5.551   3.769  18.507  0.00  0.00    +0.000 NA
ATOM      3  C   UNL     1       6.418   4.212  17.396  0.00  0.00    +0.000 C 
ATOM      4  C   UNL     1       5.488   4.244  16.190  0.00  0.00    +0.000 C 
ATOM      5  O   UNL     1       4.182   4.327  16.756  0.00  0.00    +0.000 OA
ENDROOT
BRANCH   1  13
ATOM      6  F   UNL     1       3.573   5.741  20.116  0.00  0.00    +0.000 F 
ATOM      7  C   UNL     1       2.777   4.707  19.811  0.00  0.00    +0.000 A 
ATOM      8  C   UNL     1       1.583   4.566  20.522  0.00  0.00    +0.000 A 
ATOM      9  C   UNL     1       0.712   3.520  20.224  0.00  0.00    +0.000 A 
ATOM     10  C   UNL     1       1.043   2.614  19.218  0.00  0.00    +0.000 A 
ATOM     11  C   UNL     1       2.238   2.761  18.514  0.00  0.00    +0.000 A 
ATOM     12  F   UNL     1       2.530   1.844  17.582  0.00  0.00    +0.000 F 
ATOM     13  C   UNL     1       3.112   3.809  18.801  0.00  0.00    +0.000 A 
ENDBRANCH   1  13
BRANCH   3  14
ATOM     14  C   UNL     1       7.065   5.550  17.713  0.00  0.00    +0.000 A 
ATOM     15  C   UNL     1       7.847   5.696  18.868  0.00  0.00    +0.000 A 
ATOM     16  C   UNL     1       8.417   6.931  19.189  0.00  0.00    +0.000 A 
ATOM     17  C   UNL     1       8.211   8.036  18.364  0.00  0.00    +0.000 A 
ATOM     18  C   UNL     1       7.439   7.906  17.214  0.00  0.00    +0.000 A 
ATOM     19  C   UNL     1       6.872   6.673  16.890  0.00  0.00    +0.000 A 
ENDBRANCH   3  14
TORSDOF 2
ENDMDL
MODEL 3
REMARK VINA RESULT:      -7.5      0.521      1.927
REMARK  Name = 
REMARK  2 active torsions:
REMARK  status: ('A' for Active; 'I' for Inactive)
REMARK    1  A    between atoms: C_8  and  C_9
REMARK    2  A    between atoms: C_11  and  C_12
REMARK                            x       y       z     vdW  Elec       q    Type
REMARK                         _______ _______ _______ _____ _____    ______ ____
ROOT
ATOM      1  C   UNL     1       4.614   4.007  18.449  0.00  0.00    +0.000 C 
ATOM      2  N   UNL     1       5.822   4.025  18.917  0.00  0.00    +0.000 NA
ATOM      3  C   UNL     1       6.639   4.423  17.754  0.00  0.00    +0.000 C 
ATOM      4  C   UNL     1       5.715   4.209  16.562  0.00  0.00    +0.000 C 
ATOM      5  O   UNL     1       4.406   4.218  17.126  0.00  0.00    +0.000 OA
ENDROOT
BRANCH   1  13
ATOM      6  F   UNL     1       3.289   1.499  18.782  0.00  0.00    +0.000 F 
ATOM      7  C   UNL     1       2.774   2.595  19.356  0.00  0.00    +0.000 A 
ATOM      8  C   UNL     1       1.607   2.454  20.110  0.00  0.00    +0.000 A 
ATOM      9  C   UNL     1       1.049   3.562  20.745  0.00  0.00    +0.000 A 
ATOM     10  C   UNL     1       1.658   4.808  20.618  0.00  0.00    +0.000 A 
ATOM     11  C   UNL     1       2.822   4.940  19.862  0.00  0.00    +0.000 A 
ATOM     12  F   UNL     1       3.351   6.165  19.738  0.00  0.00    +0.000 F 
ATOM     13  C   UNL     1       3.392   3.836  19.229  0.00  0.00    +0.000 A 
ENDBRANCH   1  13
BRANCH   3  14
ATOM     14  C   UNL     1       7.136   5.851  17.902  0.00  0.00    +0.000 A 
ATOM     15  C   UNL     1       6.716   6.839  16.998  0.00  0.00    +0.000 A 
ATOM     16  C   UNL     1       7.194   8.147  17.101  0.00  0.00    +0.000 A 
ATOM     17  C   UNL     1       8.101   8.487  18.104  0.00  0.00    +0.000 A 
ATOM     18  C   UNL     1       8.526   7.519  19.009  0.00  0.00    +0.000 A 
ATOM     19  C   UNL     1       8.046   6.213  18.910  0.00  0.00    +0.000 A 
ENDBRANCH   3  14
TORSDOF 2
ENDMDL
MODEL 4
REMARK VINA RESULT:      -7.5      0.370      2.205
REMARK  Name = 
REMARK  2 active torsions:
REMARK  status: ('A' for Active; 'I' for Inactive)
REMARK    1  A    between atoms: C_8  and  C_9
REMARK    2  A    between atoms: C_11  and  C_12
REMARK                            x       y       z     vdW  Elec       q    Type
REMARK                         _______ _______ _______ _____ _____    ______ ____
ROOT
ATOM      1  C   UNL     1       4.495   4.013  18.322  0.00  0.00    +0.000 C 
ATOM      2  N   UNL     1       5.709   3.906  18.763  0.00  0.00    +0.000 NA
ATOM      3  C   UNL     1       6.533   4.304  17.604  0.00  0.00    +0.000 C 
ATOM      4  C   UNL     1       5.573   4.235  16.424  0.00  0.00    +0.000 C 
ATOM      5  O   UNL     1       4.280   4.316  17.019  0.00  0.00    +0.000 OA
ENDROOT
BRANCH   1  13
ATOM      6  F   UNL     1       3.002   1.592  18.584  0.00  0.00    +0.000 F 
ATOM      7  C   UNL     1       2.577   2.697  19.212  0.00  0.00    +0.000 A 
ATOM      8  C   UNL     1       1.416   2.607  19.983  0.00  0.00    +0.000 A 
ATOM      9  C   UNL     1       0.949   3.724  20.674  0.00  0.00    +0.000 A 
ATOM     10  C   UNL     1       1.642   4.929  20.583  0.00  0.00    +0.000 A 
ATOM     11  C   UNL     1       2.799   5.010  19.808  0.00  0.00    +0.000 A 
ATOM     12  F   UNL     1       3.410   6.199  19.722  0.00  0.00    +0.000 F 
ATOM     13  C   UNL     1       3.278   3.896  19.120  0.00  0.00    +0.000 A 
ENDBRANCH   1  13
BRANCH   3  14
ATOM     14  C   UNL     1       7.148   5.677  17.820  0.00  0.00    +0.000 A 
ATOM     15  C   UNL     1       7.927   5.927  18.960  0.00  0.00    +0.000 A 
ATOM     16  C   UNL     1       8.467   7.195  19.189  0.00  0.00    +0.000 A 
ATOM     17  C   UNL     1       8.234   8.231  18.286  0.00  0.00    +0.000 A 
ATOM     18  C   UNL     1       7.464   7.999  17.150  0.00  0.00    +0.000 A 
ATOM     19  C   UNL     1       6.928   6.732  16.918  0.00  0.00    +0.000 A 
ENDBRANCH   3  14
TORSDOF 2
ENDMDL
MODEL 5
REMARK VINA RESULT:      -7.4      2.261      4.022
REMARK  Name = 
REMARK  2 active torsions:
REMARK  status: ('A' for Active; 'I' for Inactive)
REMARK    1  A    between atoms: C_8  and  C_9
REMARK    2  A    between atoms: C_11  and  C_12
REMARK                            x       y       z     vdW  Elec       q    Type
REMARK                         _______ _______ _______ _____ _____    ______ ____
ROOT
ATOM      1  C   UNL     1       4.900   4.898  17.414  0.00  0.00    +0.000 C 
ATOM      2  N   UNL     1       5.033   5.772  16.466  0.00  0.00    +0.000 NA
ATOM      3  C   UNL     1       6.423   5.575  16.007  0.00  0.00    +0.000 C 
ATOM      4  C   UNL     1       7.070   4.763  17.121  0.00  0.00    +0.000 C 
ATOM      5  O   UNL     1       5.971   4.165  17.804  0.00  0.00    +0.000 OA
ENDROOT
BRANCH   1  13
ATOM      6  F   UNL     1       2.856   3.271  16.258  0.00  0.00    +0.000 F 
ATOM      7  C   UNL     1       2.682   3.767  17.492  0.00  0.00    +0.000 A 
ATOM      8  C   UNL     1       1.501   3.450  18.165  0.00  0.00    +0.000 A 
ATOM      9  C   UNL     1       1.287   3.923  19.459  0.00  0.00    +0.000 A 
ATOM     10  C   UNL     1       2.255   4.717  20.071  0.00  0.00    +0.000 A 
ATOM     11  C   UNL     1       3.431   5.031  19.389  0.00  0.00    +0.000 A 
ATOM     12  F   UNL     1       4.315   5.828  20.004  0.00  0.00    +0.000 F 
ATOM     13  C   UNL     1       3.657   4.556  18.098  0.00  0.00    +0.000 A 
ENDBRANCH   1  13
BRANCH   3  14
ATOM     14  C   UNL     1       6.454   4.894  14.648  0.00  0.00    +0.000 A 
ATOM     15  C   UNL     1       7.504   5.156  13.755  0.00  0.00    +0.000 A 
ATOM     16  C   UNL     1       7.526   4.565  12.489  0.00  0.00    +0.000 A 
ATOM     17  C   UNL     1       6.498   3.709  12.097  0.00  0.00    +0.000 A 
ATOM     18  C   UNL     1       5.450   3.437  12.972  0.00  0.00    +0.000 A 
ATOM     19  C   UNL     1       5.430   4.023  14.238  0.00  0.00    +0.000 A 
ENDBRANCH   3  14
TORSDOF 2
ENDMDL
MODEL 6
REMARK VINA RESULT:      -7.4      2.247      3.603
REMARK  Name = 
REMARK  2 active torsions:
REMARK  status: ('A' for Active; 'I' for Inactive)
REMARK    1  A    between atoms: C_8  and  C_9
REMARK    2  A    between atoms: C_11  and  C_12
REMARK                            x       y       z     vdW  Elec       q    Type
REMARK                         _______ _______ _______ _____ _____    ______ ____
ROOT
ATOM      1  C   UNL     1       4.898   4.899  17.433  0.00  0.00    +0.000 C 
ATOM      2  N   UNL     1       5.030   5.775  16.487  0.00  0.00    +0.000 NA
ATOM      3  C   UNL     1       6.416   5.573  16.020  0.00  0.00    +0.000 C 
ATOM      4  C   UNL     1       7.067   4.757  17.129  0.00  0.00    +0.000 C 
ATOM      5  O   UNL     1       5.969   4.162  17.816  0.00  0.00    +0.000 OA
ENDROOT
BRANCH   1  13
ATOM      6  F   UNL     1       4.231   5.847  20.043  0.00  0.00    +0.000 F 
ATOM      7  C   UNL     1       3.378   5.038  19.400  0.00  0.00    +0.000 A 
ATOM      8  C   UNL     1       2.183   4.703  20.040  0.00  0.00    +0.000 A 
ATOM      9  C   UNL     1       1.254   3.884  19.401  0.00  0.00    +0.000 A 
ATOM     10  C   UNL     1       1.528   3.398  18.124  0.00  0.00    +0.000 A 
ATOM     11  C   UNL     1       2.725   3.736  17.493  0.00  0.00    +0.000 A 
ATOM     12  F   UNL     1       2.961   3.214  16.282  0.00  0.00    +0.000 F 
ATOM     13  C   UNL     1       3.657   4.560  18.122  0.00  0.00    +0.000 A 
ENDBRANCH   1  13
BRANCH   3  14
ATOM     14  C   UNL     1       6.438   4.895  14.660  0.00  0.00    +0.000 A 
ATOM     15  C   UNL     1       7.499   5.134  13.773  0.00  0.00    +0.000 A 
ATOM     16  C   UNL     1       7.513   4.546  12.505  0.00  0.00    +0.000 A 
ATOM     17  C   UNL     1       6.466   3.716  12.105  0.00  0.00    +0.000 A 
ATOM     18  C   UNL     1       5.408   3.468  12.974  0.00  0.00    +0.000 A 
ATOM     19  C   UNL     1       5.395   4.052  14.241  0.00  0.00    +0.000 A 
ENDBRANCH   3  14
TORSDOF 2
ENDMDL
MODEL 7
REMARK VINA RESULT:      -7.3      2.910      4.360
REMARK  Name = 
REMARK  2 active torsions:
REMARK  status: ('A' for Active; 'I' for Inactive)
REMARK    1  A    between atoms: C_8  and  C_9
REMARK    2  A    between atoms: C_11  and  C_12
REMARK                            x       y       z     vdW  Elec       q    Type
REMARK                         _______ _______ _______ _____ _____    ______ ____
ROOT
ATOM      1  C   UNL     1       2.793   6.162  19.002  0.00  0.00    +0.000 C 
ATOM      2  N   UNL     1       3.945   5.793  19.467  0.00  0.00    +0.000 NA
ATOM      3  C   UNL     1       4.103   4.418  18.951  0.00  0.00    +0.000 C 
ATOM      4  C   UNL     1       2.700   4.026  18.505  0.00  0.00    +0.000 C 
ATOM      5  O   UNL     1       2.029   5.271  18.325  0.00  0.00    +0.000 OA
ENDROOT
BRANCH   1  13
ATOM      6  F   UNL     1       1.393   7.160  21.282  0.00  0.00    +0.000 F 
ATOM      7  C   UNL     1       1.542   7.946  20.207  0.00  0.00    +0.000 A 
ATOM      8  C   UNL     1       1.010   9.236  20.258  0.00  0.00    +0.000 A 
ATOM      9  C   UNL     1       1.163  10.098  19.173  0.00  0.00    +0.000 A 
ATOM     10  C   UNL     1       1.841   9.662  18.037  0.00  0.00    +0.000 A 
ATOM     11  C   UNL     1       2.368   8.371  17.994  0.00  0.00    +0.000 A 
ATOM     12  F   UNL     1       2.980   7.984  16.866  0.00  0.00    +0.000 F 
ATOM     13  C   UNL     1       2.227   7.504  19.078  0.00  0.00    +0.000 A 
ENDBRANCH   1  13
BRANCH   3  14
ATOM     14  C   UNL     1       5.140   4.370  17.840  0.00  0.00    +0.000 A 
ATOM     15  C   UNL     1       6.479   4.685  18.115  0.00  0.00    +0.000 A 
ATOM     16  C   UNL     1       7.435   4.681  17.096  0.00  0.00    +0.000 A 
ATOM     17  C   UNL     1       7.066   4.366  15.789  0.00  0.00    +0.000 A 
ATOM     18  C   UNL     1       5.742   4.051  15.500  0.00  0.00    +0.000 A 
ATOM     19  C   UNL     1       4.787   4.051  16.518  0.00  0.00    +0.000 A 
ENDBRANCH   3  14
TORSDOF 2
ENDMDL
MODEL 8
REMARK VINA RESULT:      -7.3      2.912      4.454
REMARK  Name = 
REMARK  2 active torsions:
REMARK  status: ('A' for Active; 'I' for Inactive)
REMARK    1  A    between atoms: C_8  and  C_9
REMARK    2  A    between atoms: C_11  and  C_12
REMARK                            x       y       z     vdW  Elec       q    Type
REMARK                         _______ _______ _______ _____ _____    ______ ____
ROOT
ATOM      1  C   UNL     1       2.773   6.175  19.013  0.00  0.00    +0.000 C 
ATOM      2  N   UNL     1       3.924   5.802  19.478  0.00  0.00    +0.000 NA
ATOM      3  C   UNL     1       4.078   4.428  18.961  0.00  0.00    +0.000 C 
ATOM      4  C   UNL     1       2.674   4.040  18.515  0.00  0.00    +0.000 C 
ATOM      5  O   UNL     1       2.006   5.286  18.335  0.00  0.00    +0.000 OA
ENDROOT
BRANCH   1  13
ATOM      6  F   UNL     1       2.924   8.075  16.886  0.00  0.00    +0.000 F 
ATOM      7  C   UNL     1       2.316   8.417  18.030  0.00  0.00    +0.000 A 
ATOM      8  C   UNL     1       1.768   9.697  18.124  0.00  0.00    +0.000 A 
ATOM      9  C   UNL     1       1.104  10.089  19.286  0.00  0.00    +0.000 A 
ATOM     10  C   UNL     1       0.998   9.199  20.352  0.00  0.00    +0.000 A 
ATOM     11  C   UNL     1       1.551   7.922  20.250  0.00  0.00    +0.000 A 
ATOM     12  F   UNL     1       1.456   7.115  21.315  0.00  0.00    +0.000 F 
ATOM     13  C   UNL     1       2.210   7.519  19.089  0.00  0.00    +0.000 A 
ENDBRANCH   1  13
BRANCH   3  14
ATOM     14  C   UNL     1       5.114   4.378  17.850  0.00  0.00    +0.000 A 
ATOM     15  C   UNL     1       6.456   4.679  18.128  0.00  0.00    +0.000 A 
ATOM     16  C   UNL     1       7.412   4.673  17.109  0.00  0.00    +0.000 A 
ATOM     17  C   UNL     1       7.041   4.370  15.800  0.00  0.00    +0.000 A 
ATOM     18  C   UNL     1       5.714   4.067  15.508  0.00  0.00    +0.000 A 
ATOM     19  C   UNL     1       4.759   4.069  16.526  0.00  0.00    +0.000 A 
ENDBRANCH   3  14
TORSDOF 2
ENDMDL
MODEL 9
REMARK VINA RESULT:      -7.3      2.925      4.273
REMARK  Name = 
REMARK  2 active torsions:
REMARK  status: ('A' for Active; 'I' for Inactive)
REMARK    1  A    between atoms: C_8  and  C_9
REMARK    2  A    between atoms: C_11  and  C_12
REMARK                            x       y       z     vdW  Elec       q    Type
REMARK                         _______ _______ _______ _____ _____    ______ ____
ROOT
ATOM      1  C   UNL     1       2.778   6.201  19.027  0.00  0.00    +0.000 C 
ATOM      2  N   UNL     1       3.938   5.843  19.479  0.00  0.00    +0.000 NA
ATOM      3  C   UNL     1       4.110   4.475  18.948  0.00  0.00    +0.000 C 
ATOM      4  C   UNL     1       2.708   4.069  18.510  0.00  0.00    +0.000 C 
ATOM      5  O   UNL     1       2.019   5.306  18.348  0.00  0.00    +0.000 OA
ENDROOT
BRANCH   1  13
ATOM      6  F   UNL     1       1.385   7.159  21.329  0.00  0.00    +0.000 F 
ATOM      7  C   UNL     1       1.515   7.957  20.260  0.00  0.00    +0.000 A 
ATOM      8  C   UNL     1       0.966   9.240  20.329  0.00  0.00    +0.000 A 
ATOM      9  C   UNL     1       1.097  10.114  19.250  0.00  0.00    +0.000 A 
ATOM     10  C   UNL     1       1.771   9.697  18.104  0.00  0.00    +0.000 A 
ATOM     11  C   UNL     1       2.314   8.413  18.044  0.00  0.00    +0.000 A 
ATOM     12  F   UNL     1       2.920   8.045  16.907  0.00  0.00    +0.000 F 
ATOM     13  C   UNL     1       2.194   7.535  19.121  0.00  0.00    +0.000 A 
ENDBRANCH   1  13
BRANCH   3  14
ATOM     14  C   UNL     1       5.137   4.452  17.828  0.00  0.00    +0.000 A 
ATOM     15  C   UNL     1       4.742   4.140  16.519  0.00  0.00    +0.000 A 
ATOM     16  C   UNL     1       5.683   4.078  15.487  0.00  0.00    +0.000 A 
ATOM     17  C   UNL     1       7.030   4.324  15.750  0.00  0.00    +0.000 A 
ATOM     18  C   UNL     1       7.437   4.636  17.044  0.00  0.00    +0.000 A 
ATOM     19  C   UNL     1       6.498   4.702  18.074  0.00  0.00    +0.000 A 
ENDBRANCH   3  14
TORSDOF 2
ENDMDL
