MODEL 1
REMARK VINA RESULT:      -7.8      0.000      0.000
REMARK  Name = 
REMARK  4 active torsions:
REMARK  status: ('A' for Active; 'I' for Inactive)
REMARK    1  A    between atoms: N_1  and  C_2
REMARK    2  A    between atoms: C_3  and  C_4
REMARK    3  A    between atoms: C_17  and  C_18
REMARK    4  A    between atoms: N_25  and  C_26
REMARK                            x       y       z     vdW  Elec       q    Type
REMARK                         _______ _______ _______ _____ _____    ______ ____
ROOT
ATOM      1  C   UNL     1       1.016  11.157  19.127  0.00  0.00    +0.000 A 
ATOM      2  C   UNL     1       0.854   9.889  19.742  0.00  0.00    +0.000 A 
ATOM      3  N   UNL     1      -0.017   9.681  20.770  0.00  0.00    +0.000 NA
ATOM      4  C   UNL     1      -0.710  10.728  21.247  0.00  0.00    +0.000 A 
ATOM      5  C   UNL     1      -0.585  12.007  20.740  0.00  0.00    +0.000 A 
ATOM      6  C   UNL     1       0.299  12.237  19.681  0.00  0.00    +0.000 A 
ATOM      7  C   UNL     1       0.406  13.614  19.083  0.00  0.00    +0.000 C 
ATOM      8  O   UNL     1       1.044  13.777  18.051  0.00  0.00    +0.000 OA
ATOM      9  C   UNL     1      -0.357  14.664  19.731  0.00  0.00    +0.000 A 
ATOM     10  C   UNL     1      -0.541  16.045  19.451  0.00  0.00    +0.000 A 
ATOM     11  N   UNL     1      -1.485  16.552  20.268  0.00  0.00    +0.000 NA
ATOM     12  N   UNL     1      -1.812  15.566  21.137  0.00  0.00    +0.000 N 
ATOM     13  C   UNL     1      -1.197  14.385  20.793  0.00  0.00    +0.000 A 
ATOM     14  C   UNL     1      -1.428  13.069  21.299  0.00  0.00    +0.000 C 
ATOM     15  O   UNL     1      -2.292  12.752  22.113  0.00  0.00    +0.000 OA
ENDROOT
BRANCH  12  16
ATOM     16  C   UNL     1      -2.640  15.842  22.256  0.00  0.00    +0.000 A 
ATOM     17  C   UNL     1      -2.089  16.160  23.508  0.00  0.00    +0.000 A 
ATOM     18  C   UNL     1      -2.919  16.460  24.589  0.00  0.00    +0.000 A 
ATOM     19  C   UNL     1      -4.297  16.457  24.413  0.00  0.00    +0.000 A 
ATOM     20  F   UNL     1      -5.090  16.780  25.442  0.00  0.00    +0.000 F 
ATOM     21  C   UNL     1      -4.859  16.140  23.185  0.00  0.00    +0.000 A 
ATOM     22  C   UNL     1      -4.030  15.840  22.108  0.00  0.00    +0.000 A 
ATOM     23  F   UNL     1      -4.612  15.483  20.954  0.00  0.00    +0.000 F 
ENDBRANCH  12  16
BRANCH   2  24
ATOM     24  C   UNL     1       1.601   8.677  19.357  0.00  0.00    +0.000 A 
ATOM     25  C   UNL     1       2.102   8.497  18.056  0.00  0.00    +0.000 A 
ATOM     26  C   UNL     1       2.767   7.326  17.707  0.00  0.00    +0.000 A 
ATOM     27  C   UNL     1       2.934   6.354  18.676  0.00  0.00    +0.000 A 
ATOM     28  N   UNL     1       2.488   6.472  19.938  0.00  0.00    +0.000 NA
ATOM     29  C   UNL     1       1.818   7.610  20.232  0.00  0.00    +0.000 A 
ENDBRANCH   2  24
BRANCH  10  30
ATOM     30  C   UNL     1       0.098  16.878  18.413  0.00  0.00    +0.000 A 
ATOM     31  C   UNL     1      -0.664  17.661  17.547  0.00  0.00    +0.000 A 
ATOM     32  C   UNL     1      -0.019  18.403  16.554  0.00  0.00    +0.000 A 
ATOM     33  C   UNL     1       1.367  18.347  16.456  0.00  0.00    +0.000 A 
ATOM     34  C   UNL     1       2.050  17.560  17.363  0.00  0.00    +0.000 A 
ATOM     35  N   UNL     1       1.450  16.843  18.346  0.00  0.00    +0.000 NA
ENDBRANCH  10  30
BRANCH   1  36
ATOM     36  N   UNL     1       1.989  11.380  18.130  0.00  0.00    +0.000 N 
ATOM     37  H   UNL     1       2.914  11.014  18.339  0.00  0.00    +0.000 HD
ATOM     38  H   UNL     1       1.682  11.098  17.188  0.00  0.00    +0.000 HD
ENDBRANCH   1  36
TORSDOF 4
ENDMDL
MODEL 2
REMARK VINA RESULT:      -7.6      0.798      1.133
REMARK  Name = 
REMARK  4 active torsions:
REMARK  status: ('A' for Active; 'I' for Inactive)
REMARK    1  A    between atoms: N_1  and  C_2
REMARK    2  A    between atoms: C_3  and  C_4
REMARK    3  A    between atoms: C_17  and  C_18
REMARK    4  A    between atoms: N_25  and  C_26
REMARK                            x       y       z     vdW  Elec       q    Type
REMARK                         _______ _______ _______ _____ _____    ______ ____
ROOT
ATOM      1  C   UNL     1       1.018  11.172  19.120  0.00  0.00    +0.000 A 
ATOM      2  C   UNL     1       0.834   9.913  19.746  0.00  0.00    +0.000 A 
ATOM      3  N   UNL     1      -0.051   9.726  20.766  0.00  0.00    +0.000 NA
ATOM      4  C   UNL     1      -0.736  10.786  21.225  0.00  0.00    +0.000 A 
ATOM      5  C   UNL     1      -0.590  12.058  20.706  0.00  0.00    +0.000 A 
ATOM      6  C   UNL     1       0.309  12.267  19.656  0.00  0.00    +0.000 A 
ATOM      7  C   UNL     1       0.440  13.636  19.045  0.00  0.00    +0.000 C 
ATOM      8  O   UNL     1       1.091  13.781  18.019  0.00  0.00    +0.000 OA
ATOM      9  C   UNL     1      -0.318  14.702  19.674  0.00  0.00    +0.000 A 
ATOM     10  C   UNL     1      -0.481  16.082  19.378  0.00  0.00    +0.000 A 
ATOM     11  N   UNL     1      -1.428  16.609  20.178  0.00  0.00    +0.000 NA
ATOM     12  N   UNL     1      -1.777  15.636  21.054  0.00  0.00    +0.000 N 
ATOM     13  C   UNL     1      -1.173  14.444  20.728  0.00  0.00    +0.000 A 
ATOM     14  C   UNL     1      -1.426  13.136  21.245  0.00  0.00    +0.000 C 
ATOM     15  O   UNL     1      -2.303  12.838  22.052  0.00  0.00    +0.000 OA
ENDROOT
BRANCH  12  16
ATOM     16  C   UNL     1      -2.614  15.934  22.160  0.00  0.00    +0.000 A 
ATOM     17  C   UNL     1      -4.011  15.986  22.022  0.00  0.00    +0.000 A 
ATOM     18  C   UNL     1      -4.821  16.249  23.128  0.00  0.00    +0.000 A 
ATOM     19  C   UNL     1      -4.235  16.444  24.372  0.00  0.00    +0.000 A 
ATOM     20  F   UNL     1      -5.015  16.660  25.438  0.00  0.00    +0.000 F 
ATOM     21  C   UNL     1      -2.856  16.402  24.527  0.00  0.00    +0.000 A 
ATOM     22  C   UNL     1      -2.050  16.140  23.423  0.00  0.00    +0.000 A 
ATOM     23  F   UNL     1      -0.722  16.164  23.602  0.00  0.00    +0.000 F 
ENDBRANCH  12  16
BRANCH   2  24
ATOM     24  C   UNL     1       1.570   8.687  19.382  0.00  0.00    +0.000 A 
ATOM     25  C   UNL     1       2.053   8.472  18.080  0.00  0.00    +0.000 A 
ATOM     26  C   UNL     1       2.707   7.290  17.752  0.00  0.00    +0.000 A 
ATOM     27  C   UNL     1       2.883   6.342  18.742  0.00  0.00    +0.000 A 
ATOM     28  N   UNL     1       2.455   6.494  20.006  0.00  0.00    +0.000 NA
ATOM     29  C   UNL     1       1.794   7.642  20.280  0.00  0.00    +0.000 A 
ENDBRANCH   2  24
BRANCH  10  30
ATOM     30  C   UNL     1       0.180  16.897  18.339  0.00  0.00    +0.000 A 
ATOM     31  C   UNL     1      -0.561  17.695  17.469  0.00  0.00    +0.000 A 
ATOM     32  C   UNL     1       0.104  18.419  16.476  0.00  0.00    +0.000 A 
ATOM     33  C   UNL     1       1.488  18.329  16.381  0.00  0.00    +0.000 A 
ATOM     34  C   UNL     1       2.150  17.528  17.291  0.00  0.00    +0.000 A 
ATOM     35  N   UNL     1       1.531  16.829  18.275  0.00  0.00    +0.000 NA
ENDBRANCH  10  30
BRANCH   1  36
ATOM     36  N   UNL     1       2.005  11.373  18.133  0.00  0.00    +0.000 N 
ATOM     37  H   UNL     1       1.675  11.799  17.271  0.00  0.00    +0.000 HD
ATOM     38  H   UNL     1       2.845  11.855  18.486  0.00  0.00    +0.000 HD
ENDBRANCH   1  36
TORSDOF 4
ENDMDL
MODEL 3
REMARK VINA RESULT:      -7.3      3.396      4.375
REMARK  Name = 
REMARK  4 active torsions:
REMARK  status: ('A' for Active; 'I' for Inactive)
REMARK    1  A    between atoms: N_1  and  C_2
REMARK    2  A    between atoms: C_3  and  C_4
REMARK    3  A    between atoms: C_17  and  C_18
REMARK    4  A    between atoms: N_25  and  C_26
REMARK                            x       y       z     vdW  Elec       q    Type
REMARK                         _______ _______ _______ _____ _____    ______ ____
ROOT
ATOM      1  C   UNL     1      -0.899  10.763  19.528  0.00  0.00    +0.000 A 
ATOM      2  C   UNL     1       0.405  10.391  19.942  0.00  0.00    +0.000 A 
ATOM      3  N   UNL     1       1.019  10.957  21.020  0.00  0.00    +0.000 NA
ATOM      4  C   UNL     1       0.381  11.936  21.682  0.00  0.00    +0.000 A 
ATOM      5  C   UNL     1      -0.872  12.393  21.325  0.00  0.00    +0.000 A 
ATOM      6  C   UNL     1      -1.519  11.821  20.226  0.00  0.00    +0.000 A 
ATOM      7  C   UNL     1      -2.907  12.272  19.856  0.00  0.00    +0.000 C 
ATOM      8  O   UNL     1      -3.538  11.654  19.009  0.00  0.00    +0.000 OA
ATOM      9  C   UNL     1      -3.455  13.376  20.621  0.00  0.00    +0.000 A 
ATOM     10  C   UNL     1      -4.709  14.044  20.599  0.00  0.00    +0.000 A 
ATOM     11  N   UNL     1      -4.781  14.907  21.631  0.00  0.00    +0.000 NA
ATOM     12  N   UNL     1      -3.565  14.896  22.229  0.00  0.00    +0.000 N 
ATOM     13  C   UNL     1      -2.760  13.923  21.684  0.00  0.00    +0.000 A 
ATOM     14  C   UNL     1      -1.502  13.431  22.149  0.00  0.00    +0.000 C 
ATOM     15  O   UNL     1      -0.938  13.765  23.188  0.00  0.00    +0.000 OA
ENDROOT
BRANCH  12  16
ATOM     16  C   UNL     1      -3.251  15.847  23.233  0.00  0.00    +0.000 A 
ATOM     17  C   UNL     1      -2.774  17.126  22.900  0.00  0.00    +0.000 A 
ATOM     18  C   UNL     1      -2.501  18.060  23.901  0.00  0.00    +0.000 A 
ATOM     19  C   UNL     1      -2.719  17.721  25.230  0.00  0.00    +0.000 A 
ATOM     20  F   UNL     1      -2.490  18.630  26.185  0.00  0.00    +0.000 F 
ATOM     21  C   UNL     1      -3.184  16.460  25.578  0.00  0.00    +0.000 A 
ATOM     22  C   UNL     1      -3.456  15.530  24.580  0.00  0.00    +0.000 A 
ATOM     23  F   UNL     1      -3.849  14.305  24.959  0.00  0.00    +0.000 F 
ENDBRANCH  12  16
BRANCH   2  24
ATOM     24  C   UNL     1       1.236   9.379  19.263  0.00  0.00    +0.000 A 
ATOM     25  C   UNL     1       1.571   8.161  19.879  0.00  0.00    +0.000 A 
ATOM     26  C   UNL     1       2.390   7.241  19.234  0.00  0.00    +0.000 A 
ATOM     27  C   UNL     1       2.852   7.549  17.968  0.00  0.00    +0.000 A 
ATOM     28  N   UNL     1       2.557   8.691  17.323  0.00  0.00    +0.000 NA
ATOM     29  C   UNL     1       1.786   9.576  17.994  0.00  0.00    +0.000 A 
ENDBRANCH   2  24
BRANCH  10  30
ATOM     30  C   UNL     1      -5.848  13.857  19.680  0.00  0.00    +0.000 A 
ATOM     31  C   UNL     1      -6.546  12.651  19.633  0.00  0.00    +0.000 A 
ATOM     32  C   UNL     1      -7.593  12.504  18.719  0.00  0.00    +0.000 A 
ATOM     33  C   UNL     1      -7.916  13.565  17.881  0.00  0.00    +0.000 A 
ATOM     34  C   UNL     1      -7.187  14.732  18.001  0.00  0.00    +0.000 A 
ATOM     35  N   UNL     1      -6.177  14.907  18.890  0.00  0.00    +0.000 NA
ENDBRANCH  10  30
BRANCH   1  36
ATOM     36  N   UNL     1      -1.483  10.241  18.355  0.00  0.00    +0.000 N 
ATOM     37  H   UNL     1      -1.001  10.473  17.491  0.00  0.00    +0.000 HD
ATOM     38  H   UNL     1      -1.680   9.232  18.410  0.00  0.00    +0.000 HD
ENDBRANCH   1  36
TORSDOF 4
ENDMDL
MODEL 4
REMARK VINA RESULT:      -7.3      3.555      5.913
REMARK  Name = 
REMARK  4 active torsions:
REMARK  status: ('A' for Active; 'I' for Inactive)
REMARK    1  A    between atoms: N_1  and  C_2
REMARK    2  A    between atoms: C_3  and  C_4
REMARK    3  A    between atoms: C_17  and  C_18
REMARK    4  A    between atoms: N_25  and  C_26
REMARK                            x       y       z     vdW  Elec       q    Type
REMARK                         _______ _______ _______ _____ _____    ______ ____
ROOT
ATOM      1  C   UNL     1       1.876  14.470  19.569  0.00  0.00    +0.000 A 
ATOM      2  C   UNL     1       2.596  15.369  20.397  0.00  0.00    +0.000 A 
ATOM      3  N   UNL     1       2.069  15.889  21.542  0.00  0.00    +0.000 NA
ATOM      4  C   UNL     1       0.805  15.575  21.868  0.00  0.00    +0.000 A 
ATOM      5  C   UNL     1       0.014  14.743  21.100  0.00  0.00    +0.000 A 
ATOM      6  C   UNL     1       0.539  14.195  19.926  0.00  0.00    +0.000 A 
ATOM      7  C   UNL     1      -0.292  13.245  19.107  0.00  0.00    +0.000 C 
ATOM      8  O   UNL     1       0.225  12.633  18.181  0.00  0.00    +0.000 OA
ATOM      9  C   UNL     1      -1.659  13.037  19.545  0.00  0.00    +0.000 A 
ATOM     10  C   UNL     1      -2.716  12.213  19.071  0.00  0.00    +0.000 A 
ATOM     11  N   UNL     1      -3.751  12.263  19.932  0.00  0.00    +0.000 NA
ATOM     12  N   UNL     1      -3.430  13.189  20.867  0.00  0.00    +0.000 N 
ATOM     13  C   UNL     1      -2.136  13.625  20.701  0.00  0.00    +0.000 A 
ATOM     14  C   UNL     1      -1.336  14.422  21.576  0.00  0.00    +0.000 C 
ATOM     15  O   UNL     1      -1.663  14.813  22.694  0.00  0.00    +0.000 OA
ENDROOT
BRANCH  12  16
ATOM     16  C   UNL     1      -4.399  13.621  21.809  0.00  0.00    +0.000 A 
ATOM     17  C   UNL     1      -5.303  14.652  21.502  0.00  0.00    +0.000 A 
ATOM     18  C   UNL     1      -6.269  15.043  22.429  0.00  0.00    +0.000 A 
ATOM     19  C   UNL     1      -6.342  14.393  23.655  0.00  0.00    +0.000 A 
ATOM     20  F   UNL     1      -7.293  14.746  24.529  0.00  0.00    +0.000 F 
ATOM     21  C   UNL     1      -5.454  13.377  23.978  0.00  0.00    +0.000 A 
ATOM     22  C   UNL     1      -4.490  12.988  23.052  0.00  0.00    +0.000 A 
ATOM     23  F   UNL     1      -3.615  12.042  23.423  0.00  0.00    +0.000 F 
ENDBRANCH  12  16
BRANCH   2  24
ATOM     24  C   UNL     1       3.964  15.843  20.117  0.00  0.00    +0.000 A 
ATOM     25  C   UNL     1       5.097  15.091  20.472  0.00  0.00    +0.000 A 
ATOM     26  C   UNL     1       6.376  15.580  20.234  0.00  0.00    +0.000 A 
ATOM     27  C   UNL     1       6.504  16.815  19.626  0.00  0.00    +0.000 A 
ATOM     28  N   UNL     1       5.460  17.575  19.253  0.00  0.00    +0.000 NA
ATOM     29  C   UNL     1       4.231  17.083  19.530  0.00  0.00    +0.000 A 
ENDBRANCH   2  24
BRANCH  10  30
ATOM     30  C   UNL     1      -2.757  11.348  17.876  0.00  0.00    +0.000 A 
ATOM     31  C   UNL     1      -1.876  10.277  17.729  0.00  0.00    +0.000 A 
ATOM     32  C   UNL     1      -1.925   9.509  16.564  0.00  0.00    +0.000 A 
ATOM     33  C   UNL     1      -2.854   9.827  15.579  0.00  0.00    +0.000 A 
ATOM     34  C   UNL     1      -3.701  10.893  15.807  0.00  0.00    +0.000 A 
ATOM     35  N   UNL     1      -3.686  11.645  16.936  0.00  0.00    +0.000 NA
ENDBRANCH  10  30
BRANCH   1  36
ATOM     36  N   UNL     1       2.395  14.016  18.339  0.00  0.00    +0.000 N 
ATOM     37  H   UNL     1       2.167  13.054  18.101  0.00  0.00    +0.000 HD
ATOM     38  H   UNL     1       2.195  14.649  17.551  0.00  0.00    +0.000 HD
ENDBRANCH   1  36
TORSDOF 4
ENDMDL
MODEL 5
REMARK VINA RESULT:      -7.3      5.312     12.004
REMARK  Name = 
REMARK  4 active torsions:
REMARK  status: ('A' for Active; 'I' for Inactive)
REMARK    1  A    between atoms: N_1  and  C_2
REMARK    2  A    between atoms: C_3  and  C_4
REMARK    3  A    between atoms: C_17  and  C_18
REMARK    4  A    between atoms: N_25  and  C_26
REMARK                            x       y       z     vdW  Elec       q    Type
REMARK                         _______ _______ _______ _____ _____    ______ ____
ROOT
ATOM      1  C   UNL     1       1.096   9.059  19.968  0.00  0.00    +0.000 A 
ATOM      2  C   UNL     1       1.060  10.371  19.430  0.00  0.00    +0.000 A 
ATOM      3  N   UNL     1       1.712  10.708  18.280  0.00  0.00    +0.000 NA
ATOM      4  C   UNL     1       2.453   9.772  17.664  0.00  0.00    +0.000 A 
ATOM      5  C   UNL     1       2.581   8.481  18.139  0.00  0.00    +0.000 A 
ATOM      6  C   UNL     1       1.915   8.117  19.313  0.00  0.00    +0.000 A 
ATOM      7  C   UNL     1       2.003   6.700  19.813  0.00  0.00    +0.000 C 
ATOM      8  O   UNL     1       1.284   6.339  20.736  0.00  0.00    +0.000 OA
ATOM      9  C   UNL     1       2.882   5.808  19.082  0.00  0.00    +0.000 A 
ATOM     10  C   UNL     1       3.196   4.428  19.218  0.00  0.00    +0.000 A 
ATOM     11  N   UNL     1       3.956   4.032  18.178  0.00  0.00    +0.000 NA
ATOM     12  N   UNL     1       4.235   5.145  17.458  0.00  0.00    +0.000 N 
ATOM     13  C   UNL     1       3.538   6.228  17.941  0.00  0.00    +0.000 A 
ATOM     14  C   UNL     1       3.372   7.523  17.360  0.00  0.00    +0.000 C 
ATOM     15  O   UNL     1       3.790   7.877  16.260  0.00  0.00    +0.000 OA
ENDROOT
BRANCH  12  16
ATOM     16  C   UNL     1       5.183   5.097  16.404  0.00  0.00    +0.000 A 
ATOM     17  C   UNL     1       4.882   4.475  15.181  0.00  0.00    +0.000 A 
ATOM     18  C   UNL     1       5.816   4.466  14.144  0.00  0.00    +0.000 A 
ATOM     19  C   UNL     1       7.043   5.092  14.325  0.00  0.00    +0.000 A 
ATOM     20  F   UNL     1       7.922   5.113  13.316  0.00  0.00    +0.000 F 
ATOM     21  C   UNL     1       7.360   5.707  15.528  0.00  0.00    +0.000 A 
ATOM     22  C   UNL     1       6.428   5.715  16.561  0.00  0.00    +0.000 A 
ATOM     23  F   UNL     1       6.794   6.268  17.726  0.00  0.00    +0.000 F 
ENDBRANCH  12  16
BRANCH   2  24
ATOM     24  C   UNL     1       0.339  11.502  20.043  0.00  0.00    +0.000 A 
ATOM     25  C   UNL     1      -1.044  11.682  19.867  0.00  0.00    +0.000 A 
ATOM     26  C   UNL     1      -1.693  12.780  20.421  0.00  0.00    +0.000 A 
ATOM     27  C   UNL     1      -0.946  13.678  21.162  0.00  0.00    +0.000 A 
ATOM     28  N   UNL     1       0.375  13.554  21.374  0.00  0.00    +0.000 NA
ATOM     29  C   UNL     1       0.978  12.492  20.792  0.00  0.00    +0.000 A 
ENDBRANCH   2  24
BRANCH  10  30
ATOM     30  C   UNL     1       2.762   3.472  20.255  0.00  0.00    +0.000 A 
ATOM     31  C   UNL     1       1.449   3.462  20.723  0.00  0.00    +0.000 A 
ATOM     32  C   UNL     1       1.092   2.566  21.733  0.00  0.00    +0.000 A 
ATOM     33  C   UNL     1       2.053   1.702  22.246  0.00  0.00    +0.000 A 
ATOM     34  C   UNL     1       3.328   1.764  21.718  0.00  0.00    +0.000 A 
ATOM     35  N   UNL     1       3.697   2.612  20.726  0.00  0.00    +0.000 NA
ENDBRANCH  10  30
BRANCH   1  36
ATOM     36  N   UNL     1       0.498   8.749  21.207  0.00  0.00    +0.000 N 
ATOM     37  H   UNL     1       1.144   8.470  21.941  0.00  0.00    +0.000 HD
ATOM     38  H   UNL     1      -0.152   9.474  21.541  0.00  0.00    +0.000 HD
ENDBRANCH   1  36
TORSDOF 4
ENDMDL
MODEL 6
REMARK VINA RESULT:      -7.3      7.679     11.116
REMARK  Name = 
REMARK  4 active torsions:
REMARK  status: ('A' for Active; 'I' for Inactive)
REMARK    1  A    between atoms: N_1  and  C_2
REMARK    2  A    between atoms: C_3  and  C_4
REMARK    3  A    between atoms: C_17  and  C_18
REMARK    4  A    between atoms: N_25  and  C_26
REMARK                            x       y       z     vdW  Elec       q    Type
REMARK                         _______ _______ _______ _____ _____    ______ ____
ROOT
ATOM      1  C   UNL     1       3.463  16.067  20.059  0.00  0.00    +0.000 A 
ATOM      2  C   UNL     1       2.703  16.155  18.865  0.00  0.00    +0.000 A 
ATOM      3  N   UNL     1       3.191  15.753  17.657  0.00  0.00    +0.000 NA
ATOM      4  C   UNL     1       4.455  15.303  17.592  0.00  0.00    +0.000 A 
ATOM      5  C   UNL     1       5.282  15.223  18.695  0.00  0.00    +0.000 A 
ATOM      6  C   UNL     1       4.797  15.625  19.943  0.00  0.00    +0.000 A 
ATOM      7  C   UNL     1       5.669  15.494  21.162  0.00  0.00    +0.000 C 
ATOM      8  O   UNL     1       5.188  15.679  22.273  0.00  0.00    +0.000 OA
ATOM      9  C   UNL     1       7.031  15.045  20.940  0.00  0.00    +0.000 A 
ATOM     10  C   UNL     1       8.117  14.770  21.814  0.00  0.00    +0.000 A 
ATOM     11  N   UNL     1       9.130  14.219  21.118  0.00  0.00    +0.000 NA
ATOM     12  N   UNL     1       8.767  14.255  19.814  0.00  0.00    +0.000 N 
ATOM     13  C   UNL     1       7.467  14.684  19.679  0.00  0.00    +0.000 A 
ATOM     14  C   UNL     1       6.629  14.666  18.523  0.00  0.00    +0.000 C 
ATOM     15  O   UNL     1       6.920  14.187  17.430  0.00  0.00    +0.000 OA
ENDROOT
BRANCH  12  16
ATOM     16  C   UNL     1       9.703  13.928  18.800  0.00  0.00    +0.000 A 
ATOM     17  C   UNL     1       9.924  12.595  18.414  0.00  0.00    +0.000 A 
ATOM     18  C   UNL     1      10.825  12.296  17.392  0.00  0.00    +0.000 A 
ATOM     19  C   UNL     1      11.494  13.328  16.747  0.00  0.00    +0.000 A 
ATOM     20  F   UNL     1      12.331  13.041  15.743  0.00  0.00    +0.000 F 
ATOM     21  C   UNL     1      11.293  14.650  17.118  0.00  0.00    +0.000 A 
ATOM     22  C   UNL     1      10.394  14.948  18.137  0.00  0.00    +0.000 A 
ATOM     23  F   UNL     1      10.271  16.231  18.505  0.00  0.00    +0.000 F 
ENDBRANCH  12  16
BRANCH   2  24
ATOM     24  C   UNL     1       1.331  16.690  18.790  0.00  0.00    +0.000 A 
ATOM     25  C   UNL     1       1.063  17.976  18.290  0.00  0.00    +0.000 A 
ATOM     26  C   UNL     1      -0.236  18.473  18.268  0.00  0.00    +0.000 A 
ATOM     27  C   UNL     1      -1.255  17.664  18.735  0.00  0.00    +0.000 A 
ATOM     28  N   UNL     1      -1.064  16.423  19.214  0.00  0.00    +0.000 NA
ATOM     29  C   UNL     1       0.216  15.986  19.250  0.00  0.00    +0.000 A 
ENDBRANCH   2  24
BRANCH  10  30
ATOM     30  C   UNL     1       8.206  14.956  23.276  0.00  0.00    +0.000 A 
ATOM     31  C   UNL     1       7.909  13.915  24.155  0.00  0.00    +0.000 A 
ATOM     32  C   UNL     1       7.969  14.147  25.531  0.00  0.00    +0.000 A 
ATOM     33  C   UNL     1       8.327  15.409  25.992  0.00  0.00    +0.000 A 
ATOM     34  C   UNL     1       8.622  16.382  25.056  0.00  0.00    +0.000 A 
ATOM     35  N   UNL     1       8.587  16.179  23.716  0.00  0.00    +0.000 NA
ENDBRANCH  10  30
BRANCH   1  36
ATOM     36  N   UNL     1       2.982  16.576  21.284  0.00  0.00    +0.000 N 
ATOM     37  H   UNL     1       2.003  16.386  21.478  0.00  0.00    +0.000 HD
ATOM     38  H   UNL     1       3.574  16.328  22.090  0.00  0.00    +0.000 HD
ENDBRANCH   1  36
TORSDOF 4
ENDMDL
MODEL 7
REMARK VINA RESULT:      -7.3      7.480      9.897
REMARK  Name = 
REMARK  4 active torsions:
REMARK  status: ('A' for Active; 'I' for Inactive)
REMARK    1  A    between atoms: N_1  and  C_2
REMARK    2  A    between atoms: C_3  and  C_4
REMARK    3  A    between atoms: C_17  and  C_18
REMARK    4  A    between atoms: N_25  and  C_26
REMARK                            x       y       z     vdW  Elec       q    Type
REMARK                         _______ _______ _______ _____ _____    ______ ____
ROOT
ATOM      1  C   UNL     1       4.123  16.046  18.863  0.00  0.00    +0.000 A 
ATOM      2  C   UNL     1       2.928  16.589  19.401  0.00  0.00    +0.000 A 
ATOM      3  N   UNL     1       2.746  16.772  20.740  0.00  0.00    +0.000 NA
ATOM      4  C   UNL     1       3.716  16.377  21.580  0.00  0.00    +0.000 A 
ATOM      5  C   UNL     1       4.895  15.799  21.150  0.00  0.00    +0.000 A 
ATOM      6  C   UNL     1       5.101  15.609  19.781  0.00  0.00    +0.000 A 
ATOM      7  C   UNL     1       6.402  15.029  19.294  0.00  0.00    +0.000 C 
ATOM      8  O   UNL     1       6.652  15.026  18.095  0.00  0.00    +0.000 OA
ATOM      9  C   UNL     1       7.339  14.595  20.312  0.00  0.00    +0.000 A 
ATOM     10  C   UNL     1       8.649  14.045  20.255  0.00  0.00    +0.000 A 
ATOM     11  N   UNL     1       9.160  13.962  21.499  0.00  0.00    +0.000 NA
ATOM     12  N   UNL     1       8.169  14.323  22.348  0.00  0.00    +0.000 N 
ATOM     13  C   UNL     1       7.073  14.783  21.655  0.00  0.00    +0.000 A 
ATOM     14  C   UNL     1       5.911  15.452  22.149  0.00  0.00    +0.000 C 
ATOM     15  O   UNL     1       5.720  15.798  23.312  0.00  0.00    +0.000 OA
ENDROOT
BRANCH  12  16
ATOM     16  C   UNL     1       8.325  14.152  23.748  0.00  0.00    +0.000 A 
ATOM     17  C   UNL     1       8.874  15.168  24.549  0.00  0.00    +0.000 A 
ATOM     18  C   UNL     1       8.991  14.993  25.928  0.00  0.00    +0.000 A 
ATOM     19  C   UNL     1       8.546  13.811  26.507  0.00  0.00    +0.000 A 
ATOM     20  F   UNL     1       8.627  13.661  27.835  0.00  0.00    +0.000 F 
ATOM     21  C   UNL     1       8.007  12.795  25.732  0.00  0.00    +0.000 A 
ATOM     22  C   UNL     1       7.891  12.970  24.356  0.00  0.00    +0.000 A 
ATOM     23  F   UNL     1       7.418  11.944  23.635  0.00  0.00    +0.000 F 
ENDBRANCH  12  16
BRANCH   2  24
ATOM     24  C   UNL     1       1.765  17.001  18.593  0.00  0.00    +0.000 A 
ATOM     25  C   UNL     1       1.897  17.853  17.483  0.00  0.00    +0.000 A 
ATOM     26  C   UNL     1       0.779  18.259  16.763  0.00  0.00    +0.000 A 
ATOM     27  C   UNL     1      -0.461  17.791  17.158  0.00  0.00    +0.000 A 
ATOM     28  N   UNL     1      -0.650  16.967  18.202  0.00  0.00    +0.000 NA
ATOM     29  C   UNL     1       0.456  16.619  18.898  0.00  0.00    +0.000 A 
ENDBRANCH   2  24
BRANCH  10  30
ATOM     30  C   UNL     1       9.444  13.653  19.075  0.00  0.00    +0.000 A 
ATOM     31  C   UNL     1       9.545  12.318  18.686  0.00  0.00    +0.000 A 
ATOM     32  C   UNL     1      10.340  11.987  17.585  0.00  0.00    +0.000 A 
ATOM     33  C   UNL     1      11.009  12.997  16.903  0.00  0.00    +0.000 A 
ATOM     34  C   UNL     1      10.844  14.296  17.342  0.00  0.00    +0.000 A 
ATOM     35  N   UNL     1      10.065  14.646  18.396  0.00  0.00    +0.000 NA
ENDBRANCH  10  30
BRANCH   1  36
ATOM     36  N   UNL     1       4.261  15.773  17.487  0.00  0.00    +0.000 N 
ATOM     37  H   UNL     1       4.841  14.969  17.261  0.00  0.00    +0.000 HD
ATOM     38  H   UNL     1       3.362  15.733  16.985  0.00  0.00    +0.000 HD
ENDBRANCH   1  36
TORSDOF 4
ENDMDL
MODEL 8
REMARK VINA RESULT:      -7.2      7.533     11.001
REMARK  Name = 
REMARK  4 active torsions:
REMARK  status: ('A' for Active; 'I' for Inactive)
REMARK    1  A    between atoms: N_1  and  C_2
REMARK    2  A    between atoms: C_3  and  C_4
REMARK    3  A    between atoms: C_17  and  C_18
REMARK    4  A    between atoms: N_25  and  C_26
REMARK                            x       y       z     vdW  Elec       q    Type
REMARK                         _______ _______ _______ _____ _____    ______ ____
ROOT
ATOM      1  C   UNL     1       3.294  16.213  19.999  0.00  0.00    +0.000 A 
ATOM      2  C   UNL     1       2.518  16.244  18.812  0.00  0.00    +0.000 A 
ATOM      3  N   UNL     1       2.995  15.798  17.615  0.00  0.00    +0.000 NA
ATOM      4  C   UNL     1       4.263  15.359  17.552  0.00  0.00    +0.000 A 
ATOM      5  C   UNL     1       5.106  15.333  18.646  0.00  0.00    +0.000 A 
ATOM      6  C   UNL     1       4.632  15.781  19.883  0.00  0.00    +0.000 A 
ATOM      7  C   UNL     1       5.521  15.709  21.095  0.00  0.00    +0.000 C 
ATOM      8  O   UNL     1       5.052  15.935  22.203  0.00  0.00    +0.000 OA
ATOM      9  C   UNL     1       6.884  15.266  20.873  0.00  0.00    +0.000 A 
ATOM     10  C   UNL     1       7.984  15.039  21.744  0.00  0.00    +0.000 A 
ATOM     11  N   UNL     1       8.995  14.471  21.058  0.00  0.00    +0.000 NA
ATOM     12  N   UNL     1       8.615  14.449  19.758  0.00  0.00    +0.000 N 
ATOM     13  C   UNL     1       7.309  14.859  19.623  0.00  0.00    +0.000 A 
ATOM     14  C   UNL     1       6.456  14.784  18.479  0.00  0.00    +0.000 C 
ATOM     15  O   UNL     1       6.739  14.264  17.403  0.00  0.00    +0.000 OA
ENDROOT
BRANCH  12  16
ATOM     16  C   UNL     1       9.542  14.092  18.746  0.00  0.00    +0.000 A 
ATOM     17  C   UNL     1      10.275  15.069  18.052  0.00  0.00    +0.000 A 
ATOM     18  C   UNL     1      11.206  14.696  17.082  0.00  0.00    +0.000 A 
ATOM     19  C   UNL     1      11.414  13.349  16.816  0.00  0.00    +0.000 A 
ATOM     20  F   UNL     1      12.333  12.993  15.910  0.00  0.00    +0.000 F 
ATOM     21  C   UNL     1      10.695  12.370  17.487  0.00  0.00    +0.000 A 
ATOM     22  C   UNL     1       9.767  12.743  18.454  0.00  0.00    +0.000 A 
ATOM     23  F   UNL     1       9.052  11.771  19.039  0.00  0.00    +0.000 F 
ENDBRANCH  12  16
BRANCH   2  24
ATOM     24  C   UNL     1       1.139  16.760  18.733  0.00  0.00    +0.000 A 
ATOM     25  C   UNL     1       0.827  17.936  18.029  0.00  0.00    +0.000 A 
ATOM     26  C   UNL     1      -0.474  18.425  18.004  0.00  0.00    +0.000 A 
ATOM     27  C   UNL     1      -1.453  17.716  18.676  0.00  0.00    +0.000 A 
ATOM     28  N   UNL     1      -1.219  16.581  19.356  0.00  0.00    +0.000 NA
ATOM     29  C   UNL     1       0.063  16.154  19.386  0.00  0.00    +0.000 A 
ENDBRANCH   2  24
BRANCH  10  30
ATOM     30  C   UNL     1       8.090  15.286  23.195  0.00  0.00    +0.000 A 
ATOM     31  C   UNL     1       8.107  14.230  24.107  0.00  0.00    +0.000 A 
ATOM     32  C   UNL     1       8.169  14.512  25.474  0.00  0.00    +0.000 A 
ATOM     33  C   UNL     1       8.216  15.837  25.893  0.00  0.00    +0.000 A 
ATOM     34  C   UNL     1       8.211  16.823  24.927  0.00  0.00    +0.000 A 
ATOM     35  N   UNL     1       8.168  16.578  23.593  0.00  0.00    +0.000 NA
ENDBRANCH  10  30
BRANCH   1  36
ATOM     36  N   UNL     1       2.824  16.766  21.208  0.00  0.00    +0.000 N 
ATOM     37  H   UNL     1       3.378  17.533  21.578  0.00  0.00    +0.000 HD
ATOM     38  H   UNL     1       1.823  17.010  21.184  0.00  0.00    +0.000 HD
ENDBRANCH   1  36
TORSDOF 4
ENDMDL
MODEL 9
REMARK VINA RESULT:      -7.2      3.719      5.594
REMARK  Name = 
REMARK  4 active torsions:
REMARK  status: ('A' for Active; 'I' for Inactive)
REMARK    1  A    between atoms: N_1  and  C_2
REMARK    2  A    between atoms: C_3  and  C_4
REMARK    3  A    between atoms: C_17  and  C_18
REMARK    4  A    between atoms: N_25  and  C_26
REMARK                            x       y       z     vdW  Elec       q    Type
REMARK                         _______ _______ _______ _____ _____    ______ ____
ROOT
ATOM      1  C   UNL     1       1.588  13.572  20.240  0.00  0.00    +0.000 A 
ATOM      2  C   UNL     1       2.297  14.327  21.208  0.00  0.00    +0.000 A 
ATOM      3  N   UNL     1       1.687  14.881  22.295  0.00  0.00    +0.000 NA
ATOM      4  C   UNL     1       0.357  14.745  22.424  0.00  0.00    +0.000 A 
ATOM      5  C   UNL     1      -0.422  14.064  21.508  0.00  0.00    +0.000 A 
ATOM      6  C   UNL     1       0.188  13.484  20.391  0.00  0.00    +0.000 A 
ATOM      7  C   UNL     1      -0.640  12.694  19.414  0.00  0.00    +0.000 C 
ATOM      8  O   UNL     1      -0.084  12.045  18.537  0.00  0.00    +0.000 OA
ATOM      9  C   UNL     1      -2.072  12.675  19.644  0.00  0.00    +0.000 A 
ATOM     10  C   UNL     1      -3.152  12.030  18.983  0.00  0.00    +0.000 A 
ATOM     11  N   UNL     1      -4.285  12.202  19.692  0.00  0.00    +0.000 NA
ATOM     12  N   UNL     1      -3.978  13.040  20.712  0.00  0.00    +0.000 N 
ATOM     13  C   UNL     1      -2.626  13.287  20.752  0.00  0.00    +0.000 A 
ATOM     14  C   UNL     1      -1.858  13.928  21.772  0.00  0.00    +0.000 C 
ATOM     15  O   UNL     1      -2.286  14.325  22.853  0.00  0.00    +0.000 OA
ENDROOT
BRANCH  12  16
ATOM     16  C   UNL     1      -5.003  13.578  21.530  0.00  0.00    +0.000 A 
ATOM     17  C   UNL     1      -5.450  12.900  22.677  0.00  0.00    +0.000 A 
ATOM     18  C   UNL     1      -6.438  13.460  23.489  0.00  0.00    +0.000 A 
ATOM     19  C   UNL     1      -6.966  14.703  23.162  0.00  0.00    +0.000 A 
ATOM     20  F   UNL     1      -7.888  15.254  23.962  0.00  0.00    +0.000 F 
ATOM     21  C   UNL     1      -6.542  15.384  22.030  0.00  0.00    +0.000 A 
ATOM     22  C   UNL     1      -5.557  14.824  21.222  0.00  0.00    +0.000 A 
ATOM     23  F   UNL     1      -5.215  15.487  20.108  0.00  0.00    +0.000 F 
ENDBRANCH  12  16
BRANCH   2  24
ATOM     24  C   UNL     1       3.745  14.605  21.148  0.00  0.00    +0.000 A 
ATOM     25  C   UNL     1       4.643  14.061  22.082  0.00  0.00    +0.000 A 
ATOM     26  C   UNL     1       5.997  14.372  22.029  0.00  0.00    +0.000 A 
ATOM     27  C   UNL     1       6.437  15.216  21.025  0.00  0.00    +0.000 A 
ATOM     28  N   UNL     1       5.630  15.757  20.098  0.00  0.00    +0.000 NA
ATOM     29  C   UNL     1       4.315  15.459  20.201  0.00  0.00    +0.000 A 
ENDBRANCH   2  24
BRANCH  10  30
ATOM     30  C   UNL     1      -3.140  11.221  17.748  0.00  0.00    +0.000 A 
ATOM     31  C   UNL     1      -2.374  10.059  17.656  0.00  0.00    +0.000 A 
ATOM     32  C   UNL     1      -2.362   9.346  16.455  0.00  0.00    +0.000 A 
ATOM     33  C   UNL     1      -3.115   9.808  15.381  0.00  0.00    +0.000 A 
ATOM     34  C   UNL     1      -3.859  10.959  15.560  0.00  0.00    +0.000 A 
ATOM     35  N   UNL     1      -3.902  11.661  16.719  0.00  0.00    +0.000 NA
ENDBRANCH  10  30
BRANCH   1  36
ATOM     36  N   UNL     1       2.212  13.088  19.072  0.00  0.00    +0.000 N 
ATOM     37  H   UNL     1       3.228  13.116  19.081  0.00  0.00    +0.000 HD
ATOM     38  H   UNL     1       1.870  12.161  18.779  0.00  0.00    +0.000 HD
ENDBRANCH   1  36
TORSDOF 4
ENDMDL
