MODEL 1
REMARK VINA RESULT:      -8.8      0.000      0.000
REMARK  Name = 
REMARK  7 active torsions:
REMARK  status: ('A' for Active; 'I' for Inactive)
REMARK    1  A    between atoms: C_2  and  C_3
REMARK    2  A    between atoms: C_2  and  C_18
REMARK    3  A    between atoms: C_3  and  C_4
REMARK    4  A    between atoms: C_4  and  C_5
REMARK    5  A    between atoms: N_8  and  C_9
REMARK    6  A    between atoms: C_9  and  C_10
REMARK    7  A    between atoms: C_25  and  C_26
REMARK                            x       y       z     vdW  Elec       q    Type
REMARK                         _______ _______ _______ _____ _____    ______ ____
ROOT
ATOM      1  O   UNL     1       7.644  10.000  17.218  0.00  0.00    +0.000 OA
ATOM      2  C   UNL     1       8.382   9.605  18.113  0.00  0.00    +0.000 C 
ENDROOT
BRANCH   2   3
ATOM      3  C   UNL     1       9.387  10.516  18.742  0.00  0.00    +0.000 A 
ATOM      4  C   UNL     1      10.367  11.197  17.965  0.00  0.00    +0.000 A 
ATOM      5  C   UNL     1      11.002  12.348  18.454  0.00  0.00    +0.000 A 
ATOM      6  C   UNL     1      10.602  12.790  19.695  0.00  0.00    +0.000 A 
ATOM      7  C   UNL     1       9.786  11.999  20.503  0.00  0.00    +0.000 A 
ATOM      8  C   UNL     1       9.178  10.851  20.075  0.00  0.00    +0.000 A 
ATOM      9  N   UNL     1       9.590  12.623  21.763  0.00  0.00    +0.000 N 
ATOM     10  C   UNL     1       9.739  14.011  21.294  0.00  0.00    +0.000 C 
ATOM     11  N   UNL     1      10.869  14.042  20.332  0.00  0.00    +0.000 N 
ATOM     12  H   UNL     1      10.424  12.429  22.319  0.00  0.00    +0.000 HD
ATOM     13  H   UNL     1      11.751  13.981  20.827  0.00  0.00    +0.000 HD
BRANCH  10  14
ATOM     14  C   UNL     1       9.808  14.971  22.457  0.00  0.00    +0.000 A 
ATOM     15  C   UNL     1       9.076  14.764  23.632  0.00  0.00    +0.000 A 
ATOM     16  C   UNL     1       9.305  15.564  24.753  0.00  0.00    +0.000 A 
ATOM     17  C   UNL     1      10.273  16.572  24.718  0.00  0.00    +0.000 A 
ATOM     18  C   UNL     1      11.020  16.784  23.565  0.00  0.00    +0.000 A 
ATOM     19  C   UNL     1      10.792  15.983  22.450  0.00  0.00    +0.000 A 
ENDBRANCH  10  14
ENDBRANCH   2   3
BRANCH   2  20
ATOM     20  C   UNL     1       8.422   8.169  18.585  0.00  0.00    +0.000 C 
BRANCH  20  21
ATOM     21  C   UNL     1       7.707   7.153  17.699  0.00  0.00    +0.000 C 
BRANCH  21  22
ATOM     22  C   UNL     1       7.787   5.750  18.348  0.00  0.00    +0.000 C 
ATOM     23  C   UNL     1       7.530   4.600  17.360  0.00  0.00    +0.000 C 
ATOM     24  C   UNL     1       6.058   4.494  16.980  0.00  0.00    +0.000 C 
ATOM     25  N   UNL     1       5.274   4.199  18.185  0.00  0.00    +0.000 NA
ATOM     26  C   UNL     1       5.387   5.301  19.155  0.00  0.00    +0.000 C 
ATOM     27  C   UNL     1       6.841   5.592  19.547  0.00  0.00    +0.000 C 
BRANCH  25  28
ATOM     28  C   UNL     1       3.858   3.944  17.866  0.00  0.00    +0.000 C 
BRANCH  28  29
ATOM     29  C   UNL     1       2.992   3.663  19.079  0.00  0.00    +0.000 A 
ATOM     30  C   UNL     1       3.407   2.757  20.068  0.00  0.00    +0.000 A 
ATOM     31  C   UNL     1       2.604   2.505  21.180  0.00  0.00    +0.000 A 
ATOM     32  C   UNL     1       1.381   3.156  21.322  0.00  0.00    +0.000 A 
ATOM     33  C   UNL     1       0.954   4.056  20.347  0.00  0.00    +0.000 A 
ATOM     34  C   UNL     1       1.755   4.307  19.231  0.00  0.00    +0.000 A 
ENDBRANCH  28  29
ENDBRANCH  25  28
ENDBRANCH  21  22
ENDBRANCH  20  21
ENDBRANCH   2  20
TORSDOF 7
ENDMDL
MODEL 2
REMARK VINA RESULT:      -8.8      3.375      6.235
REMARK  Name = 
REMARK  7 active torsions:
REMARK  status: ('A' for Active; 'I' for Inactive)
REMARK    1  A    between atoms: C_2  and  C_3
REMARK    2  A    between atoms: C_2  and  C_18
REMARK    3  A    between atoms: C_3  and  C_4
REMARK    4  A    between atoms: C_4  and  C_5
REMARK    5  A    between atoms: N_8  and  C_9
REMARK    6  A    between atoms: C_9  and  C_10
REMARK    7  A    between atoms: C_25  and  C_26
REMARK                            x       y       z     vdW  Elec       q    Type
REMARK                         _______ _______ _______ _____ _____    ______ ____
ROOT
ATOM      1  O   UNL     1       5.507   3.733  20.022  0.00  0.00    +0.000 OA
ATOM      2  C   UNL     1       5.386   3.956  18.824  0.00  0.00    +0.000 C 
ENDROOT
BRANCH   2   3
ATOM      3  C   UNL     1       6.300   4.908  18.121  0.00  0.00    +0.000 A 
ATOM      4  C   UNL     1       6.052   5.332  16.785  0.00  0.00    +0.000 A 
ATOM      5  C   UNL     1       6.619   6.514  16.287  0.00  0.00    +0.000 A 
ATOM      6  C   UNL     1       7.390   7.242  17.164  0.00  0.00    +0.000 A 
ATOM      7  C   UNL     1       7.767   6.707  18.395  0.00  0.00    +0.000 A 
ATOM      8  C   UNL     1       7.264   5.539  18.900  0.00  0.00    +0.000 A 
ATOM      9  N   UNL     1       8.632   7.602  19.077  0.00  0.00    +0.000 N 
ATOM     10  C   UNL     1       8.106   8.840  18.479  0.00  0.00    +0.000 C 
ATOM     11  N   UNL     1       7.876   8.581  17.036  0.00  0.00    +0.000 N 
ATOM     12  H   UNL     1       9.562   7.475  18.674  0.00  0.00    +0.000 HD
ATOM     13  H   UNL     1       8.759   8.566  16.538  0.00  0.00    +0.000 HD
BRANCH  10  14
ATOM     14  C   UNL     1       8.977  10.022  18.829  0.00  0.00    +0.000 A 
ATOM     15  C   UNL     1       9.199  10.412  20.154  0.00  0.00    +0.000 A 
ATOM     16  C   UNL     1      10.153  11.387  20.450  0.00  0.00    +0.000 A 
ATOM     17  C   UNL     1      10.903  11.978  19.430  0.00  0.00    +0.000 A 
ATOM     18  C   UNL     1      10.707  11.594  18.107  0.00  0.00    +0.000 A 
ATOM     19  C   UNL     1       9.757  10.620  17.816  0.00  0.00    +0.000 A 
ENDBRANCH  10  14
ENDBRANCH   2   3
BRANCH   2  20
ATOM     20  C   UNL     1       4.267   3.388  17.981  0.00  0.00    +0.000 C 
BRANCH  20  21
ATOM     21  C   UNL     1       3.341   2.396  18.678  0.00  0.00    +0.000 C 
BRANCH  21  22
ATOM     22  C   UNL     1       1.928   3.014  18.822  0.00  0.00    +0.000 C 
ATOM     23  C   UNL     1       1.632   4.118  17.793  0.00  0.00    +0.000 C 
ATOM     24  C   UNL     1       2.380   5.407  18.108  0.00  0.00    +0.000 C 
ATOM     25  N   UNL     1       1.932   5.913  19.412  0.00  0.00    +0.000 NA
ATOM     26  C   UNL     1       2.264   4.953  20.478  0.00  0.00    +0.000 C 
ATOM     27  C   UNL     1       1.659   3.566  20.230  0.00  0.00    +0.000 C 
BRANCH  25  28
ATOM     28  C   UNL     1       2.514   7.233  19.714  0.00  0.00    +0.000 C 
BRANCH  28  29
ATOM     29  C   UNL     1       1.492   8.282  20.110  0.00  0.00    +0.000 A 
ATOM     30  C   UNL     1       1.228   9.382  19.279  0.00  0.00    +0.000 A 
ATOM     31  C   UNL     1       0.287  10.342  19.653  0.00  0.00    +0.000 A 
ATOM     32  C   UNL     1      -0.404  10.214  20.855  0.00  0.00    +0.000 A 
ATOM     33  C   UNL     1      -0.150   9.129  21.691  0.00  0.00    +0.000 A 
ATOM     34  C   UNL     1       0.794   8.168  21.322  0.00  0.00    +0.000 A 
ENDBRANCH  28  29
ENDBRANCH  25  28
ENDBRANCH  21  22
ENDBRANCH  20  21
ENDBRANCH   2  20
TORSDOF 7
ENDMDL
MODEL 3
REMARK VINA RESULT:      -8.7      7.107     11.595
REMARK  Name = 
REMARK  7 active torsions:
REMARK  status: ('A' for Active; 'I' for Inactive)
REMARK    1  A    between atoms: C_2  and  C_3
REMARK    2  A    between atoms: C_2  and  C_18
REMARK    3  A    between atoms: C_3  and  C_4
REMARK    4  A    between atoms: C_4  and  C_5
REMARK    5  A    between atoms: N_8  and  C_9
REMARK    6  A    between atoms: C_9  and  C_10
REMARK    7  A    between atoms: C_25  and  C_26
REMARK                            x       y       z     vdW  Elec       q    Type
REMARK                         _______ _______ _______ _____ _____    ______ ____
ROOT
ATOM      1  O   UNL     1       1.103   5.168  20.729  0.00  0.00    +0.000 OA
ATOM      2  C   UNL     1       1.950   5.872  20.192  0.00  0.00    +0.000 C 
ENDROOT
BRANCH   2   3
ATOM      3  C   UNL     1       3.172   5.272  19.575  0.00  0.00    +0.000 A 
ATOM      4  C   UNL     1       3.603   3.954  19.898  0.00  0.00    +0.000 A 
ATOM      5  C   UNL     1       4.449   3.241  19.037  0.00  0.00    +0.000 A 
ATOM      6  C   UNL     1       4.803   3.868  17.865  0.00  0.00    +0.000 A 
ATOM      7  C   UNL     1       4.522   5.220  17.667  0.00  0.00    +0.000 A 
ATOM      8  C   UNL     1       3.733   5.960  18.504  0.00  0.00    +0.000 A 
ATOM      9  N   UNL     1       5.066   5.660  16.432  0.00  0.00    +0.000 N 
ATOM     10  C   UNL     1       4.994   4.362  15.740  0.00  0.00    +0.000 C 
ATOM     11  N   UNL     1       5.423   3.315  16.701  0.00  0.00    +0.000 N 
ATOM     12  H   UNL     1       6.059   5.832  16.594  0.00  0.00    +0.000 HD
ATOM     13  H   UNL     1       6.430   3.340  16.819  0.00  0.00    +0.000 HD
BRANCH  10  14
ATOM     14  C   UNL     1       5.722   4.413  14.419  0.00  0.00    +0.000 A 
ATOM     15  C   UNL     1       6.922   5.115  14.261  0.00  0.00    +0.000 A 
ATOM     16  C   UNL     1       7.662   4.988  13.084  0.00  0.00    +0.000 A 
ATOM     17  C   UNL     1       7.219   4.153  12.055  0.00  0.00    +0.000 A 
ATOM     18  C   UNL     1       6.035   3.436  12.198  0.00  0.00    +0.000 A 
ATOM     19  C   UNL     1       5.302   3.563  13.373  0.00  0.00    +0.000 A 
ENDBRANCH  10  14
ENDBRANCH   2   3
BRANCH   2  20
ATOM     20  C   UNL     1       1.898   7.383  20.193  0.00  0.00    +0.000 C 
BRANCH  20  21
ATOM     21  C   UNL     1       0.755   8.013  20.984  0.00  0.00    +0.000 C 
BRANCH  21  22
ATOM     22  C   UNL     1       1.291   9.206  21.813  0.00  0.00    +0.000 C 
ATOM     23  C   UNL     1       0.552   9.410  23.146  0.00  0.00    +0.000 C 
ATOM     24  C   UNL     1      -0.839   9.998  22.942  0.00  0.00    +0.000 C 
ATOM     25  N   UNL     1      -0.712  11.322  22.321  0.00  0.00    +0.000 NA
ATOM     26  C   UNL     1      -0.095  11.209  20.988  0.00  0.00    +0.000 C 
ATOM     27  C   UNL     1       1.279  10.528  21.032  0.00  0.00    +0.000 C 
BRANCH  25  28
ATOM     28  C   UNL     1      -2.014  12.006  22.224  0.00  0.00    +0.000 C 
BRANCH  28  29
ATOM     29  C   UNL     1      -2.225  13.083  23.272  0.00  0.00    +0.000 A 
ATOM     30  C   UNL     1      -1.212  14.009  23.569  0.00  0.00    +0.000 A 
ATOM     31  C   UNL     1      -1.416  14.995  24.534  0.00  0.00    +0.000 A 
ATOM     32  C   UNL     1      -2.632  15.073  25.210  0.00  0.00    +0.000 A 
ATOM     33  C   UNL     1      -3.644  14.159  24.927  0.00  0.00    +0.000 A 
ATOM     34  C   UNL     1      -3.442  13.168  23.964  0.00  0.00    +0.000 A 
ENDBRANCH  28  29
ENDBRANCH  25  28
ENDBRANCH  21  22
ENDBRANCH  20  21
ENDBRANCH   2  20
TORSDOF 7
ENDMDL
MODEL 4
REMARK VINA RESULT:      -8.6      6.670      7.939
REMARK  Name = 
REMARK  7 active torsions:
REMARK  status: ('A' for Active; 'I' for Inactive)
REMARK    1  A    between atoms: C_2  and  C_3
REMARK    2  A    between atoms: C_2  and  C_18
REMARK    3  A    between atoms: C_3  and  C_4
REMARK    4  A    between atoms: C_4  and  C_5
REMARK    5  A    between atoms: N_8  and  C_9
REMARK    6  A    between atoms: C_9  and  C_10
REMARK    7  A    between atoms: C_25  and  C_26
REMARK                            x       y       z     vdW  Elec       q    Type
REMARK                         _______ _______ _______ _____ _____    ______ ____
ROOT
ATOM      1  O   UNL     1       2.610   9.324  17.179  0.00  0.00    +0.000 OA
ATOM      2  C   UNL     1       2.577   8.410  17.994  0.00  0.00    +0.000 C 
ENDROOT
BRANCH   2   3
ATOM      3  C   UNL     1       1.640   8.447  19.158  0.00  0.00    +0.000 A 
ATOM      4  C   UNL     1       1.857   7.650  20.317  0.00  0.00    +0.000 A 
ATOM      5  C   UNL     1       1.267   7.987  21.544  0.00  0.00    +0.000 A 
ATOM      6  C   UNL     1       0.507   9.133  21.566  0.00  0.00    +0.000 A 
ATOM      7  C   UNL     1       0.161   9.781  20.380  0.00  0.00    +0.000 A 
ATOM      8  C   UNL     1       0.685   9.459  19.158  0.00  0.00    +0.000 A 
ATOM      9  N   UNL     1      -0.700  10.877  20.651  0.00  0.00    +0.000 N 
ATOM     10  C   UNL     1      -0.199  11.159  22.007  0.00  0.00    +0.000 C 
ATOM     11  N   UNL     1       0.004   9.858  22.692  0.00  0.00    +0.000 N 
ATOM     12  H   UNL     1      -1.636  10.490  20.779  0.00  0.00    +0.000 HD
ATOM     13  H   UNL     1      -0.889   9.465  22.966  0.00  0.00    +0.000 HD
BRANCH  10  14
ATOM     14  C   UNL     1      -1.074  12.169  22.708  0.00  0.00    +0.000 A 
ATOM     15  C   UNL     1      -0.752  13.530  22.743  0.00  0.00    +0.000 A 
ATOM     16  C   UNL     1      -1.672  14.458  23.235  0.00  0.00    +0.000 A 
ATOM     17  C   UNL     1      -2.927  14.040  23.688  0.00  0.00    +0.000 A 
ATOM     18  C   UNL     1      -3.271  12.694  23.648  0.00  0.00    +0.000 A 
ATOM     19  C   UNL     1      -2.353  11.771  23.155  0.00  0.00    +0.000 A 
ENDBRANCH  10  14
ENDBRANCH   2   3
BRANCH   2  20
ATOM     20  C   UNL     1       3.529   7.235  17.964  0.00  0.00    +0.000 C 
BRANCH  20  21
ATOM     21  C   UNL     1       4.167   6.924  16.613  0.00  0.00    +0.000 C 
BRANCH  21  22
ATOM     22  C   UNL     1       5.505   6.175  16.829  0.00  0.00    +0.000 C 
ATOM     23  C   UNL     1       5.464   4.703  16.386  0.00  0.00    +0.000 C 
ATOM     24  C   UNL     1       4.664   3.839  17.352  0.00  0.00    +0.000 C 
ATOM     25  N   UNL     1       5.315   3.866  18.668  0.00  0.00    +0.000 NA
ATOM     26  C   UNL     1       5.313   5.233  19.215  0.00  0.00    +0.000 C 
ATOM     27  C   UNL     1       5.998   6.240  18.282  0.00  0.00    +0.000 C 
BRANCH  25  28
ATOM     28  C   UNL     1       4.670   2.938  19.614  0.00  0.00    +0.000 C 
BRANCH  28  29
ATOM     29  C   UNL     1       3.156   3.034  19.639  0.00  0.00    +0.000 A 
ATOM     30  C   UNL     1       2.505   3.940  20.491  0.00  0.00    +0.000 A 
ATOM     31  C   UNL     1       1.112   4.021  20.507  0.00  0.00    +0.000 A 
ATOM     32  C   UNL     1       0.354   3.204  19.671  0.00  0.00    +0.000 A 
ATOM     33  C   UNL     1       0.987   2.298  18.823  0.00  0.00    +0.000 A 
ATOM     34  C   UNL     1       2.381   2.212  18.808  0.00  0.00    +0.000 A 
ENDBRANCH  28  29
ENDBRANCH  25  28
ENDBRANCH  21  22
ENDBRANCH  20  21
ENDBRANCH   2  20
TORSDOF 7
ENDMDL
MODEL 5
REMARK VINA RESULT:      -8.6      3.335      5.435
REMARK  Name = 
REMARK  7 active torsions:
REMARK  status: ('A' for Active; 'I' for Inactive)
REMARK    1  A    between atoms: C_2  and  C_3
REMARK    2  A    between atoms: C_2  and  C_18
REMARK    3  A    between atoms: C_3  and  C_4
REMARK    4  A    between atoms: C_4  and  C_5
REMARK    5  A    between atoms: N_8  and  C_9
REMARK    6  A    between atoms: C_9  and  C_10
REMARK    7  A    between atoms: C_25  and  C_26
REMARK                            x       y       z     vdW  Elec       q    Type
REMARK                         _______ _______ _______ _____ _____    ______ ____
ROOT
ATOM      1  O   UNL     1       7.557   5.162  14.717  0.00  0.00    +0.000 OA
ATOM      2  C   UNL     1       6.905   5.028  15.745  0.00  0.00    +0.000 C 
ENDROOT
BRANCH   2   3
ATOM      3  C   UNL     1       7.082   5.963  16.898  0.00  0.00    +0.000 A 
ATOM      4  C   UNL     1       7.566   5.512  18.158  0.00  0.00    +0.000 A 
ATOM      5  C   UNL     1       8.137   6.408  19.074  0.00  0.00    +0.000 A 
ATOM      6  C   UNL     1       8.230   7.720  18.672  0.00  0.00    +0.000 A 
ATOM      7  C   UNL     1       7.579   8.160  17.519  0.00  0.00    +0.000 A 
ATOM      8  C   UNL     1       6.978   7.322  16.621  0.00  0.00    +0.000 A 
ATOM      9  N   UNL     1       7.744   9.562  17.367  0.00  0.00    +0.000 N 
ATOM     10  C   UNL     1       9.040   9.661  18.058  0.00  0.00    +0.000 C 
ATOM     11  N   UNL     1       8.977   8.790  19.259  0.00  0.00    +0.000 N 
ATOM     12  H   UNL     1       7.066  10.006  17.987  0.00  0.00    +0.000 HD
ATOM     13  H   UNL     1       8.415   9.229  19.979  0.00  0.00    +0.000 HD
BRANCH  10  14
ATOM     14  C   UNL     1       9.426  11.102  18.282  0.00  0.00    +0.000 A 
ATOM     15  C   UNL     1      10.762  11.518  18.295  0.00  0.00    +0.000 A 
ATOM     16  C   UNL     1      11.075  12.878  18.318  0.00  0.00    +0.000 A 
ATOM     17  C   UNL     1      10.060  13.839  18.317  0.00  0.00    +0.000 A 
ATOM     18  C   UNL     1       8.727  13.447  18.290  0.00  0.00    +0.000 A 
ATOM     19  C   UNL     1       8.417  12.090  18.265  0.00  0.00    +0.000 A 
ENDBRANCH  10  14
ENDBRANCH   2   3
BRANCH   2  20
ATOM     20  C   UNL     1       5.960   3.872  15.986  0.00  0.00    +0.000 C 
BRANCH  20  21
ATOM     21  C   UNL     1       4.561   4.242  16.470  0.00  0.00    +0.000 C 
BRANCH  21  22
ATOM     22  C   UNL     1       4.169   3.342  17.668  0.00  0.00    +0.000 C 
ATOM     23  C   UNL     1       2.651   3.217  17.872  0.00  0.00    +0.000 C 
ATOM     24  C   UNL     1       2.046   4.490  18.452  0.00  0.00    +0.000 C 
ATOM     25  N   UNL     1       2.632   4.737  19.775  0.00  0.00    +0.000 NA
ATOM     26  C   UNL     1       4.082   4.965  19.662  0.00  0.00    +0.000 C 
ATOM     27  C   UNL     1       4.810   3.795  18.988  0.00  0.00    +0.000 C 
BRANCH  25  28
ATOM     28  C   UNL     1       1.988   5.877  20.452  0.00  0.00    +0.000 C 
BRANCH  28  29
ATOM     29  C   UNL     1       1.965   7.151  19.629  0.00  0.00    +0.000 A 
ATOM     30  C   UNL     1       2.416   7.159  18.299  0.00  0.00    +0.000 A 
ATOM     31  C   UNL     1       2.391   8.335  17.550  0.00  0.00    +0.000 A 
ATOM     32  C   UNL     1       1.912   9.515  18.116  0.00  0.00    +0.000 A 
ATOM     33  C   UNL     1       1.465   9.523  19.434  0.00  0.00    +0.000 A 
ATOM     34  C   UNL     1       1.492   8.347  20.188  0.00  0.00    +0.000 A 
ENDBRANCH  28  29
ENDBRANCH  25  28
ENDBRANCH  21  22
ENDBRANCH  20  21
ENDBRANCH   2  20
TORSDOF 7
ENDMDL
MODEL 6
REMARK VINA RESULT:      -8.5      6.663      9.026
REMARK  Name = 
REMARK  7 active torsions:
REMARK  status: ('A' for Active; 'I' for Inactive)
REMARK    1  A    between atoms: C_2  and  C_3
REMARK    2  A    between atoms: C_2  and  C_18
REMARK    3  A    between atoms: C_3  and  C_4
REMARK    4  A    between atoms: C_4  and  C_5
REMARK    5  A    between atoms: N_8  and  C_9
REMARK    6  A    between atoms: C_9  and  C_10
REMARK    7  A    between atoms: C_25  and  C_26
REMARK                            x       y       z     vdW  Elec       q    Type
REMARK                         _______ _______ _______ _____ _____    ______ ____
ROOT
ATOM      1  O   UNL     1       3.840   5.966  19.835  0.00  0.00    +0.000 OA
ATOM      2  C   UNL     1       2.670   6.325  19.787  0.00  0.00    +0.000 C 
ENDROOT
BRANCH   2   3
ATOM      3  C   UNL     1       2.307   7.722  19.399  0.00  0.00    +0.000 A 
ATOM      4  C   UNL     1       2.593   8.235  18.102  0.00  0.00    +0.000 A 
ATOM      5  C   UNL     1       1.894   9.338  17.593  0.00  0.00    +0.000 A 
ATOM      6  C   UNL     1       0.908   9.865  18.396  0.00  0.00    +0.000 A 
ATOM      7  C   UNL     1       0.783   9.464  19.726  0.00  0.00    +0.000 A 
ATOM      8  C   UNL     1       1.475   8.417  20.270  0.00  0.00    +0.000 A 
ATOM      9  N   UNL     1      -0.236  10.211  20.371  0.00  0.00    +0.000 N 
ATOM     10  C   UNL     1      -1.050  10.467  19.171  0.00  0.00    +0.000 C 
ATOM     11  N   UNL     1      -0.122  10.799  18.061  0.00  0.00    +0.000 N 
ATOM     12  H   UNL     1       0.175  11.112  20.622  0.00  0.00    +0.000 HD
ATOM     13  H   UNL     1       0.236  11.740  18.174  0.00  0.00    +0.000 HD
BRANCH  10  14
ATOM     14  C   UNL     1      -2.146  11.462  19.462  0.00  0.00    +0.000 A 
ATOM     15  C   UNL     1      -3.329  11.499  18.716  0.00  0.00    +0.000 A 
ATOM     16  C   UNL     1      -4.396  12.301  19.127  0.00  0.00    +0.000 A 
ATOM     17  C   UNL     1      -4.298  13.067  20.292  0.00  0.00    +0.000 A 
ATOM     18  C   UNL     1      -3.136  13.033  21.055  0.00  0.00    +0.000 A 
ATOM     19  C   UNL     1      -2.076  12.230  20.644  0.00  0.00    +0.000 A 
ENDBRANCH  10  14
ENDBRANCH   2   3
BRANCH   2  20
ATOM     20  C   UNL     1       1.513   5.447  20.208  0.00  0.00    +0.000 C 
BRANCH  20  21
ATOM     21  C   UNL     1       1.883   4.106  20.835  0.00  0.00    +0.000 C 
BRANCH  21  22
ATOM     22  C   UNL     1       1.532   2.958  19.857  0.00  0.00    +0.000 C 
ATOM     23  C   UNL     1       2.698   1.988  19.604  0.00  0.00    +0.000 C 
ATOM     24  C   UNL     1       3.770   2.606  18.714  0.00  0.00    +0.000 C 
ATOM     25  N   UNL     1       3.184   2.914  17.404  0.00  0.00    +0.000 NA
ATOM     26  C   UNL     1       2.113   3.915  17.542  0.00  0.00    +0.000 C 
ATOM     27  C   UNL     1       1.008   3.465  18.506  0.00  0.00    +0.000 C 
BRANCH  25  28
ATOM     28  C   UNL     1       4.202   3.384  16.448  0.00  0.00    +0.000 C 
BRANCH  28  29
ATOM     29  C   UNL     1       5.093   4.486  16.988  0.00  0.00    +0.000 A 
ATOM     30  C   UNL     1       6.106   4.204  17.919  0.00  0.00    +0.000 A 
ATOM     31  C   UNL     1       6.921   5.224  18.411  0.00  0.00    +0.000 A 
ATOM     32  C   UNL     1       6.739   6.535  17.977  0.00  0.00    +0.000 A 
ATOM     33  C   UNL     1       5.736   6.831  17.056  0.00  0.00    +0.000 A 
ATOM     34  C   UNL     1       4.917   5.812  16.565  0.00  0.00    +0.000 A 
ENDBRANCH  28  29
ENDBRANCH  25  28
ENDBRANCH  21  22
ENDBRANCH  20  21
ENDBRANCH   2  20
TORSDOF 7
ENDMDL
MODEL 7
REMARK VINA RESULT:      -8.5      5.778      6.760
REMARK  Name = 
REMARK  7 active torsions:
REMARK  status: ('A' for Active; 'I' for Inactive)
REMARK    1  A    between atoms: C_2  and  C_3
REMARK    2  A    between atoms: C_2  and  C_18
REMARK    3  A    between atoms: C_3  and  C_4
REMARK    4  A    between atoms: C_4  and  C_5
REMARK    5  A    between atoms: N_8  and  C_9
REMARK    6  A    between atoms: C_9  and  C_10
REMARK    7  A    between atoms: C_25  and  C_26
REMARK                            x       y       z     vdW  Elec       q    Type
REMARK                         _______ _______ _______ _____ _____    ______ ____
ROOT
ATOM      1  O   UNL     1       2.076   6.044  18.117  0.00  0.00    +0.000 OA
ATOM      2  C   UNL     1       2.607   7.145  18.200  0.00  0.00    +0.000 C 
ENDROOT
BRANCH   2   3
ATOM      3  C   UNL     1       1.840   8.338  18.673  0.00  0.00    +0.000 A 
ATOM      4  C   UNL     1       1.309   8.409  19.992  0.00  0.00    +0.000 A 
ATOM      5  C   UNL     1       0.989   9.644  20.574  0.00  0.00    +0.000 A 
ATOM      6  C   UNL     1       1.248  10.765  19.818  0.00  0.00    +0.000 A 
ATOM      7  C   UNL     1       1.586  10.652  18.470  0.00  0.00    +0.000 A 
ATOM      8  C   UNL     1       1.869   9.463  17.856  0.00  0.00    +0.000 A 
ATOM      9  N   UNL     1       1.710  11.939  17.885  0.00  0.00    +0.000 N 
ATOM     10  C   UNL     1       2.112  12.649  19.112  0.00  0.00    +0.000 C 
ATOM     11  N   UNL     1       1.272  12.136  20.223  0.00  0.00    +0.000 N 
ATOM     12  H   UNL     1       0.764  12.260  17.679  0.00  0.00    +0.000 HD
ATOM     13  H   UNL     1       0.335  12.517  20.158  0.00  0.00    +0.000 HD
BRANCH  10  14
ATOM     14  C   UNL     1       2.118  14.142  18.895  0.00  0.00    +0.000 A 
ATOM     15  C   UNL     1       3.194  14.798  18.286  0.00  0.00    +0.000 A 
ATOM     16  C   UNL     1       3.088  16.145  17.934  0.00  0.00    +0.000 A 
ATOM     17  C   UNL     1       1.906  16.850  18.175  0.00  0.00    +0.000 A 
ATOM     18  C   UNL     1       0.821  16.213  18.767  0.00  0.00    +0.000 A 
ATOM     19  C   UNL     1       0.928  14.870  19.114  0.00  0.00    +0.000 A 
ENDBRANCH  10  14
ENDBRANCH   2   3
BRANCH   2  20
ATOM     20  C   UNL     1       4.022   7.422  17.745  0.00  0.00    +0.000 C 
BRANCH  20  21
ATOM     21  C   UNL     1       4.466   6.711  16.470  0.00  0.00    +0.000 C 
BRANCH  21  22
ATOM     22  C   UNL     1       5.758   5.903  16.747  0.00  0.00    +0.000 C 
ATOM     23  C   UNL     1       5.633   4.409  16.407  0.00  0.00    +0.000 C 
ATOM     24  C   UNL     1       4.782   3.662  17.427  0.00  0.00    +0.000 C 
ATOM     25  N   UNL     1       5.430   3.745  18.742  0.00  0.00    +0.000 NA
ATOM     26  C   UNL     1       5.506   5.145  19.191  0.00  0.00    +0.000 C 
ATOM     27  C   UNL     1       6.250   6.043  18.194  0.00  0.00    +0.000 C 
BRANCH  25  28
ATOM     28  C   UNL     1       4.731   2.924  19.746  0.00  0.00    +0.000 C 
BRANCH  28  29
ATOM     29  C   UNL     1       3.220   3.060  19.711  0.00  0.00    +0.000 A 
ATOM     30  C   UNL     1       2.456   2.371  18.756  0.00  0.00    +0.000 A 
ATOM     31  C   UNL     1       1.067   2.502  18.731  0.00  0.00    +0.000 A 
ATOM     32  C   UNL     1       0.425   3.317  19.661  0.00  0.00    +0.000 A 
ATOM     33  C   UNL     1       1.170   4.008  20.613  0.00  0.00    +0.000 A 
ATOM     34  C   UNL     1       2.561   3.882  20.638  0.00  0.00    +0.000 A 
ENDBRANCH  28  29
ENDBRANCH  25  28
ENDBRANCH  21  22
ENDBRANCH  20  21
ENDBRANCH   2  20
TORSDOF 7
ENDMDL
MODEL 8
REMARK VINA RESULT:      -8.5      6.889     11.453
REMARK  Name = 
REMARK  7 active torsions:
REMARK  status: ('A' for Active; 'I' for Inactive)
REMARK    1  A    between atoms: C_2  and  C_3
REMARK    2  A    between atoms: C_2  and  C_18
REMARK    3  A    between atoms: C_3  and  C_4
REMARK    4  A    between atoms: C_4  and  C_5
REMARK    5  A    between atoms: N_8  and  C_9
REMARK    6  A    between atoms: C_9  and  C_10
REMARK    7  A    between atoms: C_25  and  C_26
REMARK                            x       y       z     vdW  Elec       q    Type
REMARK                         _______ _______ _______ _____ _____    ______ ____
ROOT
ATOM      1  O   UNL     1       1.589   7.949  18.598  0.00  0.00    +0.000 OA
ATOM      2  C   UNL     1       2.132   7.190  19.391  0.00  0.00    +0.000 C 
ENDROOT
BRANCH   2   3
ATOM      3  C   UNL     1       3.309   6.362  18.984  0.00  0.00    +0.000 A 
ATOM      4  C   UNL     1       3.568   5.092  19.573  0.00  0.00    +0.000 A 
ATOM      5  C   UNL     1       4.371   4.145  18.921  0.00  0.00    +0.000 A 
ATOM      6  C   UNL     1       4.855   4.500  17.682  0.00  0.00    +0.000 A 
ATOM      7  C   UNL     1       4.742   5.811  17.222  0.00  0.00    +0.000 A 
ATOM      8  C   UNL     1       4.000   6.774  17.849  0.00  0.00    +0.000 A 
ATOM      9  N   UNL     1       5.397   5.951  15.970  0.00  0.00    +0.000 N 
ATOM     10  C   UNL     1       5.214   4.560  15.523  0.00  0.00    +0.000 C 
ATOM     11  N   UNL     1       5.469   3.676  16.687  0.00  0.00    +0.000 N 
ATOM     12  H   UNL     1       6.393   6.047  16.169  0.00  0.00    +0.000 HD
ATOM     13  H   UNL     1       6.464   3.619  16.872  0.00  0.00    +0.000 HD
BRANCH  10  14
ATOM     14  C   UNL     1       6.010   4.285  14.271  0.00  0.00    +0.000 A 
ATOM     15  C   UNL     1       5.544   3.425  13.270  0.00  0.00    +0.000 A 
ATOM     16  C   UNL     1       6.214   3.339  12.049  0.00  0.00    +0.000 A 
ATOM     17  C   UNL     1       7.351   4.115  11.807  0.00  0.00    +0.000 A 
ATOM     18  C   UNL     1       7.822   4.986  12.784  0.00  0.00    +0.000 A 
ATOM     19  C   UNL     1       7.150   5.072  13.999  0.00  0.00    +0.000 A 
ENDBRANCH  10  14
ENDBRANCH   2   3
BRANCH   2  20
ATOM     20  C   UNL     1       1.618   6.942  20.791  0.00  0.00    +0.000 C 
BRANCH  20  21
ATOM     21  C   UNL     1       0.523   7.887  21.279  0.00  0.00    +0.000 C 
BRANCH  21  22
ATOM     22  C   UNL     1       1.152   9.019  22.127  0.00  0.00    +0.000 C 
ATOM     23  C   UNL     1       0.295   9.431  23.335  0.00  0.00    +0.000 C 
ATOM     24  C   UNL     1      -0.930  10.236  22.917  0.00  0.00    +0.000 C 
ATOM     25  N   UNL     1      -0.487  11.477  22.270  0.00  0.00    +0.000 NA
ATOM     26  C   UNL     1       0.267  11.176  21.041  0.00  0.00    +0.000 C 
ATOM     27  C   UNL     1       1.479  10.272  21.303  0.00  0.00    +0.000 C 
BRANCH  25  28
ATOM     28  C   UNL     1      -1.622  12.367  21.966  0.00  0.00    +0.000 C 
BRANCH  28  29
ATOM     29  C   UNL     1      -2.017  13.276  23.115  0.00  0.00    +0.000 A 
ATOM     30  C   UNL     1      -1.133  14.254  23.599  0.00  0.00    +0.000 A 
ATOM     31  C   UNL     1      -1.507  15.085  24.655  0.00  0.00    +0.000 A 
ATOM     32  C   UNL     1      -2.765  14.954  25.238  0.00  0.00    +0.000 A 
ATOM     33  C   UNL     1      -3.651  13.987  24.770  0.00  0.00    +0.000 A 
ATOM     34  C   UNL     1      -3.279  13.151  23.714  0.00  0.00    +0.000 A 
ENDBRANCH  28  29
ENDBRANCH  25  28
ENDBRANCH  21  22
ENDBRANCH  20  21
ENDBRANCH   2  20
TORSDOF 7
ENDMDL
MODEL 9
REMARK VINA RESULT:      -8.5      5.894      7.000
REMARK  Name = 
REMARK  7 active torsions:
REMARK  status: ('A' for Active; 'I' for Inactive)
REMARK    1  A    between atoms: C_2  and  C_3
REMARK    2  A    between atoms: C_2  and  C_18
REMARK    3  A    between atoms: C_3  and  C_4
REMARK    4  A    between atoms: C_4  and  C_5
REMARK    5  A    between atoms: N_8  and  C_9
REMARK    6  A    between atoms: C_9  and  C_10
REMARK    7  A    between atoms: C_25  and  C_26
REMARK                            x       y       z     vdW  Elec       q    Type
REMARK                         _______ _______ _______ _____ _____    ______ ____
ROOT
ATOM      1  O   UNL     1       2.148   5.735  17.803  0.00  0.00    +0.000 OA
ATOM      2  C   UNL     1       2.641   6.810  18.121  0.00  0.00    +0.000 C 
ENDROOT
BRANCH   2   3
ATOM      3  C   UNL     1       1.828   7.857  18.813  0.00  0.00    +0.000 A 
ATOM      4  C   UNL     1       1.620   7.832  20.220  0.00  0.00    +0.000 A 
ATOM      5  C   UNL     1       1.255   8.994  20.916  0.00  0.00    +0.000 A 
ATOM      6  C   UNL     1       1.147  10.146  20.172  0.00  0.00    +0.000 A 
ATOM      7  C   UNL     1       1.171  10.100  18.778  0.00  0.00    +0.000 A 
ATOM      8  C   UNL     1       1.485   8.977  18.063  0.00  0.00    +0.000 A 
ATOM      9  N   UNL     1       0.947  11.393  18.239  0.00  0.00    +0.000 N 
ATOM     10  C   UNL     1       1.509  12.152  19.369  0.00  0.00    +0.000 C 
ATOM     11  N   UNL     1       1.049  11.501  20.621  0.00  0.00    +0.000 N 
ATOM     12  H   UNL     1      -0.060  11.555  18.272  0.00  0.00    +0.000 HD
ATOM     13  H   UNL     1       0.074  11.722  20.792  0.00  0.00    +0.000 HD
BRANCH  10  14
ATOM     14  C   UNL     1       1.227  13.627  19.224  0.00  0.00    +0.000 A 
ATOM     15  C   UNL     1       0.026  14.101  18.686  0.00  0.00    +0.000 A 
ATOM     16  C   UNL     1      -0.280  15.463  18.739  0.00  0.00    +0.000 A 
ATOM     17  C   UNL     1       0.604  16.364  19.338  0.00  0.00    +0.000 A 
ATOM     18  C   UNL     1       1.797  15.911  19.891  0.00  0.00    +0.000 A 
ATOM     19  C   UNL     1       2.097  14.553  19.839  0.00  0.00    +0.000 A 
ENDBRANCH  10  14
ENDBRANCH   2   3
BRANCH   2  20
ATOM     20  C   UNL     1       4.053   7.216  17.763  0.00  0.00    +0.000 C 
BRANCH  20  21
ATOM     21  C   UNL     1       4.606   6.637  16.464  0.00  0.00    +0.000 C 
BRANCH  21  22
ATOM     22  C   UNL     1       5.875   5.801  16.764  0.00  0.00    +0.000 C 
ATOM     23  C   UNL     1       5.710   4.303  16.461  0.00  0.00    +0.000 C 
ATOM     24  C   UNL     1       4.836   3.604  17.495  0.00  0.00    +0.000 C 
ATOM     25  N   UNL     1       5.483   3.701  18.810  0.00  0.00    +0.000 NA
ATOM     26  C   UNL     1       5.596   5.110  19.225  0.00  0.00    +0.000 C 
ATOM     27  C   UNL     1       6.367   5.962  18.210  0.00  0.00    +0.000 C 
BRANCH  25  28
ATOM     28  C   UNL     1       4.758   2.925  19.832  0.00  0.00    +0.000 C 
BRANCH  28  29
ATOM     29  C   UNL     1       3.250   3.076  19.769  0.00  0.00    +0.000 A 
ATOM     30  C   UNL     1       2.488   2.332  18.854  0.00  0.00    +0.000 A 
ATOM     31  C   UNL     1       1.101   2.478  18.803  0.00  0.00    +0.000 A 
ATOM     32  C   UNL     1       0.459   3.364  19.666  0.00  0.00    +0.000 A 
ATOM     33  C   UNL     1       1.203   4.111  20.576  0.00  0.00    +0.000 A 
ATOM     34  C   UNL     1       2.592   3.969  20.627  0.00  0.00    +0.000 A 
ENDBRANCH  28  29
ENDBRANCH  25  28
ENDBRANCH  21  22
ENDBRANCH  20  21
ENDBRANCH   2  20
TORSDOF 7
ENDMDL
