MODEL 1
REMARK VINA RESULT:      -7.4      0.000      0.000
REMARK  Name = 
REMARK  9 active torsions:
REMARK  status: ('A' for Active; 'I' for Inactive)
REMARK    1  A    between atoms: C_1  and  C_2
REMARK    2  A    between atoms: C_2  and  S_3
REMARK    3  A    between atoms: C_2  and  C_18
REMARK    4  A    between atoms: S_3  and  C_4
REMARK    5  A    between atoms: C_4  and  C_5
REMARK    6  A    between atoms: C_4  and  C_15
REMARK    7  A    between atoms: C_5  and  C_6
REMARK    8  A    between atoms: C_6  and  C_8
REMARK    9  A    between atoms: C_15  and  O_17
REMARK                            x       y       z     vdW  Elec       q    Type
REMARK                         _______ _______ _______ _____ _____    ______ ____
ROOT
ATOM      1  C   UNL     1       3.699   3.795  18.422  0.00  0.00    +0.000 C 
ENDROOT
BRANCH   1   2
ATOM      2  C   UNL     1       4.071   2.390  18.916  0.00  0.00    +0.000 C 
ATOM      3  O   UNL     1       3.484   1.383  18.537  0.00  0.00    +0.000 OA
BRANCH   2   4
ATOM      4  O   UNL     1       5.060   2.340  19.841  0.00  0.00    +0.000 OA
ATOM      5  H   UNL     1       4.688   2.048  20.704  0.00  0.00    +0.000 HD
ENDBRANCH   2   4
ENDBRANCH   1   2
BRANCH   1   6
ATOM      6  S   UNL     1       3.933   3.959  16.587  0.00  0.00    +0.000 S 
BRANCH   6   8
ATOM      7  C   UNL     1       6.153   3.944  14.889  0.00  0.00    +0.000 C 
ATOM      8  C   UNL     1       5.774   3.939  16.375  0.00  0.00    +0.000 C 
BRANCH   8   9
ATOM      9  C   UNL     1       6.505   5.073  17.108  0.00  0.00    +0.000 A 
ATOM     10  C   UNL     1       6.484   6.419  16.715  0.00  0.00    +0.000 A 
ATOM     11  C   UNL     1       7.196   7.398  17.420  0.00  0.00    +0.000 A 
ATOM     12  C   UNL     1       7.956   7.049  18.531  0.00  0.00    +0.000 A 
ATOM     13  C   UNL     1       7.996   5.724  18.944  0.00  0.00    +0.000 A 
ATOM     14  C   UNL     1       7.270   4.751  18.249  0.00  0.00    +0.000 A 
ENDBRANCH   8   9
ENDBRANCH   6   8
ENDBRANCH   1   6
BRANCH   1  15
ATOM     15  C   UNL     1       2.302   4.185  18.929  0.00  0.00    +0.000 C 
BRANCH  15  16
ATOM     16  C   UNL     1       2.327   5.218  20.042  0.00  0.00    +0.000 C 
ATOM     17  O   UNL     1       2.473   4.903  21.220  0.00  0.00    +0.000 OA
BRANCH  16  18
ATOM     18  C   UNL     1       2.149   6.664  19.705  0.00  0.00    +0.000 A 
ATOM     19  C   UNL     1       2.462   7.191  18.446  0.00  0.00    +0.000 A 
ATOM     20  C   UNL     1       2.112   8.510  18.134  0.00  0.00    +0.000 A 
ATOM     21  C   UNL     1       1.477   9.309  19.085  0.00  0.00    +0.000 A 
ATOM     22 CL   UNL     1       0.967  10.897  18.663  0.00  0.00    +0.000 Cl
ATOM     23  C   UNL     1       1.232   8.819  20.363  0.00  0.00    +0.000 A 
ATOM     24  C   UNL     1       1.571   7.500  20.673  0.00  0.00    +0.000 A 
ENDBRANCH  16  18
ENDBRANCH  15  16
ENDBRANCH   1  15
TORSDOF 8
ENDMDL
MODEL 2
REMARK VINA RESULT:      -7.2      0.938      1.708
REMARK  Name = 
REMARK  9 active torsions:
REMARK  status: ('A' for Active; 'I' for Inactive)
REMARK    1  A    between atoms: C_1  and  C_2
REMARK    2  A    between atoms: C_2  and  S_3
REMARK    3  A    between atoms: C_2  and  C_18
REMARK    4  A    between atoms: S_3  and  C_4
REMARK    5  A    between atoms: C_4  and  C_5
REMARK    6  A    between atoms: C_4  and  C_15
REMARK    7  A    between atoms: C_5  and  C_6
REMARK    8  A    between atoms: C_6  and  C_8
REMARK    9  A    between atoms: C_15  and  O_17
REMARK                            x       y       z     vdW  Elec       q    Type
REMARK                         _______ _______ _______ _____ _____    ______ ____
ROOT
ATOM      1  C   UNL     1       4.263   4.332  17.550  0.00  0.00    +0.000 C 
ENDROOT
BRANCH   1   2
ATOM      2  C   UNL     1       4.175   2.984  18.279  0.00  0.00    +0.000 C 
ATOM      3  O   UNL     1       3.368   2.117  17.964  0.00  0.00    +0.000 OA
BRANCH   2   4
ATOM      4  O   UNL     1       5.014   2.835  19.332  0.00  0.00    +0.000 OA
ATOM      5  H   UNL     1       4.736   3.435  20.062  0.00  0.00    +0.000 HD
ENDBRANCH   2   4
ENDBRANCH   1   2
BRANCH   1   6
ATOM      6  S   UNL     1       4.706   4.111  15.760  0.00  0.00    +0.000 S 
BRANCH   6   8
ATOM      7  C   UNL     1       7.048   4.736  14.366  0.00  0.00    +0.000 C 
ATOM      8  C   UNL     1       6.552   4.272  15.741  0.00  0.00    +0.000 C 
BRANCH   8   9
ATOM      9  C   UNL     1       7.118   5.185  16.838  0.00  0.00    +0.000 A 
ATOM     10  C   UNL     1       7.643   4.734  18.058  0.00  0.00    +0.000 A 
ATOM     11  C   UNL     1       8.121   5.630  19.023  0.00  0.00    +0.000 A 
ATOM     12  C   UNL     1       8.074   7.000  18.794  0.00  0.00    +0.000 A 
ATOM     13  C   UNL     1       7.559   7.477  17.596  0.00  0.00    +0.000 A 
ATOM     14  C   UNL     1       7.099   6.580  16.626  0.00  0.00    +0.000 A 
ENDBRANCH   8   9
ENDBRANCH   6   8
ENDBRANCH   1   6
BRANCH   1  15
ATOM     15  C   UNL     1       2.992   5.157  17.800  0.00  0.00    +0.000 C 
BRANCH  15  16
ATOM     16  C   UNL     1       3.067   6.023  19.046  0.00  0.00    +0.000 C 
ATOM     17  O   UNL     1       3.746   5.706  20.019  0.00  0.00    +0.000 OA
BRANCH  16  18
ATOM     18  C   UNL     1       2.276   7.291  19.107  0.00  0.00    +0.000 A 
ATOM     19  C   UNL     1       1.715   7.776  20.295  0.00  0.00    +0.000 A 
ATOM     20  C   UNL     1       1.138   9.050  20.326  0.00  0.00    +0.000 A 
ATOM     21  C   UNL     1       1.095   9.827  19.169  0.00  0.00    +0.000 A 
ATOM     22 CL   UNL     1       0.468  11.428  19.238  0.00  0.00    +0.000 Cl
ATOM     23  C   UNL     1       1.579   9.323  17.967  0.00  0.00    +0.000 A 
ATOM     24  C   UNL     1       2.166   8.056  17.936  0.00  0.00    +0.000 A 
ENDBRANCH  16  18
ENDBRANCH  15  16
ENDBRANCH   1  15
TORSDOF 8
ENDMDL
MODEL 3
REMARK VINA RESULT:      -7.2      2.298      4.119
REMARK  Name = 
REMARK  9 active torsions:
REMARK  status: ('A' for Active; 'I' for Inactive)
REMARK    1  A    between atoms: C_1  and  C_2
REMARK    2  A    between atoms: C_2  and  S_3
REMARK    3  A    between atoms: C_2  and  C_18
REMARK    4  A    between atoms: S_3  and  C_4
REMARK    5  A    between atoms: C_4  and  C_5
REMARK    6  A    between atoms: C_4  and  C_15
REMARK    7  A    between atoms: C_5  and  C_6
REMARK    8  A    between atoms: C_6  and  C_8
REMARK    9  A    between atoms: C_15  and  O_17
REMARK                            x       y       z     vdW  Elec       q    Type
REMARK                         _______ _______ _______ _____ _____    ______ ____
ROOT
ATOM      1  C   UNL     1       6.415   5.324  18.449  0.00  0.00    +0.000 C 
ENDROOT
BRANCH   1   2
ATOM      2  C   UNL     1       7.527   5.800  19.394  0.00  0.00    +0.000 C 
ATOM      3  O   UNL     1       7.711   5.302  20.498  0.00  0.00    +0.000 OA
BRANCH   2   4
ATOM      4  O   UNL     1       8.262   6.848  18.947  0.00  0.00    +0.000 OA
ATOM      5  H   UNL     1       7.824   7.245  18.160  0.00  0.00    +0.000 HD
ENDBRANCH   2   4
ENDBRANCH   1   2
BRANCH   1   6
ATOM      6  S   UNL     1       7.111   4.547  16.912  0.00  0.00    +0.000 S 
BRANCH   6   8
ATOM      7  C   UNL     1       5.362   6.347  15.680  0.00  0.00    +0.000 C 
ATOM      8  C   UNL     1       5.821   4.884  15.625  0.00  0.00    +0.000 C 
BRANCH   8   9
ATOM      9  C   UNL     1       6.246   4.521  14.195  0.00  0.00    +0.000 A 
ATOM     10  C   UNL     1       7.349   5.072  13.528  0.00  0.00    +0.000 A 
ATOM     11  C   UNL     1       7.664   4.709  12.212  0.00  0.00    +0.000 A 
ATOM     12  C   UNL     1       6.874   3.791  11.529  0.00  0.00    +0.000 A 
ATOM     13  C   UNL     1       5.774   3.228  12.164  0.00  0.00    +0.000 A 
ATOM     14  C   UNL     1       5.473   3.579  13.484  0.00  0.00    +0.000 A 
ENDBRANCH   8   9
ENDBRANCH   6   8
ENDBRANCH   1   6
BRANCH   1  15
ATOM     15  C   UNL     1       5.407   4.450  19.210  0.00  0.00    +0.000 C 
BRANCH  15  16
ATOM     16  C   UNL     1       3.998   4.517  18.646  0.00  0.00    +0.000 C 
ATOM     17  O   UNL     1       3.571   3.676  17.860  0.00  0.00    +0.000 OA
BRANCH  16  18
ATOM     18  C   UNL     1       3.104   5.650  19.039  0.00  0.00    +0.000 A 
ATOM     19  C   UNL     1       2.401   5.673  20.250  0.00  0.00    +0.000 A 
ATOM     20  C   UNL     1       1.720   6.831  20.641  0.00  0.00    +0.000 A 
ATOM     21  C   UNL     1       1.716   7.953  19.813  0.00  0.00    +0.000 A 
ATOM     22 CL   UNL     1       0.956   9.403  20.342  0.00  0.00    +0.000 Cl
ATOM     23  C   UNL     1       2.346   7.913  18.573  0.00  0.00    +0.000 A 
ATOM     24  C   UNL     1       3.036   6.762  18.187  0.00  0.00    +0.000 A 
ENDBRANCH  16  18
ENDBRANCH  15  16
ENDBRANCH   1  15
TORSDOF 8
ENDMDL
MODEL 4
REMARK VINA RESULT:      -7.1      1.825      3.328
REMARK  Name = 
REMARK  9 active torsions:
REMARK  status: ('A' for Active; 'I' for Inactive)
REMARK    1  A    between atoms: C_1  and  C_2
REMARK    2  A    between atoms: C_2  and  S_3
REMARK    3  A    between atoms: C_2  and  C_18
REMARK    4  A    between atoms: S_3  and  C_4
REMARK    5  A    between atoms: C_4  and  C_5
REMARK    6  A    between atoms: C_4  and  C_15
REMARK    7  A    between atoms: C_5  and  C_6
REMARK    8  A    between atoms: C_6  and  C_8
REMARK    9  A    between atoms: C_15  and  O_17
REMARK                            x       y       z     vdW  Elec       q    Type
REMARK                         _______ _______ _______ _____ _____    ______ ____
ROOT
ATOM      1  C   UNL     1       4.188   4.566  18.240  0.00  0.00    +0.000 C 
ENDROOT
BRANCH   1   2
ATOM      2  C   UNL     1       4.104   3.507  19.347  0.00  0.00    +0.000 C 
ATOM      3  O   UNL     1       3.093   3.338  20.020  0.00  0.00    +0.000 OA
BRANCH   2   4
ATOM      4  O   UNL     1       5.240   2.803  19.569  0.00  0.00    +0.000 OA
ATOM      5  H   UNL     1       5.921   3.395  19.964  0.00  0.00    +0.000 HD
ENDBRANCH   2   4
ENDBRANCH   1   2
BRANCH   1   6
ATOM      6  S   UNL     1       4.672   3.815  16.611  0.00  0.00    +0.000 S 
BRANCH   6   8
ATOM      7  C   UNL     1       7.337   4.569  16.985  0.00  0.00    +0.000 C 
ATOM      8  C   UNL     1       6.129   4.826  16.076  0.00  0.00    +0.000 C 
BRANCH   8   9
ATOM      9  C   UNL     1       6.527   4.628  14.605  0.00  0.00    +0.000 A 
ATOM     10  C   UNL     1       7.534   5.352  13.949  0.00  0.00    +0.000 A 
ATOM     11  C   UNL     1       7.827   5.133  12.597  0.00  0.00    +0.000 A 
ATOM     12  C   UNL     1       7.112   4.191  11.866  0.00  0.00    +0.000 A 
ATOM     13  C   UNL     1       6.109   3.459  12.489  0.00  0.00    +0.000 A 
ATOM     14  C   UNL     1       5.830   3.667  13.844  0.00  0.00    +0.000 A 
ENDBRANCH   8   9
ENDBRANCH   6   8
ENDBRANCH   1   6
BRANCH   1  15
ATOM     15  C   UNL     1       2.902   5.404  18.204  0.00  0.00    +0.000 C 
BRANCH  15  16
ATOM     16  C   UNL     1       3.153   6.897  18.086  0.00  0.00    +0.000 C 
ATOM     17  O   UNL     1       4.129   7.349  17.492  0.00  0.00    +0.000 OA
BRANCH  16  18
ATOM     18  C   UNL     1       2.199   7.855  18.727  0.00  0.00    +0.000 A 
ATOM     19  C   UNL     1       1.855   7.786  20.083  0.00  0.00    +0.000 A 
ATOM     20  C   UNL     1       1.098   8.809  20.664  0.00  0.00    +0.000 A 
ATOM     21  C   UNL     1       0.661   9.883  19.890  0.00  0.00    +0.000 A 
ATOM     22 CL   UNL     1      -0.189  11.182  20.631  0.00  0.00    +0.000 Cl
ATOM     23  C   UNL     1       0.932   9.921  18.525  0.00  0.00    +0.000 A 
ATOM     24  C   UNL     1       1.697   8.907  17.945  0.00  0.00    +0.000 A 
ENDBRANCH  16  18
ENDBRANCH  15  16
ENDBRANCH   1  15
TORSDOF 8
ENDMDL
MODEL 5
REMARK VINA RESULT:      -7.1      2.527      4.760
REMARK  Name = 
REMARK  9 active torsions:
REMARK  status: ('A' for Active; 'I' for Inactive)
REMARK    1  A    between atoms: C_1  and  C_2
REMARK    2  A    between atoms: C_2  and  S_3
REMARK    3  A    between atoms: C_2  and  C_18
REMARK    4  A    between atoms: S_3  and  C_4
REMARK    5  A    between atoms: C_4  and  C_5
REMARK    6  A    between atoms: C_4  and  C_15
REMARK    7  A    between atoms: C_5  and  C_6
REMARK    8  A    between atoms: C_6  and  C_8
REMARK    9  A    between atoms: C_15  and  O_17
REMARK                            x       y       z     vdW  Elec       q    Type
REMARK                         _______ _______ _______ _____ _____    ______ ____
ROOT
ATOM      1  C   UNL     1       5.645   4.211  17.144  0.00  0.00    +0.000 C 
ENDROOT
BRANCH   1   2
ATOM      2  C   UNL     1       7.050   4.471  16.583  0.00  0.00    +0.000 C 
ATOM      3  O   UNL     1       7.237   4.905  15.452  0.00  0.00    +0.000 OA
BRANCH   2   4
ATOM      4  O   UNL     1       8.076   4.140  17.404  0.00  0.00    +0.000 OA
ATOM      5  H   UNL     1       8.183   4.834  18.093  0.00  0.00    +0.000 HD
ENDBRANCH   2   4
ENDBRANCH   1   2
BRANCH   1   6
ATOM      6  S   UNL     1       5.663   4.080  18.996  0.00  0.00    +0.000 S 
BRANCH   6   8
ATOM      7  C   UNL     1       5.174   1.792  20.527  0.00  0.00    +0.000 C 
ATOM      8  C   UNL     1       4.616   2.590  19.342  0.00  0.00    +0.000 C 
BRANCH   8   9
ATOM      9  C   UNL     1       3.130   2.903  19.573  0.00  0.00    +0.000 A 
ATOM     10  C   UNL     1       2.556   3.155  20.827  0.00  0.00    +0.000 A 
ATOM     11  C   UNL     1       1.185   3.411  20.965  0.00  0.00    +0.000 A 
ATOM     12  C   UNL     1       0.355   3.409  19.849  0.00  0.00    +0.000 A 
ATOM     13  C   UNL     1       0.896   3.163  18.594  0.00  0.00    +0.000 A 
ATOM     14  C   UNL     1       2.267   2.925  18.457  0.00  0.00    +0.000 A 
ENDBRANCH   8   9
ENDBRANCH   6   8
ENDBRANCH   1   6
BRANCH   1  15
ATOM     15  C   UNL     1       4.649   5.236  16.582  0.00  0.00    +0.000 C 
BRANCH  15  16
ATOM     16  C   UNL     1       4.724   6.592  17.262  0.00  0.00    +0.000 C 
ATOM     17  O   UNL     1       5.736   7.287  17.219  0.00  0.00    +0.000 OA
BRANCH  16  18
ATOM     18  C   UNL     1       3.542   7.096  18.028  0.00  0.00    +0.000 A 
ATOM     19  C   UNL     1       3.087   6.486  19.204  0.00  0.00    +0.000 A 
ATOM     20  C   UNL     1       2.090   7.101  19.969  0.00  0.00    +0.000 A 
ATOM     21  C   UNL     1       1.529   8.306  19.548  0.00  0.00    +0.000 A 
ATOM     22 CL   UNL     1       0.371   9.102  20.541  0.00  0.00    +0.000 Cl
ATOM     23  C   UNL     1       1.919   8.879  18.342  0.00  0.00    +0.000 A 
ATOM     24  C   UNL     1       2.922   8.273  17.582  0.00  0.00    +0.000 A 
ENDBRANCH  16  18
ENDBRANCH  15  16
ENDBRANCH   1  15
TORSDOF 8
ENDMDL
MODEL 6
REMARK VINA RESULT:      -7.0      0.263      1.576
REMARK  Name = 
REMARK  9 active torsions:
REMARK  status: ('A' for Active; 'I' for Inactive)
REMARK    1  A    between atoms: C_1  and  C_2
REMARK    2  A    between atoms: C_2  and  S_3
REMARK    3  A    between atoms: C_2  and  C_18
REMARK    4  A    between atoms: S_3  and  C_4
REMARK    5  A    between atoms: C_4  and  C_5
REMARK    6  A    between atoms: C_4  and  C_15
REMARK    7  A    between atoms: C_5  and  C_6
REMARK    8  A    between atoms: C_6  and  C_8
REMARK    9  A    between atoms: C_15  and  O_17
REMARK                            x       y       z     vdW  Elec       q    Type
REMARK                         _______ _______ _______ _____ _____    ______ ____
ROOT
ATOM      1  C   UNL     1       3.765   3.779  18.598  0.00  0.00    +0.000 C 
ENDROOT
BRANCH   1   2
ATOM      2  C   UNL     1       4.255   2.410  19.090  0.00  0.00    +0.000 C 
ATOM      3  O   UNL     1       4.868   2.269  20.141  0.00  0.00    +0.000 OA
BRANCH   2   4
ATOM      4  O   UNL     1       4.010   1.370  18.257  0.00  0.00    +0.000 OA
ATOM      5  H   UNL     1       3.172   0.926  18.522  0.00  0.00    +0.000 HD
ENDBRANCH   2   4
ENDBRANCH   1   2
BRANCH   1   6
ATOM      6  S   UNL     1       3.954   3.952  16.759  0.00  0.00    +0.000 S 
BRANCH   6   8
ATOM      7  C   UNL     1       6.123   3.879  14.998  0.00  0.00    +0.000 C 
ATOM      8  C   UNL     1       5.785   3.862  16.494  0.00  0.00    +0.000 C 
BRANCH   8   9
ATOM      9  C   UNL     1       6.583   4.952  17.224  0.00  0.00    +0.000 A 
ATOM     10  C   UNL     1       7.355   4.737  18.376  0.00  0.00    +0.000 A 
ATOM     11  C   UNL     1       8.038   5.786  19.003  0.00  0.00    +0.000 A 
ATOM     12  C   UNL     1       7.957   7.079  18.498  0.00  0.00    +0.000 A 
ATOM     13  C   UNL     1       7.200   7.322  17.359  0.00  0.00    +0.000 A 
ATOM     14  C   UNL     1       6.533   6.270  16.724  0.00  0.00    +0.000 A 
ENDBRANCH   8   9
ENDBRANCH   6   8
ENDBRANCH   1   6
BRANCH   1  15
ATOM     15  C   UNL     1       2.352   4.062  19.129  0.00  0.00    +0.000 C 
BRANCH  15  16
ATOM     16  C   UNL     1       2.305   5.164  20.173  0.00  0.00    +0.000 C 
ATOM     17  O   UNL     1       2.519   4.944  21.362  0.00  0.00    +0.000 OA
BRANCH  16  18
ATOM     18  C   UNL     1       1.969   6.560  19.753  0.00  0.00    +0.000 A 
ATOM     19  C   UNL     1       1.409   7.499  20.628  0.00  0.00    +0.000 A 
ATOM     20  C   UNL     1       1.279   8.834  20.230  0.00  0.00    +0.000 A 
ATOM     21  C   UNL     1       1.680   9.226  18.954  0.00  0.00    +0.000 A 
ATOM     22 CL   UNL     1       1.603  10.885  18.506  0.00  0.00    +0.000 Cl
ATOM     23  C   UNL     1       2.165   8.286  18.051  0.00  0.00    +0.000 A 
ATOM     24  C   UNL     1       2.306   6.955  18.449  0.00  0.00    +0.000 A 
ENDBRANCH  16  18
ENDBRANCH  15  16
ENDBRANCH   1  15
TORSDOF 8
ENDMDL
MODEL 7
REMARK VINA RESULT:      -7.0      1.405      2.968
REMARK  Name = 
REMARK  9 active torsions:
REMARK  status: ('A' for Active; 'I' for Inactive)
REMARK    1  A    between atoms: C_1  and  C_2
REMARK    2  A    between atoms: C_2  and  S_3
REMARK    3  A    between atoms: C_2  and  C_18
REMARK    4  A    between atoms: S_3  and  C_4
REMARK    5  A    between atoms: C_4  and  C_5
REMARK    6  A    between atoms: C_4  and  C_15
REMARK    7  A    between atoms: C_5  and  C_6
REMARK    8  A    between atoms: C_6  and  C_8
REMARK    9  A    between atoms: C_15  and  O_17
REMARK                            x       y       z     vdW  Elec       q    Type
REMARK                         _______ _______ _______ _____ _____    ______ ____
ROOT
ATOM      1  C   UNL     1       4.864   4.154  18.635  0.00  0.00    +0.000 C 
ENDROOT
BRANCH   1   2
ATOM      2  C   UNL     1       4.386   2.766  19.084  0.00  0.00    +0.000 C 
ATOM      3  O   UNL     1       4.354   2.431  20.262  0.00  0.00    +0.000 OA
BRANCH   2   4
ATOM      4  O   UNL     1       4.051   1.914  18.085  0.00  0.00    +0.000 OA
ATOM      5  H   UNL     1       4.693   2.007  17.345  0.00  0.00    +0.000 HD
ENDBRANCH   2   4
ENDBRANCH   1   2
BRANCH   1   6
ATOM      6  S   UNL     1       4.513   4.448  16.835  0.00  0.00    +0.000 S 
BRANCH   6   8
ATOM      7  C   UNL     1       7.297   4.592  17.036  0.00  0.00    +0.000 C 
ATOM      8  C   UNL     1       6.127   5.067  16.167  0.00  0.00    +0.000 C 
BRANCH   8   9
ATOM      9  C   UNL     1       6.382   4.702  14.697  0.00  0.00    +0.000 A 
ATOM     10  C   UNL     1       5.625   3.778  13.962  0.00  0.00    +0.000 A 
ATOM     11  C   UNL     1       5.932   3.478  12.629  0.00  0.00    +0.000 A 
ATOM     12  C   UNL     1       7.012   4.089  12.002  0.00  0.00    +0.000 A 
ATOM     13  C   UNL     1       7.781   5.009  12.704  0.00  0.00    +0.000 A 
ATOM     14  C   UNL     1       7.462   5.320  14.030  0.00  0.00    +0.000 A 
ENDBRANCH   8   9
ENDBRANCH   6   8
ENDBRANCH   1   6
BRANCH   1  15
ATOM     15  C   UNL     1       4.322   5.236  19.580  0.00  0.00    +0.000 C 
BRANCH  15  16
ATOM     16  C   UNL     1       2.852   5.552  19.362  0.00  0.00    +0.000 C 
ATOM     17  O   UNL     1       2.000   4.669  19.295  0.00  0.00    +0.000 OA
BRANCH  16  18
ATOM     18  C   UNL     1       2.422   6.975  19.203  0.00  0.00    +0.000 A 
ATOM     19  C   UNL     1       2.543   7.671  17.994  0.00  0.00    +0.000 A 
ATOM     20  C   UNL     1       1.966   8.939  17.857  0.00  0.00    +0.000 A 
ATOM     21  C   UNL     1       1.296   9.522  18.931  0.00  0.00    +0.000 A 
ATOM     22 CL   UNL     1       0.509  11.039  18.726  0.00  0.00    +0.000 Cl
ATOM     23  C   UNL     1       1.237   8.871  20.159  0.00  0.00    +0.000 A 
ATOM     24  C   UNL     1       1.802   7.602  20.295  0.00  0.00    +0.000 A 
ENDBRANCH  16  18
ENDBRANCH  15  16
ENDBRANCH   1  15
TORSDOF 8
ENDMDL
MODEL 8
REMARK VINA RESULT:      -7.0      1.004      1.467
REMARK  Name = 
REMARK  9 active torsions:
REMARK  status: ('A' for Active; 'I' for Inactive)
REMARK    1  A    between atoms: C_1  and  C_2
REMARK    2  A    between atoms: C_2  and  S_3
REMARK    3  A    between atoms: C_2  and  C_18
REMARK    4  A    between atoms: S_3  and  C_4
REMARK    5  A    between atoms: C_4  and  C_5
REMARK    6  A    between atoms: C_4  and  C_15
REMARK    7  A    between atoms: C_5  and  C_6
REMARK    8  A    between atoms: C_6  and  C_8
REMARK    9  A    between atoms: C_15  and  O_17
REMARK                            x       y       z     vdW  Elec       q    Type
REMARK                         _______ _______ _______ _____ _____    ______ ____
ROOT
ATOM      1  C   UNL     1       4.636   3.884  19.041  0.00  0.00    +0.000 C 
ENDROOT
BRANCH   1   2
ATOM      2  C   UNL     1       4.253   2.652  19.873  0.00  0.00    +0.000 C 
ATOM      3  O   UNL     1       3.219   2.596  20.528  0.00  0.00    +0.000 OA
BRANCH   2   4
ATOM      4  O   UNL     1       5.161   1.647  19.878  0.00  0.00    +0.000 OA
ATOM      5  H   UNL     1       6.053   2.011  20.083  0.00  0.00    +0.000 HD
ENDBRANCH   2   4
ENDBRANCH   1   2
BRANCH   1   6
ATOM      6  S   UNL     1       4.249   3.639  17.241  0.00  0.00    +0.000 S 
BRANCH   6   8
ATOM      7  C   UNL     1       5.521   4.620  14.953  0.00  0.00    +0.000 C 
ATOM      8  C   UNL     1       5.811   4.145  16.383  0.00  0.00    +0.000 C 
BRANCH   8   9
ATOM      9  C   UNL     1       6.628   5.208  17.133  0.00  0.00    +0.000 A 
ATOM     10  C   UNL     1       7.522   4.934  18.178  0.00  0.00    +0.000 A 
ATOM     11  C   UNL     1       8.217   5.958  18.833  0.00  0.00    +0.000 A 
ATOM     12  C   UNL     1       8.024   7.285  18.464  0.00  0.00    +0.000 A 
ATOM     13  C   UNL     1       7.145   7.588  17.432  0.00  0.00    +0.000 A 
ATOM     14  C   UNL     1       6.466   6.561  16.768  0.00  0.00    +0.000 A 
ENDBRANCH   8   9
ENDBRANCH   6   8
ENDBRANCH   1   6
BRANCH   1  15
ATOM     15  C   UNL     1       4.034   5.153  19.661  0.00  0.00    +0.000 C 
BRANCH  15  16
ATOM     16  C   UNL     1       2.733   5.590  19.008  0.00  0.00    +0.000 C 
ATOM     17  O   UNL     1       1.968   4.787  18.481  0.00  0.00    +0.000 OA
BRANCH  16  18
ATOM     18  C   UNL     1       2.375   7.042  18.984  0.00  0.00    +0.000 A 
ATOM     19  C   UNL     1       2.513   7.836  17.839  0.00  0.00    +0.000 A 
ATOM     20  C   UNL     1       2.000   9.138  17.826  0.00  0.00    +0.000 A 
ATOM     21  C   UNL     1       1.377   9.655  18.960  0.00  0.00    +0.000 A 
ATOM     22 CL   UNL     1       0.667  11.222  18.905  0.00  0.00    +0.000 Cl
ATOM     23  C   UNL     1       1.304   8.902  20.127  0.00  0.00    +0.000 A 
ATOM     24  C   UNL     1       1.805   7.599  20.139  0.00  0.00    +0.000 A 
ENDBRANCH  16  18
ENDBRANCH  15  16
ENDBRANCH   1  15
TORSDOF 8
ENDMDL
MODEL 9
REMARK VINA RESULT:      -7.0      2.328      5.411
REMARK  Name = 
REMARK  9 active torsions:
REMARK  status: ('A' for Active; 'I' for Inactive)
REMARK    1  A    between atoms: C_1  and  C_2
REMARK    2  A    between atoms: C_2  and  S_3
REMARK    3  A    between atoms: C_2  and  C_18
REMARK    4  A    between atoms: S_3  and  C_4
REMARK    5  A    between atoms: C_4  and  C_5
REMARK    6  A    between atoms: C_4  and  C_15
REMARK    7  A    between atoms: C_5  and  C_6
REMARK    8  A    between atoms: C_6  and  C_8
REMARK    9  A    between atoms: C_15  and  O_17
REMARK                            x       y       z     vdW  Elec       q    Type
REMARK                         _______ _______ _______ _____ _____    ______ ____
ROOT
ATOM      1  C   UNL     1       2.719   3.732  20.152  0.00  0.00    +0.000 C 
ENDROOT
BRANCH   1   2
ATOM      2  C   UNL     1       2.090   2.861  21.248  0.00  0.00    +0.000 C 
ATOM      3  O   UNL     1       2.763   2.259  22.077  0.00  0.00    +0.000 OA
BRANCH   2   4
ATOM      4  O   UNL     1       0.740   2.757  21.207  0.00  0.00    +0.000 OA
ATOM      5  H   UNL     1       0.466   1.885  21.575  0.00  0.00    +0.000 HD
ENDBRANCH   2   4
ENDBRANCH   1   2
BRANCH   1   6
ATOM      6  S   UNL     1       2.661   5.534  20.594  0.00  0.00    +0.000 S 
BRANCH   6   8
ATOM      7  C   UNL     1       1.830   5.571  17.925  0.00  0.00    +0.000 C 
ATOM      8  C   UNL     1       2.623   6.390  18.951  0.00  0.00    +0.000 C 
BRANCH   8   9
ATOM      9  C   UNL     1       2.087   7.828  19.001  0.00  0.00    +0.000 A 
ATOM     10  C   UNL     1       1.422   8.393  20.099  0.00  0.00    +0.000 A 
ATOM     11  C   UNL     1       0.939   9.707  20.064  0.00  0.00    +0.000 A 
ATOM     12  C   UNL     1       1.102  10.485  18.924  0.00  0.00    +0.000 A 
ATOM     13  C   UNL     1       1.757   9.953  17.820  0.00  0.00    +0.000 A 
ATOM     14  C   UNL     1       2.253   8.647  17.863  0.00  0.00    +0.000 A 
ENDBRANCH   8   9
ENDBRANCH   6   8
ENDBRANCH   1   6
BRANCH   1  15
ATOM     15  C   UNL     1       4.115   3.205  19.788  0.00  0.00    +0.000 C 
BRANCH  15  16
ATOM     16  C   UNL     1       4.504   3.464  18.342  0.00  0.00    +0.000 C 
ATOM     17  O   UNL     1       4.065   2.784  17.418  0.00  0.00    +0.000 OA
BRANCH  16  18
ATOM     18  C   UNL     1       5.466   4.565  18.027  0.00  0.00    +0.000 A 
ATOM     19  C   UNL     1       5.386   5.325  16.853  0.00  0.00    +0.000 A 
ATOM     20  C   UNL     1       6.202   6.451  16.694  0.00  0.00    +0.000 A 
ATOM     21  C   UNL     1       7.114   6.801  17.689  0.00  0.00    +0.000 A 
ATOM     22 CL   UNL     1       8.046   8.238  17.527  0.00  0.00    +0.000 Cl
ATOM     23  C   UNL     1       7.255   6.007  18.823  0.00  0.00    +0.000 A 
ATOM     24  C   UNL     1       6.434   4.890  18.989  0.00  0.00    +0.000 A 
ENDBRANCH  16  18
ENDBRANCH  15  16
ENDBRANCH   1  15
TORSDOF 8
ENDMDL
