MODEL 1
REMARK VINA RESULT:      -7.1      0.000      0.000
REMARK  Name = 
REMARK  4 active torsions:
REMARK  status: ('A' for Active; 'I' for Inactive)
REMARK    1  A    between atoms: C_1  and  C_2
REMARK    2  A    between atoms: C_4  and  O_5
REMARK    3  A    between atoms: C_12  and  O_13
REMARK    4  A    between atoms: C_14  and  C_15
REMARK                            x       y       z     vdW  Elec       q    Type
REMARK                         _______ _______ _______ _____ _____    ______ ____
ROOT
ATOM      1  C   UNL     1       2.695   6.383  17.915  0.00  0.00    +0.000 C 
ATOM      2  C   UNL     1       3.478   5.115  17.513  0.00  0.00    +0.000 C 
ATOM      3  C   UNL     1       2.967   3.947  18.401  0.00  0.00    +0.000 C 
ATOM      4  C   UNL     1       3.945   3.323  19.400  0.00  0.00    +0.000 C 
ATOM      5  C   UNL     1       5.190   4.095  19.649  0.00  0.00    +0.000 C 
ATOM      6  C   UNL     1       5.690   5.009  18.802  0.00  0.00    +0.000 C 
ATOM      7  C   UNL     1       7.025   5.598  19.142  0.00  0.00    +0.000 C 
ATOM      8  O   UNL     1       7.683   5.249  20.117  0.00  0.00    +0.000 OA
ATOM      9  C   UNL     1       7.558   6.642  18.245  0.00  0.00    +0.000 C 
ATOM     10  C   UNL     1       6.835   7.156  17.245  0.00  0.00    +0.000 C 
ATOM     11  C   UNL     1       5.438   6.731  16.932  0.00  0.00    +0.000 C 
ATOM     12  C   UNL     1       5.051   5.300  17.457  0.00  0.00    +0.000 C 
ATOM     13  C   UNL     1       5.637   4.229  16.486  0.00  0.00    +0.000 C 
ENDROOT
BRANCH   4  14
ATOM     14  O   UNL     1       4.325   2.013  18.999  0.00  0.00    +0.000 OA
ATOM     15  H   UNL     1       5.056   2.072  18.363  0.00  0.00    +0.000 HD
ENDBRANCH   4  14
BRANCH  11  16
ATOM     16  O   UNL     1       5.304   6.834  15.518  0.00  0.00    +0.000 OA
ATOM     17  H   UNL     1       5.948   6.237  15.103  0.00  0.00    +0.000 HD
ENDBRANCH  11  16
TORSDOF 2
ENDMDL
MODEL 2
REMARK VINA RESULT:      -6.5      2.084      3.274
REMARK  Name = 
REMARK  4 active torsions:
REMARK  status: ('A' for Active; 'I' for Inactive)
REMARK    1  A    between atoms: C_1  and  C_2
REMARK    2  A    between atoms: C_4  and  O_5
REMARK    3  A    between atoms: C_12  and  O_13
REMARK    4  A    between atoms: C_14  and  C_15
REMARK                            x       y       z     vdW  Elec       q    Type
REMARK                         _______ _______ _______ _____ _____    ______ ____
ROOT
ATOM      1  C   UNL     1       2.531   2.551  17.390  0.00  0.00    +0.000 C 
ATOM      2  C   UNL     1       3.303   3.188  18.565  0.00  0.00    +0.000 C 
ATOM      3  C   UNL     1       2.302   3.375  19.739  0.00  0.00    +0.000 C 
ATOM      4  C   UNL     1       1.960   4.802  20.172  0.00  0.00    +0.000 C 
ATOM      5  C   UNL     1       2.371   5.876  19.230  0.00  0.00    +0.000 C 
ATOM      6  C   UNL     1       3.337   5.737  18.307  0.00  0.00    +0.000 C 
ATOM      7  C   UNL     1       3.720   6.960  17.529  0.00  0.00    +0.000 C 
ATOM      8  O   UNL     1       3.228   8.065  17.734  0.00  0.00    +0.000 OA
ATOM      9  C   UNL     1       4.743   6.806  16.477  0.00  0.00    +0.000 C 
ATOM     10  C   UNL     1       5.218   5.608  16.119  0.00  0.00    +0.000 C 
ATOM     11  C   UNL     1       4.777   4.325  16.740  0.00  0.00    +0.000 C 
ATOM     12  C   UNL     1       4.156   4.467  18.178  0.00  0.00    +0.000 C 
ATOM     13  C   UNL     1       5.311   4.619  19.216  0.00  0.00    +0.000 C 
ENDROOT
BRANCH   4  14
ATOM     14  O   UNL     1       2.525   5.105  21.441  0.00  0.00    +0.000 OA
ATOM     15  H   UNL     1       2.464   4.323  22.014  0.00  0.00    +0.000 HD
ENDBRANCH   4  14
BRANCH  11  16
ATOM     16  O   UNL     1       5.919   3.473  16.735  0.00  0.00    +0.000 OA
ATOM     17  H   UNL     1       6.465   3.696  15.964  0.00  0.00    +0.000 HD
ENDBRANCH  11  16
TORSDOF 2
ENDMDL
MODEL 3
REMARK VINA RESULT:      -6.5      2.087      4.552
REMARK  Name = 
REMARK  4 active torsions:
REMARK  status: ('A' for Active; 'I' for Inactive)
REMARK    1  A    between atoms: C_1  and  C_2
REMARK    2  A    between atoms: C_4  and  O_5
REMARK    3  A    between atoms: C_12  and  O_13
REMARK    4  A    between atoms: C_14  and  C_15
REMARK                            x       y       z     vdW  Elec       q    Type
REMARK                         _______ _______ _______ _____ _____    ______ ____
ROOT
ATOM      1  C   UNL     1       3.141   7.457  17.626  0.00  0.00    +0.000 C 
ATOM      2  C   UNL     1       4.160   6.417  18.137  0.00  0.00    +0.000 C 
ATOM      3  C   UNL     1       5.186   6.164  16.997  0.00  0.00    +0.000 C 
ATOM      4  C   UNL     1       5.221   4.774  16.359  0.00  0.00    +0.000 C 
ATOM      5  C   UNL     1       4.064   3.894  16.669  0.00  0.00    +0.000 C 
ATOM      6  C   UNL     1       3.267   4.049  17.739  0.00  0.00    +0.000 C 
ATOM      7  C   UNL     1       2.229   2.995  17.977  0.00  0.00    +0.000 C 
ATOM      8  O   UNL     1       2.117   1.995  17.274  0.00  0.00    +0.000 OA
ATOM      9  C   UNL     1       1.314   3.184  19.119  0.00  0.00    +0.000 C 
ATOM     10  C   UNL     1       1.301   4.311  19.839  0.00  0.00    +0.000 C 
ATOM     11  C   UNL     1       2.200   5.473  19.571  0.00  0.00    +0.000 C 
ATOM     12  C   UNL     1       3.514   5.122  18.783  0.00  0.00    +0.000 C 
ATOM     13  C   UNL     1       4.548   4.498  19.771  0.00  0.00    +0.000 C 
ENDROOT
BRANCH   4  14
ATOM     14  O   UNL     1       6.404   4.071  16.718  0.00  0.00    +0.000 OA
ATOM     15  H   UNL     1       6.238   3.115  16.660  0.00  0.00    +0.000 HD
ENDBRANCH   4  14
BRANCH  11  16
ATOM     16  O   UNL     1       2.480   6.053  20.842  0.00  0.00    +0.000 OA
ATOM     17  H   UNL     1       1.641   6.179  21.315  0.00  0.00    +0.000 HD
ENDBRANCH  11  16
TORSDOF 2
ENDMDL
MODEL 4
REMARK VINA RESULT:      -6.4      2.318      3.537
REMARK  Name = 
REMARK  4 active torsions:
REMARK  status: ('A' for Active; 'I' for Inactive)
REMARK    1  A    between atoms: C_1  and  C_2
REMARK    2  A    between atoms: C_4  and  O_5
REMARK    3  A    between atoms: C_12  and  O_13
REMARK    4  A    between atoms: C_14  and  C_15
REMARK                            x       y       z     vdW  Elec       q    Type
REMARK                         _______ _______ _______ _____ _____    ______ ____
ROOT
ATOM      1  C   UNL     1       2.228   2.234  17.519  0.00  0.00    +0.000 C 
ATOM      2  C   UNL     1       3.009   2.631  18.790  0.00  0.00    +0.000 C 
ATOM      3  C   UNL     1       2.094   2.340  20.013  0.00  0.00    +0.000 C 
ATOM      4  C   UNL     1       1.611   3.529  20.847  0.00  0.00    +0.000 C 
ATOM      5  C   UNL     1       1.801   4.868  20.230  0.00  0.00    +0.000 C 
ATOM      6  C   UNL     1       2.695   5.129  19.263  0.00  0.00    +0.000 C 
ATOM      7  C   UNL     1       2.852   6.560  18.846  0.00  0.00    +0.000 C 
ATOM      8  O   UNL     1       2.243   7.484  19.378  0.00  0.00    +0.000 OA
ATOM      9  C   UNL     1       3.794   6.852  17.748  0.00  0.00    +0.000 C 
ATOM     10  C   UNL     1       4.386   5.881  17.045  0.00  0.00    +0.000 C 
ATOM     11  C   UNL     1       4.166   4.426  17.296  0.00  0.00    +0.000 C 
ATOM     12  C   UNL     1       3.656   4.077  18.743  0.00  0.00    +0.000 C 
ATOM     13  C   UNL     1       4.865   4.105  19.728  0.00  0.00    +0.000 C 
ENDROOT
BRANCH   4  14
ATOM     14  O   UNL     1       2.238   3.552  22.123  0.00  0.00    +0.000 OA
ATOM     15  H   UNL     1       2.729   4.384  22.224  0.00  0.00    +0.000 HD
ENDBRANCH   4  14
BRANCH  11  16
ATOM     16  O   UNL     1       5.403   3.784  16.999  0.00  0.00    +0.000 OA
ATOM     17  H   UNL     1       5.631   3.198  17.738  0.00  0.00    +0.000 HD
ENDBRANCH  11  16
TORSDOF 2
ENDMDL
MODEL 5
REMARK VINA RESULT:      -6.3      1.894      3.482
REMARK  Name = 
REMARK  4 active torsions:
REMARK  status: ('A' for Active; 'I' for Inactive)
REMARK    1  A    between atoms: C_1  and  C_2
REMARK    2  A    between atoms: C_4  and  O_5
REMARK    3  A    between atoms: C_12  and  O_13
REMARK    4  A    between atoms: C_14  and  C_15
REMARK                            x       y       z     vdW  Elec       q    Type
REMARK                         _______ _______ _______ _____ _____    ______ ____
ROOT
ATOM      1  C   UNL     1       4.617   2.375  20.061  0.00  0.00    +0.000 C 
ATOM      2  C   UNL     1       3.907   3.637  19.528  0.00  0.00    +0.000 C 
ATOM      3  C   UNL     1       2.475   3.221  19.089  0.00  0.00    +0.000 C 
ATOM      4  C   UNL     1       2.126   3.311  17.602  0.00  0.00    +0.000 C 
ATOM      5  C   UNL     1       3.278   3.487  16.679  0.00  0.00    +0.000 C 
ATOM      6  C   UNL     1       4.471   3.978  17.052  0.00  0.00    +0.000 C 
ATOM      7  C   UNL     1       5.480   4.217  15.971  0.00  0.00    +0.000 C 
ATOM      8  O   UNL     1       5.244   4.030  14.781  0.00  0.00    +0.000 OA
ATOM      9  C   UNL     1       6.812   4.705  16.376  0.00  0.00    +0.000 C 
ATOM     10  C   UNL     1       7.171   4.803  17.661  0.00  0.00    +0.000 C 
ATOM     11  C   UNL     1       6.277   4.440  18.799  0.00  0.00    +0.000 C 
ATOM     12  C   UNL     1       4.740   4.465  18.464  0.00  0.00    +0.000 C 
ATOM     13  C   UNL     1       4.239   5.942  18.489  0.00  0.00    +0.000 C 
ENDROOT
BRANCH   4  14
ATOM     14  O   UNL     1       1.209   4.369  17.350  0.00  0.00    +0.000 OA
ATOM     15  H   UNL     1       0.772   4.218  16.497  0.00  0.00    +0.000 HD
ENDBRANCH   4  14
BRANCH  11  16
ATOM     16  O   UNL     1       6.605   5.335  19.857  0.00  0.00    +0.000 OA
ATOM     17  H   UNL     1       5.835   5.900  20.032  0.00  0.00    +0.000 HD
ENDBRANCH  11  16
TORSDOF 2
ENDMDL
MODEL 6
REMARK VINA RESULT:      -6.2      1.450      4.544
REMARK  Name = 
REMARK  4 active torsions:
REMARK  status: ('A' for Active; 'I' for Inactive)
REMARK    1  A    between atoms: C_1  and  C_2
REMARK    2  A    between atoms: C_4  and  O_5
REMARK    3  A    between atoms: C_12  and  O_13
REMARK    4  A    between atoms: C_14  and  C_15
REMARK                            x       y       z     vdW  Elec       q    Type
REMARK                         _______ _______ _______ _____ _____    ______ ____
ROOT
ATOM      1  C   UNL     1       7.170   5.428  19.455  0.00  0.00    +0.000 C 
ATOM      2  C   UNL     1       6.554   4.993  18.108  0.00  0.00    +0.000 C 
ATOM      3  C   UNL     1       6.940   6.062  17.048  0.00  0.00    +0.000 C 
ATOM      4  C   UNL     1       5.817   6.901  16.433  0.00  0.00    +0.000 C 
ATOM      5  C   UNL     1       4.507   6.835  17.131  0.00  0.00    +0.000 C 
ATOM      6  C   UNL     1       4.138   5.829  17.942  0.00  0.00    +0.000 C 
ATOM      7  C   UNL     1       2.732   5.850  18.459  0.00  0.00    +0.000 C 
ATOM      8  O   UNL     1       1.912   6.705  18.138  0.00  0.00    +0.000 OA
ATOM      9  C   UNL     1       2.332   4.779  19.392  0.00  0.00    +0.000 C 
ATOM     10  C   UNL     1       3.212   3.898  19.880  0.00  0.00    +0.000 C 
ATOM     11  C   UNL     1       4.664   3.902  19.534  0.00  0.00    +0.000 C 
ATOM     12  C   UNL     1       5.016   4.615  18.176  0.00  0.00    +0.000 C 
ATOM     13  C   UNL     1       4.696   3.646  16.997  0.00  0.00    +0.000 C 
ENDROOT
BRANCH   4  14
ATOM     14  O   UNL     1       5.597   6.550  15.073  0.00  0.00    +0.000 OA
ATOM     15  H   UNL     1       4.644   6.431  14.923  0.00  0.00    +0.000 HD
ENDBRANCH   4  14
BRANCH  11  16
ATOM     16  O   UNL     1       5.073   2.537  19.540  0.00  0.00    +0.000 OA
ATOM     17  H   UNL     1       4.281   1.979  19.484  0.00  0.00    +0.000 HD
ENDBRANCH  11  16
TORSDOF 2
ENDMDL
MODEL 7
REMARK VINA RESULT:      -6.1      2.414      3.644
REMARK  Name = 
REMARK  4 active torsions:
REMARK  status: ('A' for Active; 'I' for Inactive)
REMARK    1  A    between atoms: C_1  and  C_2
REMARK    2  A    between atoms: C_4  and  O_5
REMARK    3  A    between atoms: C_12  and  O_13
REMARK    4  A    between atoms: C_14  and  C_15
REMARK                            x       y       z     vdW  Elec       q    Type
REMARK                         _______ _______ _______ _____ _____    ______ ____
ROOT
ATOM      1  C   UNL     1       2.246   2.887  17.240  0.00  0.00    +0.000 C 
ATOM      2  C   UNL     1       3.137   3.076  18.486  0.00  0.00    +0.000 C 
ATOM      3  C   UNL     1       2.561   2.177  19.616  0.00  0.00    +0.000 C 
ATOM      4  C   UNL     1       1.980   2.863  20.854  0.00  0.00    +0.000 C 
ATOM      5  C   UNL     1       1.734   4.323  20.724  0.00  0.00    +0.000 C 
ATOM      6  C   UNL     1       2.346   5.112  19.825  0.00  0.00    +0.000 C 
ATOM      7  C   UNL     1       2.085   6.584  19.918  0.00  0.00    +0.000 C 
ATOM      8  O   UNL     1       1.389   7.088  20.794  0.00  0.00    +0.000 OA
ATOM      9  C   UNL     1       2.711   7.453  18.902  0.00  0.00    +0.000 C 
ATOM     10  C   UNL     1       3.370   6.955  17.851  0.00  0.00    +0.000 C 
ATOM     11  C   UNL     1       3.545   5.493  17.602  0.00  0.00    +0.000 C 
ATOM     12  C   UNL     1       3.410   4.586  18.880  0.00  0.00    +0.000 C 
ATOM     13  C   UNL     1       4.742   4.649  19.690  0.00  0.00    +0.000 C 
ENDROOT
BRANCH   4  14
ATOM     14  O   UNL     1       2.812   2.667  21.991  0.00  0.00    +0.000 OA
ATOM     15  H   UNL     1       2.483   3.211  22.725  0.00  0.00    +0.000 HD
ENDBRANCH   4  14
BRANCH  11  16
ATOM     16  O   UNL     1       4.819   5.351  16.981  0.00  0.00    +0.000 OA
ATOM     17  H   UNL     1       5.471   5.851  17.497  0.00  0.00    +0.000 HD
ENDBRANCH  11  16
TORSDOF 2
ENDMDL
MODEL 8
REMARK VINA RESULT:      -6.1      2.411      4.200
REMARK  Name = 
REMARK  4 active torsions:
REMARK  status: ('A' for Active; 'I' for Inactive)
REMARK    1  A    between atoms: C_1  and  C_2
REMARK    2  A    between atoms: C_4  and  O_5
REMARK    3  A    between atoms: C_12  and  O_13
REMARK    4  A    between atoms: C_14  and  C_15
REMARK                            x       y       z     vdW  Elec       q    Type
REMARK                         _______ _______ _______ _____ _____    ______ ____
ROOT
ATOM      1  C   UNL     1       0.722   2.137  18.610  0.00  0.00    +0.000 C 
ATOM      2  C   UNL     1       1.778   2.681  19.595  0.00  0.00    +0.000 C 
ATOM      3  C   UNL     1       1.078   3.733  20.500  0.00  0.00    +0.000 C 
ATOM      4  C   UNL     1       1.527   5.192  20.385  0.00  0.00    +0.000 C 
ATOM      5  C   UNL     1       2.365   5.515  19.201  0.00  0.00    +0.000 C 
ATOM      6  C   UNL     1       3.073   4.607  18.510  0.00  0.00    +0.000 C 
ATOM      7  C   UNL     1       3.972   5.120  17.427  0.00  0.00    +0.000 C 
ATOM      8  O   UNL     1       4.116   6.315  17.186  0.00  0.00    +0.000 OA
ATOM      9  C   UNL     1       4.714   4.126  16.627  0.00  0.00    +0.000 C 
ATOM     10  C   UNL     1       4.501   2.812  16.754  0.00  0.00    +0.000 C 
ATOM     11  C   UNL     1       3.511   2.223  17.704  0.00  0.00    +0.000 C 
ATOM     12  C   UNL     1       3.133   3.147  18.919  0.00  0.00    +0.000 C 
ATOM     13  C   UNL     1       4.267   3.069  19.988  0.00  0.00    +0.000 C 
ENDROOT
BRANCH   4  14
ATOM     14  O   UNL     1       2.242   5.605  21.542  0.00  0.00    +0.000 OA
ATOM     15  H   UNL     1       1.780   5.284  22.335  0.00  0.00    +0.000 HD
ENDBRANCH   4  14
BRANCH  11  16
ATOM     16  O   UNL     1       4.068   0.983  18.131  0.00  0.00    +0.000 OA
ATOM     17  H   UNL     1       4.223   1.029  19.089  0.00  0.00    +0.000 HD
ENDBRANCH  11  16
TORSDOF 2
ENDMDL
MODEL 9
REMARK VINA RESULT:      -6.1      1.756      4.022
REMARK  Name = 
REMARK  4 active torsions:
REMARK  status: ('A' for Active; 'I' for Inactive)
REMARK    1  A    between atoms: C_1  and  C_2
REMARK    2  A    between atoms: C_4  and  O_5
REMARK    3  A    between atoms: C_12  and  O_13
REMARK    4  A    between atoms: C_14  and  C_15
REMARK                            x       y       z     vdW  Elec       q    Type
REMARK                         _______ _______ _______ _____ _____    ______ ____
ROOT
ATOM      1  C   UNL     1       4.763   7.117  15.831  0.00  0.00    +0.000 C 
ATOM      2  C   UNL     1       5.423   6.508  17.086  0.00  0.00    +0.000 C 
ATOM      3  C   UNL     1       6.804   5.937  16.661  0.00  0.00    +0.000 C 
ATOM      4  C   UNL     1       7.009   4.422  16.737  0.00  0.00    +0.000 C 
ATOM      5  C   UNL     1       5.775   3.613  16.910  0.00  0.00    +0.000 C 
ATOM      6  C   UNL     1       4.624   4.095  17.408  0.00  0.00    +0.000 C 
ATOM      7  C   UNL     1       3.516   3.113  17.642  0.00  0.00    +0.000 C 
ATOM      8  O   UNL     1       3.636   1.908  17.444  0.00  0.00    +0.000 OA
ATOM      9  C   UNL     1       2.231   3.641  18.139  0.00  0.00    +0.000 C 
ATOM     10  C   UNL     1       1.997   4.953  18.249  0.00  0.00    +0.000 C 
ATOM     11  C   UNL     1       2.996   6.003  17.891  0.00  0.00    +0.000 C 
ATOM     12  C   UNL     1       4.493   5.521  17.908  0.00  0.00    +0.000 C 
ATOM     13  C   UNL     1       4.998   5.485  19.383  0.00  0.00    +0.000 C 
ENDROOT
BRANCH   4  14
ATOM     14  O   UNL     1       7.900   4.075  17.790  0.00  0.00    +0.000 OA
ATOM     15  H   UNL     1       7.405   3.624  18.493  0.00  0.00    +0.000 HD
ENDBRANCH   4  14
BRANCH  11  16
ATOM     16  O   UNL     1       2.774   7.080  18.797  0.00  0.00    +0.000 OA
ATOM     17  H   UNL     1       2.685   7.900  18.284  0.00  0.00    +0.000 HD
ENDBRANCH  11  16
TORSDOF 2
ENDMDL
