MODEL 1
REMARK VINA RESULT:      -7.8      0.000      0.000
REMARK  Name = 
REMARK  5 active torsions:
REMARK  status: ('A' for Active; 'I' for Inactive)
REMARK    1  A    between atoms: C_1  and  C_2
REMARK    2  A    between atoms: C_4  and  N_5
REMARK    3  A    between atoms: N_5  and  C_6
REMARK    4  A    between atoms: C_15  and  C_16
REMARK    5  A    between atoms: C_16  and  O_17
REMARK                            x       y       z     vdW  Elec       q    Type
REMARK                         _______ _______ _______ _____ _____    ______ ____
ROOT
ATOM      1  C   UNL     1       7.699   6.670  18.594  0.00  0.00    +0.000 C 
ATOM      2  C   UNL     1       7.161   5.813  17.476  0.00  0.00    +0.000 A 
ATOM      3  C   UNL     1       6.128   4.797  17.834  0.00  0.00    +0.000 A 
ATOM      4  C   UNL     1       5.638   4.041  16.835  0.00  0.00    +0.000 A 
ATOM      5  N   UNL     1       6.134   4.267  15.535  0.00  0.00    +0.000 N 
ATOM      6  N   UNL     1       5.812   3.627  14.374  0.00  0.00    +0.000 NA
ATOM      7  C   UNL     1       6.651   4.201  13.504  0.00  0.00    +0.000 A 
ATOM      8  N   UNL     1       7.458   5.182  14.017  0.00  0.00    +0.000 NA
ATOM      9  C   UNL     1       7.128   5.221  15.290  0.00  0.00    +0.000 A 
ATOM     10  N   UNL     1       7.633   6.010  16.281  0.00  0.00    +0.000 NA
ENDROOT
BRANCH   4  11
ATOM     11  N   UNL     1       4.671   3.046  17.016  0.00  0.00    +0.000 N 
ATOM     12  H   UNL     1       5.061   2.117  16.823  0.00  0.00    +0.000 HD
BRANCH  11  13
ATOM     13  C   UNL     1       3.858   2.990  18.178  0.00  0.00    +0.000 A 
ATOM     14  C   UNL     1       2.524   3.404  18.091  0.00  0.00    +0.000 A 
ATOM     15  C   UNL     1       1.696   3.379  19.220  0.00  0.00    +0.000 A 
ATOM     16  C   UNL     1       2.193   2.908  20.434  0.00  0.00    +0.000 A 
ATOM     17 CL   UNL     1       1.191   2.917  21.832  0.00  0.00    +0.000 Cl
ATOM     18  C   UNL     1       3.496   2.431  20.521  0.00  0.00    +0.000 A 
ATOM     19  C   UNL     1       4.321   2.462  19.394  0.00  0.00    +0.000 A 
ENDBRANCH  11  13
ENDBRANCH   4  11
BRANCH   7  20
ATOM     20  C   UNL     1       6.746   3.823  12.062  0.00  0.00    +0.000 C 
BRANCH  20  21
ATOM     21  O   UNL     1       6.618   2.409  11.863  0.00  0.00    +0.000 OA
ATOM     22  H   UNL     1       7.332   2.173  11.238  0.00  0.00    +0.000 HD
ENDBRANCH  20  21
ENDBRANCH   7  20
TORSDOF 4
ENDMDL
MODEL 2
REMARK VINA RESULT:      -7.8      4.167      5.797
REMARK  Name = 
REMARK  5 active torsions:
REMARK  status: ('A' for Active; 'I' for Inactive)
REMARK    1  A    between atoms: C_1  and  C_2
REMARK    2  A    between atoms: C_4  and  N_5
REMARK    3  A    between atoms: N_5  and  C_6
REMARK    4  A    between atoms: C_15  and  C_16
REMARK    5  A    between atoms: C_16  and  O_17
REMARK                            x       y       z     vdW  Elec       q    Type
REMARK                         _______ _______ _______ _____ _____    ______ ____
ROOT
ATOM      1  C   UNL     1       0.622   2.187  18.682  0.00  0.00    +0.000 C 
ATOM      2  C   UNL     1       1.832   3.084  18.628  0.00  0.00    +0.000 A 
ATOM      3  C   UNL     1       1.781   4.345  19.426  0.00  0.00    +0.000 A 
ATOM      4  C   UNL     1       2.866   5.140  19.387  0.00  0.00    +0.000 A 
ATOM      5  N   UNL     1       3.960   4.722  18.604  0.00  0.00    +0.000 N 
ATOM      6  N   UNL     1       5.151   5.353  18.394  0.00  0.00    +0.000 NA
ATOM      7  C   UNL     1       5.741   4.538  17.511  0.00  0.00    +0.000 A 
ATOM      8  N   UNL     1       5.028   3.419  17.171  0.00  0.00    +0.000 NA
ATOM      9  C   UNL     1       3.914   3.537  17.861  0.00  0.00    +0.000 A 
ATOM     10  N   UNL     1       2.833   2.707  17.891  0.00  0.00    +0.000 NA
ENDROOT
BRANCH   4  11
ATOM     11  N   UNL     1       2.964   6.353  20.077  0.00  0.00    +0.000 N 
ATOM     12  H   UNL     1       3.946   6.611  20.225  0.00  0.00    +0.000 HD
BRANCH  11  13
ATOM     13  C   UNL     1       2.224   7.501  19.691  0.00  0.00    +0.000 A 
ATOM     14  C   UNL     1       1.477   8.181  20.660  0.00  0.00    +0.000 A 
ATOM     15  C   UNL     1       0.720   9.307  20.314  0.00  0.00    +0.000 A 
ATOM     16  C   UNL     1       0.734   9.775  19.001  0.00  0.00    +0.000 A 
ATOM     17 CL   UNL     1      -0.229  11.132  18.564  0.00  0.00    +0.000 Cl
ATOM     18  C   UNL     1       1.522   9.150  18.041  0.00  0.00    +0.000 A 
ATOM     19  C   UNL     1       2.272   8.024  18.389  0.00  0.00    +0.000 A 
ENDBRANCH  11  13
ENDBRANCH   4  11
BRANCH   7  20
ATOM     20  C   UNL     1       7.079   4.797  16.900  0.00  0.00    +0.000 C 
BRANCH  20  21
ATOM     21  O   UNL     1       8.129   4.093  17.577  0.00  0.00    +0.000 OA
ATOM     22  H   UNL     1       7.924   3.145  17.452  0.00  0.00    +0.000 HD
ENDBRANCH  20  21
ENDBRANCH   7  20
TORSDOF 4
ENDMDL
MODEL 3
REMARK VINA RESULT:      -7.7      1.325      1.564
REMARK  Name = 
REMARK  5 active torsions:
REMARK  status: ('A' for Active; 'I' for Inactive)
REMARK    1  A    between atoms: C_1  and  C_2
REMARK    2  A    between atoms: C_4  and  N_5
REMARK    3  A    between atoms: N_5  and  C_6
REMARK    4  A    between atoms: C_15  and  C_16
REMARK    5  A    between atoms: C_16  and  O_17
REMARK                            x       y       z     vdW  Elec       q    Type
REMARK                         _______ _______ _______ _____ _____    ______ ____
ROOT
ATOM      1  C   UNL     1       8.313   8.052  18.457  0.00  0.00    +0.000 C 
ATOM      2  C   UNL     1       7.658   6.866  17.796  0.00  0.00    +0.000 A 
ATOM      3  C   UNL     1       7.118   5.800  18.691  0.00  0.00    +0.000 A 
ATOM      4  C   UNL     1       6.522   4.747  18.101  0.00  0.00    +0.000 A 
ATOM      5  N   UNL     1       6.453   4.734  16.694  0.00  0.00    +0.000 N 
ATOM      6  N   UNL     1       5.920   3.783  15.873  0.00  0.00    +0.000 NA
ATOM      7  C   UNL     1       6.220   4.267  14.662  0.00  0.00    +0.000 A 
ATOM      8  N   UNL     1       6.872   5.472  14.651  0.00  0.00    +0.000 NA
ATOM      9  C   UNL     1       7.013   5.761  15.926  0.00  0.00    +0.000 A 
ATOM     10  N   UNL     1       7.611   6.846  16.497  0.00  0.00    +0.000 NA
ENDROOT
BRANCH   4  11
ATOM     11  N   UNL     1       5.973   3.671  18.806  0.00  0.00    +0.000 N 
ATOM     12  H   UNL     1       6.442   3.549  19.710  0.00  0.00    +0.000 HD
BRANCH  11  13
ATOM     13  C   UNL     1       4.572   3.515  18.971  0.00  0.00    +0.000 A 
ATOM     14  C   UNL     1       3.835   4.570  19.522  0.00  0.00    +0.000 A 
ATOM     15  C   UNL     1       2.454   4.448  19.716  0.00  0.00    +0.000 A 
ATOM     16  C   UNL     1       1.800   3.280  19.330  0.00  0.00    +0.000 A 
ATOM     17 CL   UNL     1       0.111   3.111  19.607  0.00  0.00    +0.000 Cl
ATOM     18  C   UNL     1       2.506   2.249  18.721  0.00  0.00    +0.000 A 
ATOM     19  C   UNL     1       3.885   2.372  18.533  0.00  0.00    +0.000 A 
ENDBRANCH  11  13
ENDBRANCH   4  11
BRANCH   7  20
ATOM     20  C   UNL     1       5.897   3.571  13.381  0.00  0.00    +0.000 C 
BRANCH  20  21
ATOM     21  O   UNL     1       6.786   3.946  12.321  0.00  0.00    +0.000 OA
ATOM     22  H   UNL     1       6.901   4.913  12.413  0.00  0.00    +0.000 HD
ENDBRANCH  20  21
ENDBRANCH   7  20
TORSDOF 4
ENDMDL
MODEL 4
REMARK VINA RESULT:      -7.7      1.303      1.595
REMARK  Name = 
REMARK  5 active torsions:
REMARK  status: ('A' for Active; 'I' for Inactive)
REMARK    1  A    between atoms: C_1  and  C_2
REMARK    2  A    between atoms: C_4  and  N_5
REMARK    3  A    between atoms: N_5  and  C_6
REMARK    4  A    between atoms: C_15  and  C_16
REMARK    5  A    between atoms: C_16  and  O_17
REMARK                            x       y       z     vdW  Elec       q    Type
REMARK                         _______ _______ _______ _____ _____    ______ ____
ROOT
ATOM      1  C   UNL     1       8.282   8.125  18.281  0.00  0.00    +0.000 C 
ATOM      2  C   UNL     1       7.613   6.924  17.662  0.00  0.00    +0.000 A 
ATOM      3  C   UNL     1       7.124   5.863  18.590  0.00  0.00    +0.000 A 
ATOM      4  C   UNL     1       6.516   4.796  18.039  0.00  0.00    +0.000 A 
ATOM      5  N   UNL     1       6.387   4.765  16.636  0.00  0.00    +0.000 N 
ATOM      6  N   UNL     1       5.832   3.798  15.850  0.00  0.00    +0.000 NA
ATOM      7  C   UNL     1       6.075   4.272  14.622  0.00  0.00    +0.000 A 
ATOM      8  N   UNL     1       6.712   5.483  14.569  0.00  0.00    +0.000 NA
ATOM      9  C   UNL     1       6.903   5.789  15.834  0.00  0.00    +0.000 A 
ATOM     10  N   UNL     1       7.512   6.887  16.366  0.00  0.00    +0.000 NA
ENDROOT
BRANCH   4  11
ATOM     11  N   UNL     1       6.010   3.722  18.779  0.00  0.00    +0.000 N 
ATOM     12  H   UNL     1       6.587   3.545  19.608  0.00  0.00    +0.000 HD
BRANCH  11  13
ATOM     13  C   UNL     1       4.637   3.628  19.126  0.00  0.00    +0.000 A 
ATOM     14  C   UNL     1       4.009   2.378  19.071  0.00  0.00    +0.000 A 
ATOM     15  C   UNL     1       2.652   2.248  19.390  0.00  0.00    +0.000 A 
ATOM     16  C   UNL     1       1.925   3.366  19.797  0.00  0.00    +0.000 A 
ATOM     17 CL   UNL     1       0.248   3.217  20.147  0.00  0.00    +0.000 Cl
ATOM     18  C   UNL     1       2.550   4.602  19.920  0.00  0.00    +0.000 A 
ATOM     19  C   UNL     1       3.902   4.729  19.596  0.00  0.00    +0.000 A 
ENDBRANCH  11  13
ENDBRANCH   4  11
BRANCH   7  20
ATOM     20  C   UNL     1       5.706   3.557  13.363  0.00  0.00    +0.000 C 
BRANCH  20  21
ATOM     21  O   UNL     1       6.852   3.237  12.565  0.00  0.00    +0.000 OA
ATOM     22  H   UNL     1       6.775   2.280  12.376  0.00  0.00    +0.000 HD
ENDBRANCH  20  21
ENDBRANCH   7  20
TORSDOF 4
ENDMDL
MODEL 5
REMARK VINA RESULT:      -7.7      0.358      1.118
REMARK  Name = 
REMARK  5 active torsions:
REMARK  status: ('A' for Active; 'I' for Inactive)
REMARK    1  A    between atoms: C_1  and  C_2
REMARK    2  A    between atoms: C_4  and  N_5
REMARK    3  A    between atoms: N_5  and  C_6
REMARK    4  A    between atoms: C_15  and  C_16
REMARK    5  A    between atoms: C_16  and  O_17
REMARK                            x       y       z     vdW  Elec       q    Type
REMARK                         _______ _______ _______ _____ _____    ______ ____
ROOT
ATOM      1  C   UNL     1       7.638   6.731  18.485  0.00  0.00    +0.000 C 
ATOM      2  C   UNL     1       7.062   5.908  17.360  0.00  0.00    +0.000 A 
ATOM      3  C   UNL     1       5.867   5.071  17.671  0.00  0.00    +0.000 A 
ATOM      4  C   UNL     1       5.345   4.346  16.664  0.00  0.00    +0.000 A 
ATOM      5  N   UNL     1       5.964   4.435  15.401  0.00  0.00    +0.000 N 
ATOM      6  N   UNL     1       5.637   3.794  14.243  0.00  0.00    +0.000 NA
ATOM      7  C   UNL     1       6.613   4.198  13.421  0.00  0.00    +0.000 A 
ATOM      8  N   UNL     1       7.517   5.075  13.961  0.00  0.00    +0.000 NA
ATOM      9  C   UNL     1       7.103   5.223  15.201  0.00  0.00    +0.000 A 
ATOM     10  N   UNL     1       7.645   5.977  16.200  0.00  0.00    +0.000 NA
ENDROOT
BRANCH   4  11
ATOM     11  N   UNL     1       4.231   3.512  16.804  0.00  0.00    +0.000 N 
ATOM     12  H   UNL     1       4.423   2.578  16.424  0.00  0.00    +0.000 HD
BRANCH  11  13
ATOM     13  C   UNL     1       3.531   3.391  18.032  0.00  0.00    +0.000 A 
ATOM     14  C   UNL     1       4.115   2.663  19.075  0.00  0.00    +0.000 A 
ATOM     15  C   UNL     1       3.448   2.506  20.295  0.00  0.00    +0.000 A 
ATOM     16  C   UNL     1       2.206   3.108  20.489  0.00  0.00    +0.000 A 
ATOM     17 CL   UNL     1       1.364   2.882  21.972  0.00  0.00    +0.000 Cl
ATOM     18  C   UNL     1       1.641   3.890  19.487  0.00  0.00    +0.000 A 
ATOM     19  C   UNL     1       2.308   4.039  18.268  0.00  0.00    +0.000 A 
ENDBRANCH  11  13
ENDBRANCH   4  11
BRANCH   7  20
ATOM     20  C   UNL     1       6.757   3.740  12.007  0.00  0.00    +0.000 C 
BRANCH  20  21
ATOM     21  O   UNL     1       6.453   2.348  11.853  0.00  0.00    +0.000 OA
ATOM     22  H   UNL     1       6.765   2.115  10.956  0.00  0.00    +0.000 HD
ENDBRANCH  20  21
ENDBRANCH   7  20
TORSDOF 4
ENDMDL
MODEL 6
REMARK VINA RESULT:      -7.6      4.168      5.659
REMARK  Name = 
REMARK  5 active torsions:
REMARK  status: ('A' for Active; 'I' for Inactive)
REMARK    1  A    between atoms: C_1  and  C_2
REMARK    2  A    between atoms: C_4  and  N_5
REMARK    3  A    between atoms: N_5  and  C_6
REMARK    4  A    between atoms: C_15  and  C_16
REMARK    5  A    between atoms: C_16  and  O_17
REMARK                            x       y       z     vdW  Elec       q    Type
REMARK                         _______ _______ _______ _____ _____    ______ ____
ROOT
ATOM      1  C   UNL     1       0.683   2.275  18.683  0.00  0.00    +0.000 C 
ATOM      2  C   UNL     1       1.867   3.188  18.494  0.00  0.00    +0.000 A 
ATOM      3  C   UNL     1       1.897   4.441  19.305  0.00  0.00    +0.000 A 
ATOM      4  C   UNL     1       2.961   5.250  19.145  0.00  0.00    +0.000 A 
ATOM      5  N   UNL     1       3.958   4.854  18.232  0.00  0.00    +0.000 N 
ATOM      6  N   UNL     1       5.107   5.503  17.887  0.00  0.00    +0.000 NA
ATOM      7  C   UNL     1       5.596   4.704  16.931  0.00  0.00    +0.000 A 
ATOM      8  N   UNL     1       4.861   3.578  16.667  0.00  0.00    +0.000 NA
ATOM      9  C   UNL     1       3.837   3.676  17.487  0.00  0.00    +0.000 A 
ATOM     10  N   UNL     1       2.777   2.831  17.637  0.00  0.00    +0.000 NA
ENDROOT
BRANCH   4  11
ATOM     11  N   UNL     1       3.127   6.458  19.832  0.00  0.00    +0.000 N 
ATOM     12  H   UNL     1       4.113   6.742  19.839  0.00  0.00    +0.000 HD
BRANCH  11  13
ATOM     13  C   UNL     1       2.309   7.589  19.573  0.00  0.00    +0.000 A 
ATOM     14  C   UNL     1       2.239   8.089  18.268  0.00  0.00    +0.000 A 
ATOM     15  C   UNL     1       1.457   9.213  17.977  0.00  0.00    +0.000 A 
ATOM     16  C   UNL     1       0.714   9.821  18.987  0.00  0.00    +0.000 A 
ATOM     17 CL   UNL     1      -0.214  11.228  18.642  0.00  0.00    +0.000 Cl
ATOM     18  C   UNL     1       0.720   9.297  20.275  0.00  0.00    +0.000 A 
ATOM     19  C   UNL     1       1.506   8.179  20.563  0.00  0.00    +0.000 A 
ENDBRANCH  11  13
ENDBRANCH   4  11
BRANCH   7  20
ATOM     20  C   UNL     1       6.848   4.985  16.167  0.00  0.00    +0.000 C 
BRANCH  20  21
ATOM     21  O   UNL     1       7.363   6.296  16.433  0.00  0.00    +0.000 OA
ATOM     22  H   UNL     1       6.926   6.579  17.261  0.00  0.00    +0.000 HD
ENDBRANCH  20  21
ENDBRANCH   7  20
TORSDOF 4
ENDMDL
MODEL 7
REMARK VINA RESULT:      -7.5      4.698      6.171
REMARK  Name = 
REMARK  5 active torsions:
REMARK  status: ('A' for Active; 'I' for Inactive)
REMARK    1  A    between atoms: C_1  and  C_2
REMARK    2  A    between atoms: C_4  and  N_5
REMARK    3  A    between atoms: N_5  and  C_6
REMARK    4  A    between atoms: C_15  and  C_16
REMARK    5  A    between atoms: C_16  and  O_17
REMARK                            x       y       z     vdW  Elec       q    Type
REMARK                         _______ _______ _______ _____ _____    ______ ____
ROOT
ATOM      1  C   UNL     1       1.370   2.595  18.572  0.00  0.00    +0.000 C 
ATOM      2  C   UNL     1       2.458   3.638  18.572  0.00  0.00    +0.000 A 
ATOM      3  C   UNL     1       2.093   5.004  18.093  0.00  0.00    +0.000 A 
ATOM      4  C   UNL     1       3.062   5.938  18.105  0.00  0.00    +0.000 A 
ATOM      5  N   UNL     1       4.337   5.557  18.569  0.00  0.00    +0.000 N 
ATOM      6  N   UNL     1       5.472   6.309  18.661  0.00  0.00    +0.000 NA
ATOM      7  C   UNL     1       6.366   5.404  19.077  0.00  0.00    +0.000 A 
ATOM      8  N   UNL     1       5.876   4.142  19.290  0.00  0.00    +0.000 NA
ATOM      9  C   UNL     1       4.604   4.244  18.972  0.00  0.00    +0.000 A 
ATOM     10  N   UNL     1       3.639   3.281  18.982  0.00  0.00    +0.000 NA
ENDROOT
BRANCH   4  11
ATOM     11  N   UNL     1       2.873   7.258  17.683  0.00  0.00    +0.000 N 
ATOM     12  H   UNL     1       2.530   7.287  16.716  0.00  0.00    +0.000 HD
BRANCH  11  13
ATOM     13  C   UNL     1       2.164   8.205  18.468  0.00  0.00    +0.000 A 
ATOM     14  C   UNL     1       1.677   9.364  17.853  0.00  0.00    +0.000 A 
ATOM     15  C   UNL     1       0.989  10.330  18.597  0.00  0.00    +0.000 A 
ATOM     16  C   UNL     1       0.755  10.122  19.955  0.00  0.00    +0.000 A 
ATOM     17 CL   UNL     1      -0.052  11.326  20.881  0.00  0.00    +0.000 Cl
ATOM     18  C   UNL     1       1.175   8.946  20.567  0.00  0.00    +0.000 A 
ATOM     19  C   UNL     1       1.866   7.987  19.822  0.00  0.00    +0.000 A 
ENDBRANCH  11  13
ENDBRANCH   4  11
BRANCH   7  20
ATOM     20  C   UNL     1       7.813   5.700  19.297  0.00  0.00    +0.000 C 
BRANCH  20  21
ATOM     21  O   UNL     1       8.260   5.289  20.595  0.00  0.00    +0.000 OA
ATOM     22  H   UNL     1       9.202   5.548  20.636  0.00  0.00    +0.000 HD
ENDBRANCH  20  21
ENDBRANCH   7  20
TORSDOF 4
ENDMDL
MODEL 8
REMARK VINA RESULT:      -7.4      3.149      4.383
REMARK  Name = 
REMARK  5 active torsions:
REMARK  status: ('A' for Active; 'I' for Inactive)
REMARK    1  A    between atoms: C_1  and  C_2
REMARK    2  A    between atoms: C_4  and  N_5
REMARK    3  A    between atoms: N_5  and  C_6
REMARK    4  A    between atoms: C_15  and  C_16
REMARK    5  A    between atoms: C_16  and  O_17
REMARK                            x       y       z     vdW  Elec       q    Type
REMARK                         _______ _______ _______ _____ _____    ______ ____
ROOT
ATOM      1  C   UNL     1       6.104   3.820  13.449  0.00  0.00    +0.000 C 
ATOM      2  C   UNL     1       6.103   4.095  14.932  0.00  0.00    +0.000 A 
ATOM      3  C   UNL     1       4.859   3.760  15.685  0.00  0.00    +0.000 A 
ATOM      4  C   UNL     1       4.862   3.993  17.011  0.00  0.00    +0.000 A 
ATOM      5  N   UNL     1       6.033   4.530  17.581  0.00  0.00    +0.000 N 
ATOM      6  N   UNL     1       6.274   4.865  18.881  0.00  0.00    +0.000 NA
ATOM      7  C   UNL     1       7.500   5.396  18.804  0.00  0.00    +0.000 A 
ATOM      8  N   UNL     1       8.071   5.392  17.558  0.00  0.00    +0.000 NA
ATOM      9  C   UNL     1       7.148   4.845  16.796  0.00  0.00    +0.000 A 
ATOM     10  N   UNL     1       7.177   4.608  15.454  0.00  0.00    +0.000 NA
ENDROOT
BRANCH   4  11
ATOM     11  N   UNL     1       3.771   3.734  17.847  0.00  0.00    +0.000 N 
ATOM     12  H   UNL     1       3.948   2.914  18.436  0.00  0.00    +0.000 HD
BRANCH  11  13
ATOM     13  C   UNL     1       3.160   4.754  18.623  0.00  0.00    +0.000 A 
ATOM     14  C   UNL     1       3.029   6.035  18.073  0.00  0.00    +0.000 A 
ATOM     15  C   UNL     1       2.447   7.071  18.814  0.00  0.00    +0.000 A 
ATOM     16  C   UNL     1       1.964   6.820  20.097  0.00  0.00    +0.000 A 
ATOM     17 CL   UNL     1       1.288   8.101  21.025  0.00  0.00    +0.000 Cl
ATOM     18  C   UNL     1       2.026   5.538  20.631  0.00  0.00    +0.000 A 
ATOM     19  C   UNL     1       2.612   4.508  19.892  0.00  0.00    +0.000 A 
ENDBRANCH  11  13
ENDBRANCH   4  11
BRANCH   7  20
ATOM     20  C   UNL     1       8.233   5.979  19.968  0.00  0.00    +0.000 C 
BRANCH  20  21
ATOM     21  O   UNL     1       8.285   5.077  21.082  0.00  0.00    +0.000 OA
ATOM     22  H   UNL     1       8.333   5.651  21.873  0.00  0.00    +0.000 HD
ENDBRANCH  20  21
ENDBRANCH   7  20
TORSDOF 4
ENDMDL
MODEL 9
REMARK VINA RESULT:      -7.3      1.185      1.368
REMARK  Name = 
REMARK  5 active torsions:
REMARK  status: ('A' for Active; 'I' for Inactive)
REMARK    1  A    between atoms: C_1  and  C_2
REMARK    2  A    between atoms: C_4  and  N_5
REMARK    3  A    between atoms: N_5  and  C_6
REMARK    4  A    between atoms: C_15  and  C_16
REMARK    5  A    between atoms: C_16  and  O_17
REMARK                            x       y       z     vdW  Elec       q    Type
REMARK                         _______ _______ _______ _____ _____    ______ ____
ROOT
ATOM      1  C   UNL     1       8.068   5.897  19.097  0.00  0.00    +0.000 C 
ATOM      2  C   UNL     1       7.138   5.476  17.987  0.00  0.00    +0.000 A 
ATOM      3  C   UNL     1       5.680   5.429  18.302  0.00  0.00    +0.000 A 
ATOM      4  C   UNL     1       4.848   5.065  17.308  0.00  0.00    +0.000 A 
ATOM      5  N   UNL     1       5.416   4.762  16.055  0.00  0.00    +0.000 N 
ATOM      6  N   UNL     1       4.792   4.358  14.911  0.00  0.00    +0.000 NA
ATOM      7  C   UNL     1       5.831   4.140  14.095  0.00  0.00    +0.000 A 
ATOM      8  N   UNL     1       7.066   4.409  14.624  0.00  0.00    +0.000 NA
ATOM      9  C   UNL     1       6.799   4.801  15.852  0.00  0.00    +0.000 A 
ATOM     10  N   UNL     1       7.664   5.178  16.837  0.00  0.00    +0.000 NA
ENDROOT
BRANCH   4  11
ATOM     11  N   UNL     1       3.460   4.971  17.453  0.00  0.00    +0.000 N 
ATOM     12  H   UNL     1       3.024   4.631  16.589  0.00  0.00    +0.000 HD
BRANCH  11  13
ATOM     13  C   UNL     1       2.862   4.332  18.571  0.00  0.00    +0.000 A 
ATOM     14  C   UNL     1       2.415   5.118  19.639  0.00  0.00    +0.000 A 
ATOM     15  C   UNL     1       1.836   4.524  20.767  0.00  0.00    +0.000 A 
ATOM     16  C   UNL     1       1.671   3.140  20.813  0.00  0.00    +0.000 A 
ATOM     17 CL   UNL     1       0.999   2.404  22.215  0.00  0.00    +0.000 Cl
ATOM     18  C   UNL     1       2.049   2.352  19.732  0.00  0.00    +0.000 A 
ATOM     19  C   UNL     1       2.632   2.948  18.612  0.00  0.00    +0.000 A 
ENDBRANCH  11  13
ENDBRANCH   4  11
BRANCH   7  20
ATOM     20  C   UNL     1       5.703   3.628  12.698  0.00  0.00    +0.000 C 
BRANCH  20  21
ATOM     21  O   UNL     1       6.851   2.871  12.291  0.00  0.00    +0.000 OA
ATOM     22  H   UNL     1       7.600   3.253  12.790  0.00  0.00    +0.000 HD
ENDBRANCH  20  21
ENDBRANCH   7  20
TORSDOF 4
ENDMDL
