MODEL 1
REMARK VINA RESULT:      -6.7      0.000      0.000
REMARK  Name = 
REMARK  5 active torsions:
REMARK  status: ('A' for Active; 'I' for Inactive)
REMARK    1  A    between atoms: C_1  and  C_2
REMARK    2  A    between atoms: C_2  and  C_3
REMARK    3  A    between atoms: C_2  and  N_15
REMARK    4  A    between atoms: C_3  and  N_4
REMARK    5  A    between atoms: C_5  and  C_7
REMARK                            x       y       z     vdW  Elec       q    Type
REMARK                         _______ _______ _______ _____ _____    ______ ____
ROOT
ATOM      1  N   UNL     1       5.526   3.838  17.029  0.00  0.00    +0.000 N 
ATOM      2  C   UNL     1       5.335   4.822  16.082  0.00  0.00    +0.000 C 
ATOM      3  O   UNL     1       4.768   5.881  16.326  0.00  0.00    +0.000 OA
ATOM      4  H   UNL     1       6.030   2.992  16.788  0.00  0.00    +0.000 HD
ENDROOT
BRANCH   2   5
ATOM      5  C   UNL     1       5.856   4.551  14.715  0.00  0.00    +0.000 A 
ATOM      6  C   UNL     1       5.026   3.875  13.809  0.00  0.00    +0.000 A 
ATOM      7  C   UNL     1       5.476   3.615  12.515  0.00  0.00    +0.000 A 
ATOM      8 CL   UNL     1       4.455   2.791  11.402  0.00  0.00    +0.000 Cl
ATOM      9  C   UNL     1       6.750   4.017  12.111  0.00  0.00    +0.000 A 
ATOM     10  C   UNL     1       7.581   4.683  13.009  0.00  0.00    +0.000 A 
ATOM     11  C   UNL     1       7.132   4.945  14.301  0.00  0.00    +0.000 A 
ATOM     12  F   UNL     1       7.966   5.589  15.133  0.00  0.00    +0.000 F 
ENDBRANCH   2   5
BRANCH   1  13
ATOM     13  C   UNL     1       5.064   3.987  18.394  0.00  0.00    +0.000 C 
BRANCH  13  15
ATOM     14  C   UNL     1       3.660   2.056  17.670  0.00  0.00    +0.000 C 
ATOM     15  C   UNL     1       3.741   3.215  18.691  0.00  0.00    +0.000 C 
BRANCH  15  16
ATOM     16  N   UNL     1       2.567   4.128  18.613  0.00  0.00    +0.000 NA
ATOM     17  C   UNL     1       2.686   5.275  19.541  0.00  0.00    +0.000 C 
ATOM     18  C   UNL     1       2.102   4.780  20.847  0.00  0.00    +0.000 C 
ATOM     19  C   UNL     1       0.884   4.024  20.371  0.00  0.00    +0.000 C 
ATOM     20  C   UNL     1       1.279   3.501  18.989  0.00  0.00    +0.000 C 
ENDBRANCH  15  16
ENDBRANCH  13  15
ENDBRANCH   1  13
TORSDOF 4
ENDMDL
MODEL 2
REMARK VINA RESULT:      -6.5      0.797      1.520
REMARK  Name = 
REMARK  5 active torsions:
REMARK  status: ('A' for Active; 'I' for Inactive)
REMARK    1  A    between atoms: C_1  and  C_2
REMARK    2  A    between atoms: C_2  and  C_3
REMARK    3  A    between atoms: C_2  and  N_15
REMARK    4  A    between atoms: C_3  and  N_4
REMARK    5  A    between atoms: C_5  and  C_7
REMARK                            x       y       z     vdW  Elec       q    Type
REMARK                         _______ _______ _______ _____ _____    ______ ____
ROOT
ATOM      1  N   UNL     1       5.500   3.921  16.715  0.00  0.00    +0.000 N 
ATOM      2  C   UNL     1       5.527   4.929  15.774  0.00  0.00    +0.000 C 
ATOM      3  O   UNL     1       5.201   6.084  16.026  0.00  0.00    +0.000 OA
ATOM      4  H   UNL     1       5.811   2.988  16.468  0.00  0.00    +0.000 HD
ENDROOT
BRANCH   2   5
ATOM      5  C   UNL     1       5.977   4.561  14.406  0.00  0.00    +0.000 A 
ATOM      6  C   UNL     1       5.085   3.867  13.575  0.00  0.00    +0.000 A 
ATOM      7  C   UNL     1       5.469   3.517  12.281  0.00  0.00    +0.000 A 
ATOM      8 CL   UNL     1       4.372   2.671  11.262  0.00  0.00    +0.000 Cl
ATOM      9  C   UNL     1       6.738   3.847  11.802  0.00  0.00    +0.000 A 
ATOM     10  C   UNL     1       7.630   4.530  12.625  0.00  0.00    +0.000 A 
ATOM     11  C   UNL     1       7.248   4.882  13.917  0.00  0.00    +0.000 A 
ATOM     12  F   UNL     1       8.140   5.539  14.674  0.00  0.00    +0.000 F 
ENDBRANCH   2   5
BRANCH   1  13
ATOM     13  C   UNL     1       5.081   4.157  18.081  0.00  0.00    +0.000 C 
BRANCH  13  15
ATOM     14  C   UNL     1       3.074   5.531  18.637  0.00  0.00    +0.000 C 
ATOM     15  C   UNL     1       3.533   4.099  18.276  0.00  0.00    +0.000 C 
BRANCH  15  16
ATOM     16  N   UNL     1       3.169   3.103  19.322  0.00  0.00    +0.000 NA
ATOM     17  C   UNL     1       2.344   1.998  18.780  0.00  0.00    +0.000 C 
ATOM     18  C   UNL     1       0.918   2.493  18.880  0.00  0.00    +0.000 C 
ATOM     19  C   UNL     1       0.915   3.145  20.243  0.00  0.00    +0.000 C 
ATOM     20  C   UNL     1       2.347   3.648  20.425  0.00  0.00    +0.000 C 
ENDBRANCH  15  16
ENDBRANCH  13  15
ENDBRANCH   1  13
TORSDOF 4
ENDMDL
MODEL 3
REMARK VINA RESULT:      -6.5      3.713      4.497
REMARK  Name = 
REMARK  5 active torsions:
REMARK  status: ('A' for Active; 'I' for Inactive)
REMARK    1  A    between atoms: C_1  and  C_2
REMARK    2  A    between atoms: C_2  and  C_3
REMARK    3  A    between atoms: C_2  and  N_15
REMARK    4  A    between atoms: C_3  and  N_4
REMARK    5  A    between atoms: C_5  and  C_7
REMARK                            x       y       z     vdW  Elec       q    Type
REMARK                         _______ _______ _______ _____ _____    ______ ____
ROOT
ATOM      1  N   UNL     1       3.110   5.254  18.306  0.00  0.00    +0.000 N 
ATOM      2  C   UNL     1       4.181   4.905  17.510  0.00  0.00    +0.000 C 
ATOM      3  O   UNL     1       4.116   4.033  16.651  0.00  0.00    +0.000 OA
ATOM      4  H   UNL     1       3.203   6.004  18.982  0.00  0.00    +0.000 HD
ENDROOT
BRANCH   2   5
ATOM      5  C   UNL     1       5.454   5.640  17.734  0.00  0.00    +0.000 A 
ATOM      6  C   UNL     1       6.281   5.233  18.791  0.00  0.00    +0.000 A 
ATOM      7  C   UNL     1       7.489   5.892  19.022  0.00  0.00    +0.000 A 
ATOM      8 CL   UNL     1       8.505   5.388  20.315  0.00  0.00    +0.000 Cl
ATOM      9  C   UNL     1       7.883   6.959  18.213  0.00  0.00    +0.000 A 
ATOM     10  C   UNL     1       7.062   7.371  17.166  0.00  0.00    +0.000 A 
ATOM     11  C   UNL     1       5.857   6.714  16.933  0.00  0.00    +0.000 A 
ATOM     12  F   UNL     1       5.098   7.145  15.913  0.00  0.00    +0.000 F 
ENDBRANCH   2   5
BRANCH   1  13
ATOM     13  C   UNL     1       1.819   4.609  18.182  0.00  0.00    +0.000 C 
BRANCH  13  15
ATOM     14  C   UNL     1       1.853   5.108  20.626  0.00  0.00    +0.000 C 
ATOM     15  C   UNL     1       1.183   4.218  19.553  0.00  0.00    +0.000 C 
BRANCH  15  16
ATOM     16  N   UNL     1       1.361   2.765  19.824  0.00  0.00    +0.000 NA
ATOM     17  C   UNL     1       2.327   2.513  20.918  0.00  0.00    +0.000 C 
ATOM     18  C   UNL     1       3.679   2.461  20.239  0.00  0.00    +0.000 C 
ATOM     19  C   UNL     1       3.368   1.658  18.999  0.00  0.00    +0.000 C 
ATOM     20  C   UNL     1       1.909   1.993  18.685  0.00  0.00    +0.000 C 
ENDBRANCH  15  16
ENDBRANCH  13  15
ENDBRANCH   1  13
TORSDOF 4
ENDMDL
MODEL 4
REMARK VINA RESULT:      -6.5      3.288      6.379
REMARK  Name = 
REMARK  5 active torsions:
REMARK  status: ('A' for Active; 'I' for Inactive)
REMARK    1  A    between atoms: C_1  and  C_2
REMARK    2  A    between atoms: C_2  and  C_3
REMARK    3  A    between atoms: C_2  and  N_15
REMARK    4  A    between atoms: C_3  and  N_4
REMARK    5  A    between atoms: C_5  and  C_7
REMARK                            x       y       z     vdW  Elec       q    Type
REMARK                         _______ _______ _______ _____ _____    ______ ____
ROOT
ATOM      1  N   UNL     1       4.212   5.734  16.920  0.00  0.00    +0.000 N 
ATOM      2  C   UNL     1       3.377   6.456  17.747  0.00  0.00    +0.000 C 
ATOM      3  O   UNL     1       3.313   7.679  17.727  0.00  0.00    +0.000 OA
ATOM      4  H   UNL     1       4.206   4.721  16.951  0.00  0.00    +0.000 HD
ENDROOT
BRANCH   2   5
ATOM      5  C   UNL     1       2.531   5.679  18.692  0.00  0.00    +0.000 A 
ATOM      6  C   UNL     1       2.094   4.405  18.302  0.00  0.00    +0.000 A 
ATOM      7  C   UNL     1       1.309   3.644  19.169  0.00  0.00    +0.000 A 
ATOM      8 CL   UNL     1       0.778   2.079  18.691  0.00  0.00    +0.000 Cl
ATOM      9  C   UNL     1       0.951   4.138  20.424  0.00  0.00    +0.000 A 
ATOM     10  C   UNL     1       1.378   5.406  20.814  0.00  0.00    +0.000 A 
ATOM     11  C   UNL     1       2.161   6.167  19.950  0.00  0.00    +0.000 A 
ATOM     12  F   UNL     1       2.550   7.382  20.368  0.00  0.00    +0.000 F 
ENDBRANCH   2   5
BRANCH   1  13
ATOM     13  C   UNL     1       5.082   6.378  15.958  0.00  0.00    +0.000 C 
BRANCH  13  15
ATOM     14  C   UNL     1       5.690   3.997  15.528  0.00  0.00    +0.000 C 
ATOM     15  C   UNL     1       6.216   5.448  15.423  0.00  0.00    +0.000 C 
BRANCH  15  16
ATOM     16  N   UNL     1       7.476   5.655  16.189  0.00  0.00    +0.000 NA
ATOM     17  C   UNL     1       7.760   4.534  17.115  0.00  0.00    +0.000 C 
ATOM     18  C   UNL     1       7.030   4.890  18.392  0.00  0.00    +0.000 C 
ATOM     19  C   UNL     1       7.330   6.365  18.514  0.00  0.00    +0.000 C 
ATOM     20  C   UNL     1       7.469   6.845  17.069  0.00  0.00    +0.000 C 
ENDBRANCH  15  16
ENDBRANCH  13  15
ENDBRANCH   1  13
TORSDOF 4
ENDMDL
MODEL 5
REMARK VINA RESULT:      -6.4      1.271      1.732
REMARK  Name = 
REMARK  5 active torsions:
REMARK  status: ('A' for Active; 'I' for Inactive)
REMARK    1  A    between atoms: C_1  and  C_2
REMARK    2  A    between atoms: C_2  and  C_3
REMARK    3  A    between atoms: C_2  and  N_15
REMARK    4  A    between atoms: C_3  and  N_4
REMARK    5  A    between atoms: C_5  and  C_7
REMARK                            x       y       z     vdW  Elec       q    Type
REMARK                         _______ _______ _______ _____ _____    ______ ____
ROOT
ATOM      1  N   UNL     1       5.191   3.646  18.256  0.00  0.00    +0.000 N 
ATOM      2  C   UNL     1       4.888   4.638  17.347  0.00  0.00    +0.000 C 
ATOM      3  O   UNL     1       4.020   5.480  17.545  0.00  0.00    +0.000 OA
ATOM      4  H   UNL     1       5.941   2.991  18.062  0.00  0.00    +0.000 HD
ENDROOT
BRANCH   2   5
ATOM      5  C   UNL     1       5.671   4.654  16.083  0.00  0.00    +0.000 A 
ATOM      6  C   UNL     1       5.109   4.058  14.945  0.00  0.00    +0.000 A 
ATOM      7  C   UNL     1       5.810   4.065  13.738  0.00  0.00    +0.000 A 
ATOM      8 CL   UNL     1       5.117   3.338  12.341  0.00  0.00    +0.000 Cl
ATOM      9  C   UNL     1       7.070   4.659  13.651  0.00  0.00    +0.000 A 
ATOM     10  C   UNL     1       7.635   5.248  14.781  0.00  0.00    +0.000 A 
ATOM     11  C   UNL     1       6.936   5.242  15.986  0.00  0.00    +0.000 A 
ATOM     12  F   UNL     1       7.519   5.820  17.047  0.00  0.00    +0.000 F 
ENDBRANCH   2   5
BRANCH   1  13
ATOM     13  C   UNL     1       4.498   3.527  19.522  0.00  0.00    +0.000 C 
BRANCH  13  15
ATOM     14  C   UNL     1       3.519   1.613  18.257  0.00  0.00    +0.000 C 
ATOM     15  C   UNL     1       3.713   2.188  19.680  0.00  0.00    +0.000 C 
BRANCH  15  16
ATOM     16  N   UNL     1       2.420   2.412  20.385  0.00  0.00    +0.000 NA
ATOM     17  C   UNL     1       1.278   2.504  19.447  0.00  0.00    +0.000 C 
ATOM     18  C   UNL     1       1.215   3.963  19.053  0.00  0.00    +0.000 C 
ATOM     19  C   UNL     1       1.455   4.648  20.377  0.00  0.00    +0.000 C 
ATOM     20  C   UNL     1       2.352   3.679  21.148  0.00  0.00    +0.000 C 
ENDBRANCH  15  16
ENDBRANCH  13  15
ENDBRANCH   1  13
TORSDOF 4
ENDMDL
MODEL 6
REMARK VINA RESULT:      -6.4      4.171      7.160
REMARK  Name = 
REMARK  5 active torsions:
REMARK  status: ('A' for Active; 'I' for Inactive)
REMARK    1  A    between atoms: C_1  and  C_2
REMARK    2  A    between atoms: C_2  and  C_3
REMARK    3  A    between atoms: C_2  and  N_15
REMARK    4  A    between atoms: C_3  and  N_4
REMARK    5  A    between atoms: C_5  and  C_7
REMARK                            x       y       z     vdW  Elec       q    Type
REMARK                         _______ _______ _______ _____ _____    ______ ____
ROOT
ATOM      1  N   UNL     1       4.294   5.827  19.508  0.00  0.00    +0.000 N 
ATOM      2  C   UNL     1       2.920   5.826  19.392  0.00  0.00    +0.000 C 
ATOM      3  O   UNL     1       2.267   4.805  19.206  0.00  0.00    +0.000 OA
ATOM      4  H   UNL     1       4.788   6.693  19.694  0.00  0.00    +0.000 HD
ENDROOT
BRANCH   2   5
ATOM      5  C   UNL     1       2.235   7.141  19.502  0.00  0.00    +0.000 A 
ATOM      6  C   UNL     1       1.568   7.446  20.697  0.00  0.00    +0.000 A 
ATOM      7  C   UNL     1       0.925   8.676  20.840  0.00  0.00    +0.000 A 
ATOM      8 CL   UNL     1       0.112   9.051  22.309  0.00  0.00    +0.000 Cl
ATOM      9  C   UNL     1       0.935   9.609  19.802  0.00  0.00    +0.000 A 
ATOM     10  C   UNL     1       1.591   9.308  18.610  0.00  0.00    +0.000 A 
ATOM     11  C   UNL     1       2.234   8.081  18.466  0.00  0.00    +0.000 A 
ATOM     12  F   UNL     1       2.854   7.835  17.302  0.00  0.00    +0.000 F 
ENDBRANCH   2   5
BRANCH   1  13
ATOM     13  C   UNL     1       5.072   4.609  19.418  0.00  0.00    +0.000 C 
BRANCH  13  15
ATOM     14  C   UNL     1       7.374   5.438  18.928  0.00  0.00    +0.000 C 
ATOM     15  C   UNL     1       6.183   4.658  18.323  0.00  0.00    +0.000 C 
BRANCH  15  16
ATOM     16  N   UNL     1       5.667   5.284  17.074  0.00  0.00    +0.000 NA
ATOM     17  C   UNL     1       4.937   4.317  16.222  0.00  0.00    +0.000 C 
ATOM     18  C   UNL     1       6.002   3.679  15.357  0.00  0.00    +0.000 C 
ATOM     19  C   UNL     1       6.849   4.873  14.984  0.00  0.00    +0.000 C 
ATOM     20  C   UNL     1       6.718   5.819  16.179  0.00  0.00    +0.000 C 
ENDBRANCH  15  16
ENDBRANCH  13  15
ENDBRANCH   1  13
TORSDOF 4
ENDMDL
MODEL 7
REMARK VINA RESULT:      -6.4      3.699      6.638
REMARK  Name = 
REMARK  5 active torsions:
REMARK  status: ('A' for Active; 'I' for Inactive)
REMARK    1  A    between atoms: C_1  and  C_2
REMARK    2  A    between atoms: C_2  and  C_3
REMARK    3  A    between atoms: C_2  and  N_15
REMARK    4  A    between atoms: C_3  and  N_4
REMARK    5  A    between atoms: C_5  and  C_7
REMARK                            x       y       z     vdW  Elec       q    Type
REMARK                         _______ _______ _______ _____ _____    ______ ____
ROOT
ATOM      1  N   UNL     1       4.003   5.569  17.262  0.00  0.00    +0.000 N 
ATOM      2  C   UNL     1       3.104   5.877  18.262  0.00  0.00    +0.000 C 
ATOM      3  O   UNL     1       2.940   7.016  18.683  0.00  0.00    +0.000 OA
ATOM      4  H   UNL     1       4.080   4.616  16.924  0.00  0.00    +0.000 HD
ENDROOT
BRANCH   2   5
ATOM      5  C   UNL     1       2.316   4.750  18.828  0.00  0.00    +0.000 A 
ATOM      6  C   UNL     1       2.554   4.374  20.159  0.00  0.00    +0.000 A 
ATOM      7  C   UNL     1       1.824   3.330  20.727  0.00  0.00    +0.000 A 
ATOM      8 CL   UNL     1       2.112   2.874  22.360  0.00  0.00    +0.000 Cl
ATOM      9  C   UNL     1       0.859   2.649  19.983  0.00  0.00    +0.000 A 
ATOM     10  C   UNL     1       0.624   3.015  18.659  0.00  0.00    +0.000 A 
ATOM     11  C   UNL     1       1.351   4.058  18.091  0.00  0.00    +0.000 A 
ATOM     12  F   UNL     1       1.090   4.375  16.813  0.00  0.00    +0.000 F 
ENDBRANCH   2   5
BRANCH   1  13
ATOM     13  C   UNL     1       4.827   6.580  16.633  0.00  0.00    +0.000 C 
BRANCH  13  15
ATOM     14  C   UNL     1       5.370   4.576  15.250  0.00  0.00    +0.000 C 
ATOM     15  C   UNL     1       5.853   6.001  15.610  0.00  0.00    +0.000 C 
BRANCH  15  16
ATOM     16  N   UNL     1       7.229   6.010  16.178  0.00  0.00    +0.000 NA
ATOM     17  C   UNL     1       7.612   4.695  16.741  0.00  0.00    +0.000 C 
ATOM     18  C   UNL     1       7.118   4.726  18.171  0.00  0.00    +0.000 C 
ATOM     19  C   UNL     1       7.498   6.125  18.595  0.00  0.00    +0.000 C 
ATOM     20  C   UNL     1       7.418   6.946  17.308  0.00  0.00    +0.000 C 
ENDBRANCH  15  16
ENDBRANCH  13  15
ENDBRANCH   1  13
TORSDOF 4
ENDMDL
MODEL 8
REMARK VINA RESULT:      -6.4      3.677      6.556
REMARK  Name = 
REMARK  5 active torsions:
REMARK  status: ('A' for Active; 'I' for Inactive)
REMARK    1  A    between atoms: C_1  and  C_2
REMARK    2  A    between atoms: C_2  and  C_3
REMARK    3  A    between atoms: C_2  and  N_15
REMARK    4  A    between atoms: C_3  and  N_4
REMARK    5  A    between atoms: C_5  and  C_7
REMARK                            x       y       z     vdW  Elec       q    Type
REMARK                         _______ _______ _______ _____ _____    ______ ____
ROOT
ATOM      1  N   UNL     1       5.583   3.956  18.449  0.00  0.00    +0.000 N 
ATOM      2  C   UNL     1       4.325   3.662  17.968  0.00  0.00    +0.000 C 
ATOM      3  O   UNL     1       4.110   3.370  16.797  0.00  0.00    +0.000 OA
ATOM      4  H   UNL     1       5.716   4.160  19.433  0.00  0.00    +0.000 HD
ENDROOT
BRANCH   2   5
ATOM      5  C   UNL     1       3.204   3.710  18.944  0.00  0.00    +0.000 A 
ATOM      6  C   UNL     1       2.830   4.956  19.468  0.00  0.00    +0.000 A 
ATOM      7  C   UNL     1       1.775   5.041  20.376  0.00  0.00    +0.000 A 
ATOM      8 CL   UNL     1       1.315   6.571  21.013  0.00  0.00    +0.000 Cl
ATOM      9  C   UNL     1       1.085   3.895  20.773  0.00  0.00    +0.000 A 
ATOM     10  C   UNL     1       1.455   2.654  20.260  0.00  0.00    +0.000 A 
ATOM     11  C   UNL     1       2.508   2.567  19.353  0.00  0.00    +0.000 A 
ATOM     12  F   UNL     1       2.830   1.352  18.885  0.00  0.00    +0.000 F 
ENDBRANCH   2   5
BRANCH   1  13
ATOM     13  C   UNL     1       6.753   3.942  17.596  0.00  0.00    +0.000 C 
BRANCH  13  15
ATOM     14  C   UNL     1       7.377   5.755  19.192  0.00  0.00    +0.000 C 
ATOM     15  C   UNL     1       7.680   5.183  17.787  0.00  0.00    +0.000 C 
BRANCH  15  16
ATOM     16  N   UNL     1       7.457   6.181  16.704  0.00  0.00    +0.000 NA
ATOM     17  C   UNL     1       6.788   7.406  17.200  0.00  0.00    +0.000 C 
ATOM     18  C   UNL     1       5.308   7.106  17.106  0.00  0.00    +0.000 C 
ATOM     19  C   UNL     1       5.221   6.412  15.767  0.00  0.00    +0.000 C 
ATOM     20  C   UNL     1       6.573   5.714  15.614  0.00  0.00    +0.000 C 
ENDBRANCH  15  16
ENDBRANCH  13  15
ENDBRANCH   1  13
TORSDOF 4
ENDMDL
MODEL 9
REMARK VINA RESULT:      -6.3      2.080      2.758
REMARK  Name = 
REMARK  5 active torsions:
REMARK  status: ('A' for Active; 'I' for Inactive)
REMARK    1  A    between atoms: C_1  and  C_2
REMARK    2  A    between atoms: C_2  and  C_3
REMARK    3  A    between atoms: C_2  and  N_15
REMARK    4  A    between atoms: C_3  and  N_4
REMARK    5  A    between atoms: C_5  and  C_7
REMARK                            x       y       z     vdW  Elec       q    Type
REMARK                         _______ _______ _______ _____ _____    ______ ____
ROOT
ATOM      1  N   UNL     1       4.555   2.795  18.561  0.00  0.00    +0.000 N 
ATOM      2  C   UNL     1       5.276   3.960  18.721  0.00  0.00    +0.000 C 
ATOM      3  O   UNL     1       5.417   4.514  19.805  0.00  0.00    +0.000 OA
ATOM      4  H   UNL     1       4.495   2.357  17.649  0.00  0.00    +0.000 HD
ENDROOT
BRANCH   2   5
ATOM      5  C   UNL     1       5.896   4.541  17.500  0.00  0.00    +0.000 A 
ATOM      6  C   UNL     1       5.583   3.970  16.258  0.00  0.00    +0.000 A 
ATOM      7  C   UNL     1       6.136   4.496  15.091  0.00  0.00    +0.000 A 
ATOM      8 CL   UNL     1       5.746   3.798  13.568  0.00  0.00    +0.000 Cl
ATOM      9  C   UNL     1       7.005   5.588  15.145  0.00  0.00    +0.000 A 
ATOM     10  C   UNL     1       7.324   6.155  16.377  0.00  0.00    +0.000 A 
ATOM     11  C   UNL     1       6.772   5.631  17.543  0.00  0.00    +0.000 A 
ATOM     12  F   UNL     1       7.107   6.209  18.707  0.00  0.00    +0.000 F 
ENDBRANCH   2   5
BRANCH   1  13
ATOM     13  C   UNL     1       3.906   2.136  19.675  0.00  0.00    +0.000 C 
BRANCH  13  15
ATOM     14  C   UNL     1       2.095   2.243  17.962  0.00  0.00    +0.000 C 
ATOM     15  C   UNL     1       2.402   1.811  19.416  0.00  0.00    +0.000 C 
BRANCH  15  16
ATOM     16  N   UNL     1       1.532   2.497  20.411  0.00  0.00    +0.000 NA
ATOM     17  C   UNL     1       0.772   3.619  19.813  0.00  0.00    +0.000 C 
ATOM     18  C   UNL     1       1.693   4.815  19.924  0.00  0.00    +0.000 C 
ATOM     19  C   UNL     1       2.255   4.640  21.315  0.00  0.00    +0.000 C 
ATOM     20  C   UNL     1       2.265   3.127  21.532  0.00  0.00    +0.000 C 
ENDBRANCH  15  16
ENDBRANCH  13  15
ENDBRANCH   1  13
TORSDOF 4
ENDMDL
