MODEL 1
REMARK VINA RESULT:      -8.3      0.000      0.000
REMARK  Name = 
REMARK  5 active torsions:
REMARK  status: ('A' for Active; 'I' for Inactive)
REMARK    1  A    between atoms: C_1  and  N_2
REMARK    2  A    between atoms: C_6  and  C_7
REMARK    3  A    between atoms: C_7  and  C_8
REMARK    4  A    between atoms: C_8  and  C_9
REMARK    5  A    between atoms: C_24  and  O_25
REMARK                            x       y       z     vdW  Elec       q    Type
REMARK                         _______ _______ _______ _____ _____    ______ ____
ROOT
ATOM      1  C   UNL     1       7.676   7.467  18.128  0.00  0.00    +0.000 C 
ATOM      2  O   UNL     1       8.692   7.137  18.736  0.00  0.00    +0.000 OA
ATOM      3  N   UNL     1       6.716   6.542  17.726  0.00  0.00    +0.000 N 
ATOM      4  C   UNL     1       6.857   5.144  18.122  0.00  0.00    +0.000 C 
ATOM      5  C   UNL     1       5.614   4.698  18.899  0.00  0.00    +0.000 C 
ATOM      6  C   UNL     1       4.311   4.931  18.094  0.00  0.00    +0.000 C 
ATOM      7  C   UNL     1       4.263   6.413  17.640  0.00  0.00    +0.000 C 
ATOM      8  C   UNL     1       5.540   6.831  16.909  0.00  0.00    +0.000 C 
ATOM      9  C   UNL     1       3.080   4.602  18.919  0.00  0.00    +0.000 A 
ATOM     10  C   UNL     1       2.695   5.152  20.138  0.00  0.00    +0.000 A 
ATOM     11  C   UNL     1       1.498   4.734  20.727  0.00  0.00    +0.000 A 
ATOM     12  C   UNL     1       0.697   3.771  20.105  0.00  0.00    +0.000 A 
ATOM     13  C   UNL     1       1.077   3.227  18.879  0.00  0.00    +0.000 A 
ATOM     14  C   UNL     1       2.264   3.657  18.297  0.00  0.00    +0.000 A 
ATOM     15  C   UNL     1       2.780   3.245  16.960  0.00  0.00    +0.000 C 
ATOM     16  C   UNL     1       4.145   3.957  16.865  0.00  0.00    +0.000 C 
ENDROOT
BRANCH  16  17
ATOM     17  O   UNL     1       5.173   2.965  16.800  0.00  0.00    +0.000 OA
ATOM     18  H   UNL     1       4.743   2.095  16.733  0.00  0.00    +0.000 HD
ENDBRANCH  16  17
BRANCH   1  19
ATOM     19  C   UNL     1       7.395   8.924  17.801  0.00  0.00    +0.000 C 
BRANCH  19  20
ATOM     20  C   UNL     1       8.673   9.706  17.497  0.00  0.00    +0.000 C 
BRANCH  20  26
ATOM     21  C   UNL     1       8.595  12.803  17.442  0.00  0.00    +0.000 C 
ATOM     22  N   UNL     1       8.990  11.997  18.577  0.00  0.00    +0.000 N 
ATOM     23  C   UNL     1       9.387  12.518  19.783  0.00  0.00    +0.000 A 
ATOM     24  C   UNL     1       9.700  11.473  20.622  0.00  0.00    +0.000 A 
ATOM     25  C   UNL     1       9.479  10.281  19.901  0.00  0.00    +0.000 A 
ATOM     26  C   UNL     1       9.036  10.622  18.631  0.00  0.00    +0.000 A 
ENDBRANCH  20  26
ENDBRANCH  19  20
ENDBRANCH   1  19
TORSDOF 4
ENDMDL
MODEL 2
REMARK VINA RESULT:      -7.9      0.548      1.327
REMARK  Name = 
REMARK  5 active torsions:
REMARK  status: ('A' for Active; 'I' for Inactive)
REMARK    1  A    between atoms: C_1  and  N_2
REMARK    2  A    between atoms: C_6  and  C_7
REMARK    3  A    between atoms: C_7  and  C_8
REMARK    4  A    between atoms: C_8  and  C_9
REMARK    5  A    between atoms: C_24  and  O_25
REMARK                            x       y       z     vdW  Elec       q    Type
REMARK                         _______ _______ _______ _____ _____    ______ ____
ROOT
ATOM      1  C   UNL     1       7.860   7.659  18.200  0.00  0.00    +0.000 C 
ATOM      2  O   UNL     1       8.855   7.329  18.843  0.00  0.00    +0.000 OA
ATOM      3  N   UNL     1       6.902   6.738  17.786  0.00  0.00    +0.000 N 
ATOM      4  C   UNL     1       7.015   5.346  18.212  0.00  0.00    +0.000 C 
ATOM      5  C   UNL     1       5.745   4.929  18.960  0.00  0.00    +0.000 C 
ATOM      6  C   UNL     1       4.469   5.161  18.113  0.00  0.00    +0.000 C 
ATOM      7  C   UNL     1       4.451   6.634  17.631  0.00  0.00    +0.000 C 
ATOM      8  C   UNL     1       5.754   7.024  16.930  0.00  0.00    +0.000 C 
ATOM      9  C   UNL     1       3.211   4.861  18.908  0.00  0.00    +0.000 A 
ATOM     10  C   UNL     1       2.797   5.438  20.105  0.00  0.00    +0.000 A 
ATOM     11  C   UNL     1       1.578   5.045  20.666  0.00  0.00    +0.000 A 
ATOM     12  C   UNL     1       0.784   4.079  20.038  0.00  0.00    +0.000 A 
ATOM     13  C   UNL     1       1.194   3.508  18.834  0.00  0.00    +0.000 A 
ATOM     14  C   UNL     1       2.402   3.914  18.279  0.00  0.00    +0.000 A 
ATOM     15  C   UNL     1       2.952   3.471  16.966  0.00  0.00    +0.000 C 
ATOM     16  C   UNL     1       4.328   4.166  16.898  0.00  0.00    +0.000 C 
ENDROOT
BRANCH  16  17
ATOM     17  O   UNL     1       5.345   3.162  16.882  0.00  0.00    +0.000 OA
ATOM     18  H   UNL     1       5.583   2.994  15.954  0.00  0.00    +0.000 HD
ENDBRANCH  16  17
BRANCH   1  19
ATOM     19  C   UNL     1       7.607   9.113  17.837  0.00  0.00    +0.000 C 
BRANCH  19  20
ATOM     20  C   UNL     1       8.898   9.928  17.771  0.00  0.00    +0.000 C 
BRANCH  20  26
ATOM     21  C   UNL     1       9.940  11.577  20.177  0.00  0.00    +0.000 C 
ATOM     22  N   UNL     1       9.117  12.093  19.104  0.00  0.00    +0.000 N 
ATOM     23  C   UNL     1       8.691  13.395  19.026  0.00  0.00    +0.000 A 
ATOM     24  C   UNL     1       7.923  13.531  17.891  0.00  0.00    +0.000 A 
ATOM     25  C   UNL     1       7.890  12.269  17.260  0.00  0.00    +0.000 A 
ATOM     26  C   UNL     1       8.639  11.385  18.024  0.00  0.00    +0.000 A 
ENDBRANCH  20  26
ENDBRANCH  19  20
ENDBRANCH   1  19
TORSDOF 4
ENDMDL
MODEL 3
REMARK VINA RESULT:      -7.6      0.917      1.143
REMARK  Name = 
REMARK  5 active torsions:
REMARK  status: ('A' for Active; 'I' for Inactive)
REMARK    1  A    between atoms: C_1  and  N_2
REMARK    2  A    between atoms: C_6  and  C_7
REMARK    3  A    between atoms: C_7  and  C_8
REMARK    4  A    between atoms: C_8  and  C_9
REMARK    5  A    between atoms: C_24  and  O_25
REMARK                            x       y       z     vdW  Elec       q    Type
REMARK                         _______ _______ _______ _____ _____    ______ ____
ROOT
ATOM      1  C   UNL     1       7.971   7.823  18.140  0.00  0.00    +0.000 C 
ATOM      2  O   UNL     1       8.955   7.518  18.811  0.00  0.00    +0.000 OA
ATOM      3  N   UNL     1       7.023   6.886  17.739  0.00  0.00    +0.000 N 
ATOM      4  C   UNL     1       7.133   5.509  18.212  0.00  0.00    +0.000 C 
ATOM      5  C   UNL     1       5.850   5.112  18.950  0.00  0.00    +0.000 C 
ATOM      6  C   UNL     1       4.589   5.312  18.073  0.00  0.00    +0.000 C 
ATOM      7  C   UNL     1       4.576   6.769  17.543  0.00  0.00    +0.000 C 
ATOM      8  C   UNL     1       5.890   7.140  16.853  0.00  0.00    +0.000 C 
ATOM      9  C   UNL     1       3.318   5.033  18.854  0.00  0.00    +0.000 A 
ATOM     10  C   UNL     1       2.880   5.648  20.024  0.00  0.00    +0.000 A 
ATOM     11  C   UNL     1       1.653   5.268  20.575  0.00  0.00    +0.000 A 
ATOM     12  C   UNL     1       0.873   4.279  19.965  0.00  0.00    +0.000 A 
ATOM     13  C   UNL     1       1.306   3.671  18.788  0.00  0.00    +0.000 A 
ATOM     14  C   UNL     1       2.523   4.064  18.242  0.00  0.00    +0.000 A 
ATOM     15  C   UNL     1       3.098   3.581  16.954  0.00  0.00    +0.000 C 
ATOM     16  C   UNL     1       4.473   4.278  16.888  0.00  0.00    +0.000 C 
ENDROOT
BRANCH  16  17
ATOM     17  O   UNL     1       5.493   3.277  16.923  0.00  0.00    +0.000 OA
ATOM     18  H   UNL     1       6.280   3.668  17.340  0.00  0.00    +0.000 HD
ENDBRANCH  16  17
BRANCH   1  19
ATOM     19  C   UNL     1       7.720   9.265  17.726  0.00  0.00    +0.000 C 
BRANCH  19  20
ATOM     20  C   UNL     1       8.194  10.262  18.782  0.00  0.00    +0.000 C 
BRANCH  20  26
ATOM     21  C   UNL     1       7.708  12.952  17.323  0.00  0.00    +0.000 C 
ATOM     22  N   UNL     1       9.006  12.368  17.590  0.00  0.00    +0.000 N 
ATOM     23  C   UNL     1      10.194  12.945  17.219  0.00  0.00    +0.000 A 
ATOM     24  C   UNL     1      11.219  12.117  17.618  0.00  0.00    +0.000 A 
ATOM     25  C   UNL     1      10.629  11.005  18.256  0.00  0.00    +0.000 A 
ATOM     26  C   UNL     1       9.253  11.176  18.234  0.00  0.00    +0.000 A 
ENDBRANCH  20  26
ENDBRANCH  19  20
ENDBRANCH   1  19
TORSDOF 4
ENDMDL
MODEL 4
REMARK VINA RESULT:      -7.3      4.345      6.958
REMARK  Name = 
REMARK  5 active torsions:
REMARK  status: ('A' for Active; 'I' for Inactive)
REMARK    1  A    between atoms: C_1  and  N_2
REMARK    2  A    between atoms: C_6  and  C_7
REMARK    3  A    between atoms: C_7  and  C_8
REMARK    4  A    between atoms: C_8  and  C_9
REMARK    5  A    between atoms: C_24  and  O_25
REMARK                            x       y       z     vdW  Elec       q    Type
REMARK                         _______ _______ _______ _____ _____    ______ ____
ROOT
ATOM      1  C   UNL     1       6.878   4.872  15.201  0.00  0.00    +0.000 C 
ATOM      2  O   UNL     1       8.030   5.265  15.377  0.00  0.00    +0.000 OA
ATOM      3  N   UNL     1       6.096   4.369  16.237  0.00  0.00    +0.000 N 
ATOM      4  C   UNL     1       6.612   4.398  17.603  0.00  0.00    +0.000 C 
ATOM      5  C   UNL     1       5.648   5.179  18.503  0.00  0.00    +0.000 C 
ATOM      6  C   UNL     1       4.210   4.605  18.450  0.00  0.00    +0.000 C 
ATOM      7  C   UNL     1       3.756   4.529  16.970  0.00  0.00    +0.000 C 
ATOM      8  C   UNL     1       4.766   3.782  16.098  0.00  0.00    +0.000 C 
ATOM      9  C   UNL     1       3.240   5.459  19.247  0.00  0.00    +0.000 A 
ATOM     10  C   UNL     1       2.951   6.810  19.077  0.00  0.00    +0.000 A 
ATOM     11  C   UNL     1       1.994   7.411  19.900  0.00  0.00    +0.000 A 
ATOM     12  C   UNL     1       1.336   6.669  20.887  0.00  0.00    +0.000 A 
ATOM     13  C   UNL     1       1.618   5.313  21.050  0.00  0.00    +0.000 A 
ATOM     14  C   UNL     1       2.564   4.723  20.220  0.00  0.00    +0.000 A 
ATOM     15  C   UNL     1       2.928   3.277  20.202  0.00  0.00    +0.000 C 
ATOM     16  C   UNL     1       4.063   3.204  19.160  0.00  0.00    +0.000 C 
ENDROOT
BRANCH  16  17
ATOM     17  O   UNL     1       5.261   2.788  19.820  0.00  0.00    +0.000 OA
ATOM     18  H   UNL     1       5.011   2.405  20.678  0.00  0.00    +0.000 HD
ENDBRANCH  16  17
BRANCH   1  19
ATOM     19  C   UNL     1       6.228   4.938  13.829  0.00  0.00    +0.000 C 
BRANCH  19  20
ATOM     20  C   UNL     1       6.711   3.823  12.903  0.00  0.00    +0.000 C 
BRANCH  20  26
ATOM     21  C   UNL     1       6.764   1.199  11.256  0.00  0.00    +0.000 C 
ATOM     22  N   UNL     1       5.639   2.106  11.348  0.00  0.00    +0.000 N 
ATOM     23  C   UNL     1       4.444   1.910  10.703  0.00  0.00    +0.000 A 
ATOM     24  C   UNL     1       3.614   2.966  11.002  0.00  0.00    +0.000 A 
ATOM     25  C   UNL     1       4.330   3.826  11.861  0.00  0.00    +0.000 A 
ATOM     26  C   UNL     1       5.587   3.278  12.070  0.00  0.00    +0.000 A 
ENDBRANCH  20  26
ENDBRANCH  19  20
ENDBRANCH   1  19
TORSDOF 4
ENDMDL
MODEL 5
REMARK VINA RESULT:      -7.3      5.652      8.789
REMARK  Name = 
REMARK  5 active torsions:
REMARK  status: ('A' for Active; 'I' for Inactive)
REMARK    1  A    between atoms: C_1  and  N_2
REMARK    2  A    between atoms: C_6  and  C_7
REMARK    3  A    between atoms: C_7  and  C_8
REMARK    4  A    between atoms: C_8  and  C_9
REMARK    5  A    between atoms: C_24  and  O_25
REMARK                            x       y       z     vdW  Elec       q    Type
REMARK                         _______ _______ _______ _____ _____    ______ ____
ROOT
ATOM      1  C   UNL     1       2.605   7.023  19.025  0.00  0.00    +0.000 C 
ATOM      2  O   UNL     1       3.238   6.690  18.024  0.00  0.00    +0.000 OA
ATOM      3  N   UNL     1       2.014   8.277  19.149  0.00  0.00    +0.000 N 
ATOM      4  C   UNL     1       2.051   9.202  18.019  0.00  0.00    +0.000 C 
ATOM      5  C   UNL     1       0.623   9.598  17.629  0.00  0.00    +0.000 C 
ATOM      6  C   UNL     1      -0.162  10.193  18.825  0.00  0.00    +0.000 C 
ATOM      7  C   UNL     1      -0.095   9.199  20.011  0.00  0.00    +0.000 C 
ATOM      8  C   UNL     1       1.343   8.793  20.340  0.00  0.00    +0.000 C 
ATOM      9  C   UNL     1      -1.610  10.468  18.458  0.00  0.00    +0.000 A 
ATOM     10  C   UNL     1      -2.559   9.565  17.991  0.00  0.00    +0.000 A 
ATOM     11  C   UNL     1      -3.860  10.012  17.740  0.00  0.00    +0.000 A 
ATOM     12  C   UNL     1      -4.205  11.351  17.951  0.00  0.00    +0.000 A 
ATOM     13  C   UNL     1      -3.257  12.254  18.430  0.00  0.00    +0.000 A 
ATOM     14  C   UNL     1      -1.969  11.797  18.685  0.00  0.00    +0.000 A 
ATOM     15  C   UNL     1      -0.859  12.599  19.272  0.00  0.00    +0.000 C 
ATOM     16  C   UNL     1       0.338  11.625  19.258  0.00  0.00    +0.000 C 
ENDROOT
BRANCH  16  17
ATOM     17  O   UNL     1       1.342  12.150  18.386  0.00  0.00    +0.000 OA
ATOM     18  H   UNL     1       0.943  12.874  17.874  0.00  0.00    +0.000 HD
ENDBRANCH  16  17
BRANCH   1  19
ATOM     19  C   UNL     1       2.410   6.061  20.186  0.00  0.00    +0.000 C 
BRANCH  19  20
ATOM     20  C   UNL     1       1.310   5.037  19.912  0.00  0.00    +0.000 C 
BRANCH  20  26
ATOM     21  C   UNL     1       2.717   2.630  21.263  0.00  0.00    +0.000 C 
ATOM     22  N   UNL     1       2.475   2.767  19.842  0.00  0.00    +0.000 N 
ATOM     23  C   UNL     1       2.849   1.833  18.910  0.00  0.00    +0.000 A 
ATOM     24  C   UNL     1       2.476   2.291  17.666  0.00  0.00    +0.000 A 
ATOM     25  C   UNL     1       1.850   3.541  17.856  0.00  0.00    +0.000 A 
ATOM     26  C   UNL     1       1.854   3.824  19.214  0.00  0.00    +0.000 A 
ENDBRANCH  20  26
ENDBRANCH  19  20
ENDBRANCH   1  19
TORSDOF 4
ENDMDL
MODEL 6
REMARK VINA RESULT:      -7.3      5.810      8.833
REMARK  Name = 
REMARK  5 active torsions:
REMARK  status: ('A' for Active; 'I' for Inactive)
REMARK    1  A    between atoms: C_1  and  N_2
REMARK    2  A    between atoms: C_6  and  C_7
REMARK    3  A    between atoms: C_7  and  C_8
REMARK    4  A    between atoms: C_8  and  C_9
REMARK    5  A    between atoms: C_24  and  O_25
REMARK                            x       y       z     vdW  Elec       q    Type
REMARK                         _______ _______ _______ _____ _____    ______ ____
ROOT
ATOM      1  C   UNL     1       2.472   7.348  19.124  0.00  0.00    +0.000 C 
ATOM      2  O   UNL     1       3.184   7.134  18.144  0.00  0.00    +0.000 OA
ATOM      3  N   UNL     1       1.800   8.554  19.307  0.00  0.00    +0.000 N 
ATOM      4  C   UNL     1       1.850   9.568  18.258  0.00  0.00    +0.000 C 
ATOM      5  C   UNL     1       0.428   9.916  17.807  0.00  0.00    +0.000 C 
ATOM      6  C   UNL     1      -0.463  10.367  18.991  0.00  0.00    +0.000 C 
ATOM      7  C   UNL     1      -0.410   9.283  20.098  0.00  0.00    +0.000 C 
ATOM      8  C   UNL     1       1.027   8.931  20.487  0.00  0.00    +0.000 C 
ATOM      9  C   UNL     1      -1.900  10.590  18.553  0.00  0.00    +0.000 A 
ATOM     10  C   UNL     1      -2.763   9.678  17.954  0.00  0.00    +0.000 A 
ATOM     11  C   UNL     1      -4.070  10.072  17.654  0.00  0.00    +0.000 A 
ATOM     12  C   UNL     1      -4.508  11.368  17.946  0.00  0.00    +0.000 A 
ATOM     13  C   UNL     1      -3.647  12.279  18.556  0.00  0.00    +0.000 A 
ATOM     14  C   UNL     1      -2.352  11.874  18.860  0.00  0.00    +0.000 A 
ATOM     15  C   UNL     1      -1.330  12.685  19.580  0.00  0.00    +0.000 C 
ATOM     16  C   UNL     1      -0.079  11.784  19.567  0.00  0.00    +0.000 C 
ENDROOT
BRANCH  16  17
ATOM     17  O   UNL     1       0.944  12.433  18.808  0.00  0.00    +0.000 OA
ATOM     18  H   UNL     1       1.300  11.787  18.174  0.00  0.00    +0.000 HD
ENDBRANCH  16  17
BRANCH   1  19
ATOM     19  C   UNL     1       2.264   6.285  20.190  0.00  0.00    +0.000 C 
BRANCH  19  20
ATOM     20  C   UNL     1       3.175   5.074  19.987  0.00  0.00    +0.000 C 
BRANCH  20  26
ATOM     21  C   UNL     1       4.198   3.272  17.684  0.00  0.00    +0.000 C 
ATOM     22  N   UNL     1       2.913   3.144  18.339  0.00  0.00    +0.000 N 
ATOM     23  C   UNL     1       1.978   2.195  18.008  0.00  0.00    +0.000 A 
ATOM     24  C   UNL     1       0.879   2.371  18.819  0.00  0.00    +0.000 A 
ATOM     25  C   UNL     1       1.163   3.460  19.670  0.00  0.00    +0.000 A 
ATOM     26  C   UNL     1       2.431   3.929  19.362  0.00  0.00    +0.000 A 
ENDBRANCH  20  26
ENDBRANCH  19  20
ENDBRANCH   1  19
TORSDOF 4
ENDMDL
MODEL 7
REMARK VINA RESULT:      -7.2      4.342      6.927
REMARK  Name = 
REMARK  5 active torsions:
REMARK  status: ('A' for Active; 'I' for Inactive)
REMARK    1  A    between atoms: C_1  and  N_2
REMARK    2  A    between atoms: C_6  and  C_7
REMARK    3  A    between atoms: C_7  and  C_8
REMARK    4  A    between atoms: C_8  and  C_9
REMARK    5  A    between atoms: C_24  and  O_25
REMARK                            x       y       z     vdW  Elec       q    Type
REMARK                         _______ _______ _______ _____ _____    ______ ____
ROOT
ATOM      1  C   UNL     1       6.704   4.778  14.890  0.00  0.00    +0.000 C 
ATOM      2  O   UNL     1       7.854   5.207  14.973  0.00  0.00    +0.000 OA
ATOM      3  N   UNL     1       5.995   4.330  16.001  0.00  0.00    +0.000 N 
ATOM      4  C   UNL     1       6.585   4.465  17.330  0.00  0.00    +0.000 C 
ATOM      5  C   UNL     1       5.654   5.284  18.229  0.00  0.00    +0.000 C 
ATOM      6  C   UNL     1       4.231   4.677  18.299  0.00  0.00    +0.000 C 
ATOM      7  C   UNL     1       3.696   4.490  16.856  0.00  0.00    +0.000 C 
ATOM      8  C   UNL     1       4.675   3.706  15.979  0.00  0.00    +0.000 C 
ATOM      9  C   UNL     1       3.286   5.562  19.092  0.00  0.00    +0.000 A 
ATOM     10  C   UNL     1       2.953   6.892  18.848  0.00  0.00    +0.000 A 
ATOM     11  C   UNL     1       2.029   7.527  19.683  0.00  0.00    +0.000 A 
ATOM     12  C   UNL     1       1.447   6.840  20.754  0.00  0.00    +0.000 A 
ATOM     13  C   UNL     1       1.772   5.505  20.991  0.00  0.00    +0.000 A 
ATOM     14  C   UNL     1       2.684   4.880  20.149  0.00  0.00    +0.000 A 
ATOM     15  C   UNL     1       3.084   3.445  20.207  0.00  0.00    +0.000 C 
ATOM     16  C   UNL     1       4.160   3.325  19.109  0.00  0.00    +0.000 C 
ENDROOT
BRANCH  16  17
ATOM     17  O   UNL     1       5.404   2.981  19.725  0.00  0.00    +0.000 OA
ATOM     18  H   UNL     1       5.661   2.099  19.405  0.00  0.00    +0.000 HD
ENDBRANCH  16  17
BRANCH   1  19
ATOM     19  C   UNL     1       5.976   4.736  13.556  0.00  0.00    +0.000 C 
BRANCH  19  20
ATOM     20  C   UNL     1       6.915   4.421  12.393  0.00  0.00    +0.000 C 
BRANCH  20  26
ATOM     21  C   UNL     1       4.135   3.298  11.612  0.00  0.00    +0.000 C 
ATOM     22  N   UNL     1       5.390   2.589  11.481  0.00  0.00    +0.000 N 
ATOM     23  C   UNL     1       5.498   1.312  10.991  0.00  0.00    +0.000 A 
ATOM     24  C   UNL     1       6.826   0.950  11.020  0.00  0.00    +0.000 A 
ATOM     25  C   UNL     1       7.544   2.048  11.540  0.00  0.00    +0.000 A 
ATOM     26  C   UNL     1       6.639   3.060  11.820  0.00  0.00    +0.000 A 
ENDBRANCH  20  26
ENDBRANCH  19  20
ENDBRANCH   1  19
TORSDOF 4
ENDMDL
MODEL 8
REMARK VINA RESULT:      -7.2      1.646      2.383
REMARK  Name = 
REMARK  5 active torsions:
REMARK  status: ('A' for Active; 'I' for Inactive)
REMARK    1  A    between atoms: C_1  and  N_2
REMARK    2  A    between atoms: C_6  and  C_7
REMARK    3  A    between atoms: C_7  and  C_8
REMARK    4  A    between atoms: C_8  and  C_9
REMARK    5  A    between atoms: C_24  and  O_25
REMARK                            x       y       z     vdW  Elec       q    Type
REMARK                         _______ _______ _______ _____ _____    ______ ____
ROOT
ATOM      1  C   UNL     1       8.555   8.989  18.564  0.00  0.00    +0.000 C 
ATOM      2  O   UNL     1       9.115   9.041  19.658  0.00  0.00    +0.000 OA
ATOM      3  N   UNL     1       8.049   7.802  18.042  0.00  0.00    +0.000 N 
ATOM      4  C   UNL     1       8.084   6.589  18.855  0.00  0.00    +0.000 C 
ATOM      5  C   UNL     1       6.665   6.034  19.018  0.00  0.00    +0.000 C 
ATOM      6  C   UNL     1       5.979   5.783  17.652  0.00  0.00    +0.000 C 
ATOM      7  C   UNL     1       6.045   7.084  16.813  0.00  0.00    +0.000 C 
ATOM      8  C   UNL     1       7.471   7.630  16.712  0.00  0.00    +0.000 C 
ATOM      9  C   UNL     1       4.534   5.351  17.827  0.00  0.00    +0.000 A 
ATOM     10  C   UNL     1       3.509   6.036  18.473  0.00  0.00    +0.000 A 
ATOM     11  C   UNL     1       2.227   5.479  18.496  0.00  0.00    +0.000 A 
ATOM     12  C   UNL     1       1.974   4.246  17.883  0.00  0.00    +0.000 A 
ATOM     13  C   UNL     1       2.998   3.566  17.227  0.00  0.00    +0.000 A 
ATOM     14  C   UNL     1       4.267   4.133  17.201  0.00  0.00    +0.000 A 
ATOM     15  C   UNL     1       5.452   3.586  16.481  0.00  0.00    +0.000 C 
ATOM     16  C   UNL     1       6.585   4.564  16.856  0.00  0.00    +0.000 C 
ENDROOT
BRANCH  16  17
ATOM     17  O   UNL     1       7.575   3.850  17.602  0.00  0.00    +0.000 OA
ATOM     18  H   UNL     1       7.317   2.913  17.617  0.00  0.00    +0.000 HD
ENDBRANCH  16  17
BRANCH   1  19
ATOM     19  C   UNL     1       8.361  10.239  17.722  0.00  0.00    +0.000 C 
BRANCH  19  20
ATOM     20  C   UNL     1       8.598  11.520  18.522  0.00  0.00    +0.000 C 
BRANCH  20  26
ATOM     21  C   UNL     1       8.779  14.582  18.090  0.00  0.00    +0.000 C 
ATOM     22  N   UNL     1       9.843  13.637  17.828  0.00  0.00    +0.000 N 
ATOM     23  C   UNL     1      11.078  13.991  17.345  0.00  0.00    +0.000 A 
ATOM     24  C   UNL     1      11.830  12.846  17.204  0.00  0.00    +0.000 A 
ATOM     25  C   UNL     1      11.024  11.766  17.621  0.00  0.00    +0.000 A 
ATOM     26  C   UNL     1       9.792  12.272  18.008  0.00  0.00    +0.000 A 
ENDBRANCH  20  26
ENDBRANCH  19  20
ENDBRANCH   1  19
TORSDOF 4
ENDMDL
MODEL 9
REMARK VINA RESULT:      -7.1      4.358      6.638
REMARK  Name = 
REMARK  5 active torsions:
REMARK  status: ('A' for Active; 'I' for Inactive)
REMARK    1  A    between atoms: C_1  and  N_2
REMARK    2  A    between atoms: C_6  and  C_7
REMARK    3  A    between atoms: C_7  and  C_8
REMARK    4  A    between atoms: C_8  and  C_9
REMARK    5  A    between atoms: C_24  and  O_25
REMARK                            x       y       z     vdW  Elec       q    Type
REMARK                         _______ _______ _______ _____ _____    ______ ____
ROOT
ATOM      1  C   UNL     1       3.119   4.749  19.007  0.00  0.00    +0.000 C 
ATOM      2  O   UNL     1       3.001   3.764  19.733  0.00  0.00    +0.000 OA
ATOM      3  N   UNL     1       4.234   4.949  18.197  0.00  0.00    +0.000 N 
ATOM      4  C   UNL     1       5.258   3.910  18.119  0.00  0.00    +0.000 C 
ATOM      5  C   UNL     1       5.438   3.471  16.663  0.00  0.00    +0.000 C 
ATOM      6  C   UNL     1       5.767   4.664  15.732  0.00  0.00    +0.000 C 
ATOM      7  C   UNL     1       4.687   5.759  15.921  0.00  0.00    +0.000 C 
ATOM      8  C   UNL     1       4.505   6.137  17.393  0.00  0.00    +0.000 C 
ATOM      9  C   UNL     1       5.823   4.236  14.276  0.00  0.00    +0.000 A 
ATOM     10  C   UNL     1       4.819   3.632  13.524  0.00  0.00    +0.000 A 
ATOM     11  C   UNL     1       5.058   3.343  12.177  0.00  0.00    +0.000 A 
ATOM     12  C   UNL     1       6.290   3.651  11.590  0.00  0.00    +0.000 A 
ATOM     13  C   UNL     1       7.291   4.266  12.341  0.00  0.00    +0.000 A 
ATOM     14  C   UNL     1       7.040   4.559  13.676  0.00  0.00    +0.000 A 
ATOM     15  C   UNL     1       7.960   5.282  14.599  0.00  0.00    +0.000 C 
ATOM     16  C   UNL     1       7.214   5.254  15.949  0.00  0.00    +0.000 C 
ENDROOT
BRANCH  16  17
ATOM     17  O   UNL     1       7.988   4.496  16.882  0.00  0.00    +0.000 OA
ATOM     18  H   UNL     1       7.393   4.200  17.592  0.00  0.00    +0.000 HD
ENDBRANCH  16  17
BRANCH   1  19
ATOM     19  C   UNL     1       2.028   5.805  18.934  0.00  0.00    +0.000 C 
BRANCH  19  20
ATOM     20  C   UNL     1       2.221   6.912  19.970  0.00  0.00    +0.000 C 
BRANCH  20  26
ATOM     21  C   UNL     1       0.639   9.077  21.521  0.00  0.00    +0.000 C 
ATOM     22  N   UNL     1       1.084   9.189  20.149  0.00  0.00    +0.000 N 
ATOM     23  C   UNL     1       0.850  10.286  19.357  0.00  0.00    +0.000 A 
ATOM     24  C   UNL     1       1.398  10.047  18.117  0.00  0.00    +0.000 A 
ATOM     25  C   UNL     1       1.987   8.766  18.164  0.00  0.00    +0.000 A 
ATOM     26  C   UNL     1       1.786   8.245  19.433  0.00  0.00    +0.000 A 
ENDBRANCH  20  26
ENDBRANCH  19  20
ENDBRANCH   1  19
TORSDOF 4
ENDMDL
