MODEL 1
REMARK VINA RESULT:      -5.8      0.000      0.000
REMARK  Name = 
REMARK  5 active torsions:
REMARK  status: ('A' for Active; 'I' for Inactive)
REMARK    1  A    between atoms: C_2  and  C_3
REMARK    2  A    between atoms: C_3  and  N_4
REMARK    3  A    between atoms: N_4  and  C_5
REMARK    4  A    between atoms: N_4  and  S_10
REMARK    5  A    between atoms: S_10  and  C_13
REMARK                            x       y       z     vdW  Elec       q    Type
REMARK                         _______ _______ _______ _____ _____    ______ ____
ROOT
ATOM      1  N   UNL     1       5.916   5.193  17.342  0.00  0.00    +0.000 NA
ENDROOT
BRANCH   1   2
ATOM      2  C   UNL     1       4.570   5.361  18.012  0.00  0.00    +0.000 C 
ATOM      3  C   UNL     1       3.887   6.701  17.769  0.00  0.00    +0.000 C 
ATOM      4  C   UNL     1       2.426   6.473  18.124  0.00  0.00    +0.000 C 
ATOM      5  C   UNL     1       2.166   4.985  17.919  0.00  0.00    +0.000 C 
ATOM      6  C   UNL     1       3.515   4.325  17.637  0.00  0.00    +0.000 C 
ENDBRANCH   1   2
BRANCH   1   7
ATOM      7  S   UNL     1       7.216   5.289  18.487  0.00  0.00    +0.000 S 
ATOM      8  O   UNL     1       6.636   5.151  19.811  0.00  0.00    +0.000 OA
ATOM      9  O   UNL     1       8.219   4.346  18.037  0.00  0.00    +0.000 OA
BRANCH   7  10
ATOM     10  C   UNL     1       7.896   6.884  18.354  0.00  0.00    +0.000 C 
ATOM     11  C   UNL     1       7.522   7.711  17.370  0.00  0.00    +0.000 C 
ENDBRANCH   7  10
ENDBRANCH   1   7
BRANCH   1  12
ATOM     12  C   UNL     1       6.093   4.018  16.435  0.00  0.00    +0.000 C 
BRANCH  12  14
ATOM     13  C   UNL     1       6.709   4.676  13.924  0.00  0.00    +0.000 C 
ATOM     14  C   UNL     1       6.470   4.375  15.064  0.00  0.00    +0.000 C 
ENDBRANCH  12  14
ENDBRANCH   1  12
TORSDOF 5
ENDMDL
MODEL 2
REMARK VINA RESULT:      -5.6      2.953      5.184
REMARK  Name = 
REMARK  5 active torsions:
REMARK  status: ('A' for Active; 'I' for Inactive)
REMARK    1  A    between atoms: C_2  and  C_3
REMARK    2  A    between atoms: C_3  and  N_4
REMARK    3  A    between atoms: N_4  and  C_5
REMARK    4  A    between atoms: N_4  and  S_10
REMARK    5  A    between atoms: S_10  and  C_13
REMARK                            x       y       z     vdW  Elec       q    Type
REMARK                         _______ _______ _______ _____ _____    ______ ____
ROOT
ATOM      1  N   UNL     1       3.520   4.911  17.533  0.00  0.00    +0.000 NA
ENDROOT
BRANCH   1   2
ATOM      2  C   UNL     1       4.860   4.366  17.092  0.00  0.00    +0.000 C 
ATOM      3  C   UNL     1       5.309   4.797  15.701  0.00  0.00    +0.000 C 
ATOM      4  C   UNL     1       6.806   4.532  15.667  0.00  0.00    +0.000 C 
ATOM      5  C   UNL     1       7.284   4.604  17.113  0.00  0.00    +0.000 C 
ATOM      6  C   UNL     1       6.040   4.714  17.995  0.00  0.00    +0.000 C 
ENDBRANCH   1   2
BRANCH   1   7
ATOM      7  S   UNL     1       2.414   3.637  17.940  0.00  0.00    +0.000 S 
ATOM      8  O   UNL     1       1.150   3.940  17.293  0.00  0.00    +0.000 OA
ATOM      9  O   UNL     1       3.100   2.397  17.638  0.00  0.00    +0.000 OA
BRANCH   7  10
ATOM     10  C   UNL     1       2.174   3.700  19.661  0.00  0.00    +0.000 C 
ATOM     11  C   UNL     1       0.943   3.796  20.179  0.00  0.00    +0.000 C 
ENDBRANCH   7  10
ENDBRANCH   1   7
BRANCH   1  12
ATOM     12  C   UNL     1       3.519   5.971  18.587  0.00  0.00    +0.000 C 
BRANCH  12  14
ATOM     13  C   UNL     1       2.492   8.295  17.773  0.00  0.00    +0.000 C 
ATOM     14  C   UNL     1       2.992   7.262  18.135  0.00  0.00    +0.000 C 
ENDBRANCH  12  14
ENDBRANCH   1  12
TORSDOF 5
ENDMDL
MODEL 3
REMARK VINA RESULT:      -5.6      1.347      1.636
REMARK  Name = 
REMARK  5 active torsions:
REMARK  status: ('A' for Active; 'I' for Inactive)
REMARK    1  A    between atoms: C_2  and  C_3
REMARK    2  A    between atoms: C_3  and  N_4
REMARK    3  A    between atoms: N_4  and  C_5
REMARK    4  A    between atoms: N_4  and  S_10
REMARK    5  A    between atoms: S_10  and  C_13
REMARK                            x       y       z     vdW  Elec       q    Type
REMARK                         _______ _______ _______ _____ _____    ______ ____
ROOT
ATOM      1  N   UNL     1       5.627   5.199  16.481  0.00  0.00    +0.000 NA
ENDROOT
BRANCH   1   2
ATOM      2  C   UNL     1       4.564   5.522  17.508  0.00  0.00    +0.000 C 
ATOM      3  C   UNL     1       3.935   6.904  17.377  0.00  0.00    +0.000 C 
ATOM      4  C   UNL     1       2.639   6.829  18.169  0.00  0.00    +0.000 C 
ATOM      5  C   UNL     1       2.225   5.362  18.166  0.00  0.00    +0.000 C 
ATOM      6  C   UNL     1       3.374   4.568  17.545  0.00  0.00    +0.000 C 
ENDBRANCH   1   2
BRANCH   1   7
ATOM      7  S   UNL     1       7.220   5.528  17.086  0.00  0.00    +0.000 S 
ATOM      8  O   UNL     1       7.979   4.293  16.994  0.00  0.00    +0.000 OA
ATOM      9  O   UNL     1       7.680   6.710  16.387  0.00  0.00    +0.000 OA
BRANCH   7  10
ATOM     10  C   UNL     1       7.053   5.941  18.766  0.00  0.00    +0.000 C 
ATOM     11  C   UNL     1       7.994   5.600  19.655  0.00  0.00    +0.000 C 
ENDBRANCH   7  10
ENDBRANCH   1   7
BRANCH   1  12
ATOM     12  C   UNL     1       5.572   3.854  15.832  0.00  0.00    +0.000 C 
BRANCH  12  14
ATOM     13  C   UNL     1       6.249   3.909  13.252  0.00  0.00    +0.000 C 
ATOM     14  C   UNL     1       5.910   3.866  14.406  0.00  0.00    +0.000 C 
ENDBRANCH  12  14
ENDBRANCH   1  12
TORSDOF 5
ENDMDL
MODEL 4
REMARK VINA RESULT:      -5.5      1.877      3.574
REMARK  Name = 
REMARK  5 active torsions:
REMARK  status: ('A' for Active; 'I' for Inactive)
REMARK    1  A    between atoms: C_2  and  C_3
REMARK    2  A    between atoms: C_3  and  N_4
REMARK    3  A    between atoms: N_4  and  C_5
REMARK    4  A    between atoms: N_4  and  S_10
REMARK    5  A    between atoms: S_10  and  C_13
REMARK                            x       y       z     vdW  Elec       q    Type
REMARK                         _______ _______ _______ _____ _____    ______ ____
ROOT
ATOM      1  N   UNL     1       4.074   5.527  18.983  0.00  0.00    +0.000 NA
ENDROOT
BRANCH   1   2
ATOM      2  C   UNL     1       3.117   4.450  19.445  0.00  0.00    +0.000 C 
ATOM      3  C   UNL     1       2.250   4.823  20.640  0.00  0.00    +0.000 C 
ATOM      4  C   UNL     1       1.103   3.825  20.627  0.00  0.00    +0.000 C 
ATOM      5  C   UNL     1       0.948   3.375  19.179  0.00  0.00    +0.000 C 
ATOM      6  C   UNL     1       2.124   3.959  18.396  0.00  0.00    +0.000 C 
ENDBRANCH   1   2
BRANCH   1   7
ATOM      7  S   UNL     1       5.692   4.919  18.825  0.00  0.00    +0.000 S 
ATOM      8  O   UNL     1       6.523   5.657  19.760  0.00  0.00    +0.000 OA
ATOM      9  O   UNL     1       5.593   3.478  18.931  0.00  0.00    +0.000 OA
BRANCH   7  10
ATOM     10  C   UNL     1       6.223   5.293  17.212  0.00  0.00    +0.000 C 
ATOM     11  C   UNL     1       6.634   4.326  16.383  0.00  0.00    +0.000 C 
ENDBRANCH   7  10
ENDBRANCH   1   7
BRANCH   1  12
ATOM     12  C   UNL     1       3.687   6.323  17.778  0.00  0.00    +0.000 C 
BRANCH  12  14
ATOM     13  C   UNL     1       2.121   8.428  18.260  0.00  0.00    +0.000 C 
ATOM     14  C   UNL     1       2.845   7.485  18.078  0.00  0.00    +0.000 C 
ENDBRANCH  12  14
ENDBRANCH   1  12
TORSDOF 5
ENDMDL
MODEL 5
REMARK VINA RESULT:      -5.5      2.761      5.058
REMARK  Name = 
REMARK  5 active torsions:
REMARK  status: ('A' for Active; 'I' for Inactive)
REMARK    1  A    between atoms: C_2  and  C_3
REMARK    2  A    between atoms: C_3  and  N_4
REMARK    3  A    between atoms: N_4  and  C_5
REMARK    4  A    between atoms: N_4  and  S_10
REMARK    5  A    between atoms: S_10  and  C_13
REMARK                            x       y       z     vdW  Elec       q    Type
REMARK                         _______ _______ _______ _____ _____    ______ ____
ROOT
ATOM      1  N   UNL     1       3.890   4.061  18.614  0.00  0.00    +0.000 NA
ENDROOT
BRANCH   1   2
ATOM      2  C   UNL     1       5.101   3.843  17.735  0.00  0.00    +0.000 C 
ATOM      3  C   UNL     1       4.886   4.126  16.253  0.00  0.00    +0.000 C 
ATOM      4  C   UNL     1       6.282   4.289  15.672  0.00  0.00    +0.000 C 
ATOM      5  C   UNL     1       7.170   4.749  16.823  0.00  0.00    +0.000 C 
ATOM      6  C   UNL     1       6.335   4.662  18.101  0.00  0.00    +0.000 C 
ENDBRANCH   1   2
BRANCH   1   7
ATOM      7  S   UNL     1       3.577   2.685  19.624  0.00  0.00    +0.000 S 
ATOM      8  O   UNL     1       2.810   1.737  18.837  0.00  0.00    +0.000 OA
ATOM      9  O   UNL     1       4.857   2.294  20.179  0.00  0.00    +0.000 OA
BRANCH   7  10
ATOM     10  C   UNL     1       2.580   3.233  20.939  0.00  0.00    +0.000 C 
ATOM     11  C   UNL     1       1.253   3.062  20.913  0.00  0.00    +0.000 C 
ENDBRANCH   7  10
ENDBRANCH   1   7
BRANCH   1  12
ATOM     12  C   UNL     1       3.833   5.326  19.408  0.00  0.00    +0.000 C 
BRANCH  12  14
ATOM     13  C   UNL     1       2.521   7.342  18.253  0.00  0.00    +0.000 C 
ATOM     14  C   UNL     1       3.123   6.420  18.738  0.00  0.00    +0.000 C 
ENDBRANCH  12  14
ENDBRANCH   1  12
TORSDOF 5
ENDMDL
MODEL 6
REMARK VINA RESULT:      -5.4      2.917      5.187
REMARK  Name = 
REMARK  5 active torsions:
REMARK  status: ('A' for Active; 'I' for Inactive)
REMARK    1  A    between atoms: C_2  and  C_3
REMARK    2  A    between atoms: C_3  and  N_4
REMARK    3  A    between atoms: N_4  and  C_5
REMARK    4  A    between atoms: N_4  and  S_10
REMARK    5  A    between atoms: S_10  and  C_13
REMARK                            x       y       z     vdW  Elec       q    Type
REMARK                         _______ _______ _______ _____ _____    ______ ____
ROOT
ATOM      1  N   UNL     1       3.353   5.531  17.848  0.00  0.00    +0.000 NA
ENDROOT
BRANCH   1   2
ATOM      2  C   UNL     1       4.851   5.333  17.786  0.00  0.00    +0.000 C 
ATOM      3  C   UNL     1       5.614   6.394  17.004  0.00  0.00    +0.000 C 
ATOM      4  C   UNL     1       7.061   6.258  17.454  0.00  0.00    +0.000 C 
ATOM      5  C   UNL     1       7.015   5.660  18.855  0.00  0.00    +0.000 C 
ATOM      6  C   UNL     1       5.563   5.272  19.134  0.00  0.00    +0.000 C 
ENDBRANCH   1   2
BRANCH   1   7
ATOM      7  S   UNL     1       2.512   4.018  17.957  0.00  0.00    +0.000 S 
ATOM      8  O   UNL     1       1.219   4.195  17.320  0.00  0.00    +0.000 OA
ATOM      9  O   UNL     1       3.428   3.011  17.461  0.00  0.00    +0.000 OA
BRANCH   7  10
ATOM     10  C   UNL     1       2.247   3.701  19.646  0.00  0.00    +0.000 C 
ATOM     11  C   UNL     1       1.013   3.486  20.120  0.00  0.00    +0.000 C 
ENDBRANCH   7  10
ENDBRANCH   1   7
BRANCH   1  12
ATOM     12  C   UNL     1       2.827   6.504  18.854  0.00  0.00    +0.000 C 
BRANCH  12  14
ATOM     13  C   UNL     1       2.054   8.816  17.769  0.00  0.00    +0.000 C 
ATOM     14  C   UNL     1       2.426   7.793  18.284  0.00  0.00    +0.000 C 
ENDBRANCH  12  14
ENDBRANCH   1  12
TORSDOF 5
ENDMDL
MODEL 7
REMARK VINA RESULT:      -5.4      2.921      5.134
REMARK  Name = 
REMARK  5 active torsions:
REMARK  status: ('A' for Active; 'I' for Inactive)
REMARK    1  A    between atoms: C_2  and  C_3
REMARK    2  A    between atoms: C_3  and  N_4
REMARK    3  A    between atoms: N_4  and  C_5
REMARK    4  A    between atoms: N_4  and  S_10
REMARK    5  A    between atoms: S_10  and  C_13
REMARK                            x       y       z     vdW  Elec       q    Type
REMARK                         _______ _______ _______ _____ _____    ______ ____
ROOT
ATOM      1  N   UNL     1       3.531   5.144  17.466  0.00  0.00    +0.000 NA
ENDROOT
BRANCH   1   2
ATOM      2  C   UNL     1       4.813   4.505  16.979  0.00  0.00    +0.000 C 
ATOM      3  C   UNL     1       5.333   5.028  15.646  0.00  0.00    +0.000 C 
ATOM      4  C   UNL     1       6.793   4.606  15.595  0.00  0.00    +0.000 C 
ATOM      5  C   UNL     1       7.247   4.472  17.044  0.00  0.00    +0.000 C 
ATOM      6  C   UNL     1       6.005   4.624  17.923  0.00  0.00    +0.000 C 
ENDBRANCH   1   2
BRANCH   1   7
ATOM      7  S   UNL     1       2.407   3.958  18.051  0.00  0.00    +0.000 S 
ATOM      8  O   UNL     1       2.405   4.043  19.500  0.00  0.00    +0.000 OA
ATOM      9  O   UNL     1       1.178   4.170  17.314  0.00  0.00    +0.000 OA
BRANCH   7  10
ATOM     10  C   UNL     1       3.029   2.399  17.598  0.00  0.00    +0.000 C 
ATOM     11  C   UNL     1       3.475   1.541  18.524  0.00  0.00    +0.000 C 
ENDBRANCH   7  10
ENDBRANCH   1   7
BRANCH   1  12
ATOM     12  C   UNL     1       3.649   6.282  18.427  0.00  0.00    +0.000 C 
BRANCH  12  14
ATOM     13  C   UNL     1       2.264   8.459  17.749  0.00  0.00    +0.000 C 
ATOM     14  C   UNL     1       2.854   7.458  18.060  0.00  0.00    +0.000 C 
ENDBRANCH  12  14
ENDBRANCH   1  12
TORSDOF 5
ENDMDL
MODEL 8
REMARK VINA RESULT:      -5.4      2.184      3.577
REMARK  Name = 
REMARK  5 active torsions:
REMARK  status: ('A' for Active; 'I' for Inactive)
REMARK    1  A    between atoms: C_2  and  C_3
REMARK    2  A    between atoms: C_3  and  N_4
REMARK    3  A    between atoms: N_4  and  C_5
REMARK    4  A    between atoms: N_4  and  S_10
REMARK    5  A    between atoms: S_10  and  C_13
REMARK                            x       y       z     vdW  Elec       q    Type
REMARK                         _______ _______ _______ _____ _____    ______ ____
ROOT
ATOM      1  N   UNL     1       6.149   4.575  16.874  0.00  0.00    +0.000 NA
ENDROOT
BRANCH   1   2
ATOM      2  C   UNL     1       4.814   4.895  17.510  0.00  0.00    +0.000 C 
ATOM      3  C   UNL     1       3.686   3.929  17.171  0.00  0.00    +0.000 C 
ATOM      4  C   UNL     1       2.627   4.163  18.238  0.00  0.00    +0.000 C 
ATOM      5  C   UNL     1       3.366   4.700  19.459  0.00  0.00    +0.000 C 
ATOM      6  C   UNL     1       4.812   4.959  19.035  0.00  0.00    +0.000 C 
ENDBRANCH   1   2
BRANCH   1   7
ATOM      7  S   UNL     1       6.249   5.193  15.256  0.00  0.00    +0.000 S 
ATOM      8  O   UNL     1       5.422   6.385  15.197  0.00  0.00    +0.000 OA
ATOM      9  O   UNL     1       7.662   5.279  14.945  0.00  0.00    +0.000 OA
BRANCH   7  10
ATOM     10  C   UNL     1       5.552   3.995  14.206  0.00  0.00    +0.000 C 
ATOM     11  C   UNL     1       6.144   3.665  13.051  0.00  0.00    +0.000 C 
ENDBRANCH   7  10
ENDBRANCH   1   7
BRANCH   1  12
ATOM     12  C   UNL     1       7.382   4.912  17.648  0.00  0.00    +0.000 C 
BRANCH  12  14
ATOM     13  C   UNL     1       7.769   7.536  17.934  0.00  0.00    +0.000 C 
ATOM     14  C   UNL     1       7.587   6.350  17.844  0.00  0.00    +0.000 C 
ENDBRANCH  12  14
ENDBRANCH   1  12
TORSDOF 5
ENDMDL
MODEL 9
REMARK VINA RESULT:      -5.4      1.029      1.382
REMARK  Name = 
REMARK  5 active torsions:
REMARK  status: ('A' for Active; 'I' for Inactive)
REMARK    1  A    between atoms: C_2  and  C_3
REMARK    2  A    between atoms: C_3  and  N_4
REMARK    3  A    between atoms: N_4  and  C_5
REMARK    4  A    between atoms: N_4  and  S_10
REMARK    5  A    between atoms: S_10  and  C_13
REMARK                            x       y       z     vdW  Elec       q    Type
REMARK                         _______ _______ _______ _____ _____    ______ ____
ROOT
ATOM      1  N   UNL     1       5.217   4.591  17.212  0.00  0.00    +0.000 NA
ENDROOT
BRANCH   1   2
ATOM      2  C   UNL     1       4.013   4.152  18.017  0.00  0.00    +0.000 C 
ATOM      3  C   UNL     1       2.729   4.920  17.733  0.00  0.00    +0.000 C 
ATOM      4  C   UNL     1       1.611   4.043  18.275  0.00  0.00    +0.000 C 
ATOM      5  C   UNL     1       2.139   2.613  18.239  0.00  0.00    +0.000 C 
ATOM      6  C   UNL     1       3.619   2.687  17.863  0.00  0.00    +0.000 C 
ENDBRANCH   1   2
BRANCH   1   7
ATOM      7  S   UNL     1       6.464   5.240  18.230  0.00  0.00    +0.000 S 
ATOM      8  O   UNL     1       5.870   5.496  19.530  0.00  0.00    +0.000 OA
ATOM      9  O   UNL     1       7.588   4.333  18.117  0.00  0.00    +0.000 OA
BRANCH   7  10
ATOM     10  C   UNL     1       6.945   6.762  17.541  0.00  0.00    +0.000 C 
ATOM     11  C   UNL     1       7.932   7.483  18.088  0.00  0.00    +0.000 C 
ENDBRANCH   7  10
ENDBRANCH   1   7
BRANCH   1  12
ATOM     12  C   UNL     1       5.786   3.615  16.233  0.00  0.00    +0.000 C 
BRANCH  12  14
ATOM     13  C   UNL     1       6.635   4.795  13.996  0.00  0.00    +0.000 C 
ATOM     14  C   UNL     1       6.261   4.227  14.989  0.00  0.00    +0.000 C 
ENDBRANCH  12  14
ENDBRANCH   1  12
TORSDOF 5
ENDMDL
