MODEL 1
REMARK VINA RESULT:      -6.2      0.000      0.000
REMARK  Name = 
REMARK  7 active torsions:
REMARK  status: ('A' for Active; 'I' for Inactive)
REMARK    1  A    between atoms: C_1  and  C_2
REMARK    2  A    between atoms: C_2  and  C_3
REMARK    3  A    between atoms: C_3  and  S_4
REMARK    4  A    between atoms: S_4  and  C_7
REMARK    5  A    between atoms: C_7  and  C_8
REMARK    6  A    between atoms: C_8  and  N_9
REMARK    7  A    between atoms: C_13  and  C_14
REMARK                            x       y       z     vdW  Elec       q    Type
REMARK                         _______ _______ _______ _____ _____    ______ ____
ROOT
ATOM      1  N   UNL     1       4.119   2.530  19.578  0.00  0.00    +0.000 NA
ATOM      2  C   UNL     1       3.689   1.944  18.288  0.00  0.00    +0.000 C 
ATOM      3  C   UNL     1       2.428   2.549  17.640  0.00  0.00    +0.000 C 
ATOM      4  O   UNL     1       1.344   2.799  18.540  0.00  0.00    +0.000 OA
ATOM      5  C   UNL     1       1.735   3.504  19.733  0.00  0.00    +0.000 C 
ATOM      6  C   UNL     1       2.917   2.756  20.408  0.00  0.00    +0.000 C 
ENDROOT
BRANCH   5   7
ATOM      7  C   UNL     1       1.915   5.001  19.539  0.00  0.00    +0.000 A 
ATOM      8  C   UNL     1       2.240   5.661  18.301  0.00  0.00    +0.000 A 
ATOM      9  C   UNL     1       2.353   7.028  18.425  0.00  0.00    +0.000 A 
ATOM     10  S   UNL     1       2.000   7.553  20.008  0.00  0.00    +0.000 S 
ATOM     11  C   UNL     1       1.722   5.949  20.532  0.00  0.00    +0.000 A 
ENDBRANCH   5   7
BRANCH   1  12
ATOM     12  C   UNL     1       4.978   3.711  19.385  0.00  0.00    +0.000 C 
BRANCH  12  13
ATOM     13  C   UNL     1       5.616   3.818  18.001  0.00  0.00    +0.000 C 
BRANCH  13  14
ATOM     14  S   UNL     1       7.048   4.892  17.992  0.00  0.00    +0.000 S 
ATOM     15  O   UNL     1       8.070   4.227  17.219  0.00  0.00    +0.000 OA
ATOM     16  O   UNL     1       7.297   5.316  19.356  0.00  0.00    +0.000 OA
BRANCH  14  17
ATOM     17  C   UNL     1       6.513   6.333  17.070  0.00  0.00    +0.000 C 
BRANCH  17  19
ATOM     18  C   UNL     1       5.700   5.387  14.894  0.00  0.00    +0.000 C 
ATOM     19  C   UNL     1       5.296   6.015  16.217  0.00  0.00    +0.000 C 
ENDBRANCH  17  19
ENDBRANCH  14  17
ENDBRANCH  13  14
ENDBRANCH  12  13
ENDBRANCH   1  12
TORSDOF 6
ENDMDL
MODEL 2
REMARK VINA RESULT:      -6.2      1.318      1.988
REMARK  Name = 
REMARK  7 active torsions:
REMARK  status: ('A' for Active; 'I' for Inactive)
REMARK    1  A    between atoms: C_1  and  C_2
REMARK    2  A    between atoms: C_2  and  C_3
REMARK    3  A    between atoms: C_3  and  S_4
REMARK    4  A    between atoms: S_4  and  C_7
REMARK    5  A    between atoms: C_7  and  C_8
REMARK    6  A    between atoms: C_8  and  N_9
REMARK    7  A    between atoms: C_13  and  C_14
REMARK                            x       y       z     vdW  Elec       q    Type
REMARK                         _______ _______ _______ _____ _____    ______ ____
ROOT
ATOM      1  N   UNL     1       4.403   2.966  18.834  0.00  0.00    +0.000 NA
ATOM      2  C   UNL     1       3.529   2.247  17.879  0.00  0.00    +0.000 C 
ATOM      3  C   UNL     1       2.072   2.740  17.769  0.00  0.00    +0.000 C 
ATOM      4  O   UNL     1       1.434   3.028  19.017  0.00  0.00    +0.000 OA
ATOM      5  C   UNL     1       2.225   3.855  19.892  0.00  0.00    +0.000 C 
ATOM      6  C   UNL     1       3.631   3.219  20.068  0.00  0.00    +0.000 C 
ENDROOT
BRANCH   5   7
ATOM      7  C   UNL     1       2.198   5.334  19.539  0.00  0.00    +0.000 A 
ATOM      8  C   UNL     1       2.051   6.423  20.469  0.00  0.00    +0.000 A 
ATOM      9  C   UNL     1       2.049   7.660  19.865  0.00  0.00    +0.000 A 
ATOM     10  S   UNL     1       2.296   7.544  18.182  0.00  0.00    +0.000 S 
ATOM     11  C   UNL     1       2.380   5.839  18.261  0.00  0.00    +0.000 A 
ENDBRANCH   5   7
BRANCH   1  12
ATOM     12  C   UNL     1       5.018   4.157  18.224  0.00  0.00    +0.000 C 
BRANCH  12  13
ATOM     13  C   UNL     1       5.448   3.980  16.768  0.00  0.00    +0.000 C 
BRANCH  13  14
ATOM     14  S   UNL     1       6.824   5.039  16.331  0.00  0.00    +0.000 S 
ATOM     15  O   UNL     1       6.715   5.311  14.917  0.00  0.00    +0.000 OA
ATOM     16  O   UNL     1       8.029   4.460  16.892  0.00  0.00    +0.000 OA
BRANCH  14  17
ATOM     17  C   UNL     1       6.502   6.567  17.210  0.00  0.00    +0.000 C 
BRANCH  17  19
ATOM     18  C   UNL     1       8.044   8.448  17.824  0.00  0.00    +0.000 C 
ATOM     19  C   UNL     1       7.703   6.984  18.043  0.00  0.00    +0.000 C 
ENDBRANCH  17  19
ENDBRANCH  14  17
ENDBRANCH  13  14
ENDBRANCH  12  13
ENDBRANCH   1  12
TORSDOF 6
ENDMDL
MODEL 3
REMARK VINA RESULT:      -6.2      1.532      1.726
REMARK  Name = 
REMARK  7 active torsions:
REMARK  status: ('A' for Active; 'I' for Inactive)
REMARK    1  A    between atoms: C_1  and  C_2
REMARK    2  A    between atoms: C_2  and  C_3
REMARK    3  A    between atoms: C_3  and  S_4
REMARK    4  A    between atoms: S_4  and  C_7
REMARK    5  A    between atoms: C_7  and  C_8
REMARK    6  A    between atoms: C_8  and  N_9
REMARK    7  A    between atoms: C_13  and  C_14
REMARK                            x       y       z     vdW  Elec       q    Type
REMARK                         _______ _______ _______ _____ _____    ______ ____
ROOT
ATOM      1  N   UNL     1       4.620   3.397  18.855  0.00  0.00    +0.000 NA
ATOM      2  C   UNL     1       4.042   2.911  17.582  0.00  0.00    +0.000 C 
ATOM      3  C   UNL     1       2.615   3.388  17.242  0.00  0.00    +0.000 C 
ATOM      4  O   UNL     1       1.691   3.359  18.334  0.00  0.00    +0.000 OA
ATOM      5  C   UNL     1       2.198   3.968  19.536  0.00  0.00    +0.000 C 
ATOM      6  C   UNL     1       3.571   3.335  19.893  0.00  0.00    +0.000 C 
ENDROOT
BRANCH   5   7
ATOM      7  C   UNL     1       2.142   5.487  19.534  0.00  0.00    +0.000 A 
ATOM      8  C   UNL     1       2.481   6.345  18.428  0.00  0.00    +0.000 A 
ATOM      9  C   UNL     1       2.349   7.684  18.716  0.00  0.00    +0.000 A 
ATOM     10  S   UNL     1       1.746   7.939  20.290  0.00  0.00    +0.000 S 
ATOM     11  C   UNL     1       1.688   6.257  20.594  0.00  0.00    +0.000 A 
ENDBRANCH   5   7
BRANCH   1  12
ATOM     12  C   UNL     1       5.267   4.711  18.696  0.00  0.00    +0.000 C 
BRANCH  12  13
ATOM     13  C   UNL     1       6.583   4.685  17.921  0.00  0.00    +0.000 C 
BRANCH  13  14
ATOM     14  S   UNL     1       6.534   5.720  16.461  0.00  0.00    +0.000 S 
ATOM     15  O   UNL     1       7.599   6.686  16.592  0.00  0.00    +0.000 OA
ATOM     16  O   UNL     1       5.162   6.139  16.257  0.00  0.00    +0.000 OA
BRANCH  14  17
ATOM     17  C   UNL     1       6.963   4.610  15.119  0.00  0.00    +0.000 C 
BRANCH  17  19
ATOM     18  C   UNL     1       6.076   3.656  12.976  0.00  0.00    +0.000 C 
ATOM     19  C   UNL     1       5.723   4.158  14.365  0.00  0.00    +0.000 C 
ENDBRANCH  17  19
ENDBRANCH  14  17
ENDBRANCH  13  14
ENDBRANCH  12  13
ENDBRANCH   1  12
TORSDOF 6
ENDMDL
MODEL 4
REMARK VINA RESULT:      -6.2      0.670      1.028
REMARK  Name = 
REMARK  7 active torsions:
REMARK  status: ('A' for Active; 'I' for Inactive)
REMARK    1  A    between atoms: C_1  and  C_2
REMARK    2  A    between atoms: C_2  and  C_3
REMARK    3  A    between atoms: C_3  and  S_4
REMARK    4  A    between atoms: S_4  and  C_7
REMARK    5  A    between atoms: C_7  and  C_8
REMARK    6  A    between atoms: C_8  and  N_9
REMARK    7  A    between atoms: C_13  and  C_14
REMARK                            x       y       z     vdW  Elec       q    Type
REMARK                         _______ _______ _______ _____ _____    ______ ____
ROOT
ATOM      1  N   UNL     1       4.178   2.809  19.448  0.00  0.00    +0.000 NA
ATOM      2  C   UNL     1       3.753   2.257  18.142  0.00  0.00    +0.000 C 
ATOM      3  C   UNL     1       2.481   2.863  17.516  0.00  0.00    +0.000 C 
ATOM      4  O   UNL     1       1.397   3.069  18.426  0.00  0.00    +0.000 OA
ATOM      5  C   UNL     1       1.781   3.743  19.639  0.00  0.00    +0.000 C 
ATOM      6  C   UNL     1       2.976   2.992  20.287  0.00  0.00    +0.000 C 
ENDROOT
BRANCH   5   7
ATOM      7  C   UNL     1       1.938   5.248  19.490  0.00  0.00    +0.000 A 
ATOM      8  C   UNL     1       1.811   6.221  20.544  0.00  0.00    +0.000 A 
ATOM      9  C   UNL     1       1.992   7.516  20.115  0.00  0.00    +0.000 A 
ATOM     10  S   UNL     1       2.390   7.587  18.458  0.00  0.00    +0.000 S 
ATOM     11  C   UNL     1       2.293   5.886  18.311  0.00  0.00    +0.000 A 
ENDBRANCH   5   7
BRANCH   1  12
ATOM     12  C   UNL     1       5.019   4.009  19.289  0.00  0.00    +0.000 C 
BRANCH  12  13
ATOM     13  C   UNL     1       5.646   4.170  17.905  0.00  0.00    +0.000 C 
BRANCH  13  14
ATOM     14  S   UNL     1       7.255   4.952  17.974  0.00  0.00    +0.000 S 
ATOM     15  O   UNL     1       8.127   4.202  17.099  0.00  0.00    +0.000 OA
ATOM     16  O   UNL     1       7.591   5.160  19.368  0.00  0.00    +0.000 OA
BRANCH  14  17
ATOM     17  C   UNL     1       6.994   6.565  17.236  0.00  0.00    +0.000 C 
BRANCH  17  19
ATOM     18  C   UNL     1       5.359   6.328  15.349  0.00  0.00    +0.000 C 
ATOM     19  C   UNL     1       5.549   6.739  16.799  0.00  0.00    +0.000 C 
ENDBRANCH  17  19
ENDBRANCH  14  17
ENDBRANCH  13  14
ENDBRANCH  12  13
ENDBRANCH   1  12
TORSDOF 6
ENDMDL
MODEL 5
REMARK VINA RESULT:      -6.0      0.893      1.030
REMARK  Name = 
REMARK  7 active torsions:
REMARK  status: ('A' for Active; 'I' for Inactive)
REMARK    1  A    between atoms: C_1  and  C_2
REMARK    2  A    between atoms: C_2  and  C_3
REMARK    3  A    between atoms: C_3  and  S_4
REMARK    4  A    between atoms: S_4  and  C_7
REMARK    5  A    between atoms: C_7  and  C_8
REMARK    6  A    between atoms: C_8  and  N_9
REMARK    7  A    between atoms: C_13  and  C_14
REMARK                            x       y       z     vdW  Elec       q    Type
REMARK                         _______ _______ _______ _____ _____    ______ ____
ROOT
ATOM      1  N   UNL     1       4.095   2.464  19.530  0.00  0.00    +0.000 NA
ATOM      2  C   UNL     1       3.611   1.847  18.275  0.00  0.00    +0.000 C 
ATOM      3  C   UNL     1       2.333   2.449  17.658  0.00  0.00    +0.000 C 
ATOM      4  O   UNL     1       1.286   2.737  18.590  0.00  0.00    +0.000 OA
ATOM      5  C   UNL     1       1.731   3.471  19.747  0.00  0.00    +0.000 C 
ATOM      6  C   UNL     1       2.929   2.728  20.398  0.00  0.00    +0.000 C 
ENDROOT
BRANCH   5   7
ATOM      7  C   UNL     1       1.919   4.960  19.502  0.00  0.00    +0.000 A 
ATOM      8  C   UNL     1       2.166   5.584  18.229  0.00  0.00    +0.000 A 
ATOM      9  C   UNL     1       2.310   6.951  18.310  0.00  0.00    +0.000 A 
ATOM     10  S   UNL     1       2.077   7.520  19.900  0.00  0.00    +0.000 S 
ATOM     11  C   UNL     1       1.812   5.935  20.482  0.00  0.00    +0.000 A 
ENDBRANCH   5   7
BRANCH   1  12
ATOM     12  C   UNL     1       4.959   3.628  19.271  0.00  0.00    +0.000 C 
BRANCH  12  13
ATOM     13  C   UNL     1       5.303   3.854  17.799  0.00  0.00    +0.000 C 
BRANCH  13  14
ATOM     14  S   UNL     1       6.683   4.974  17.586  0.00  0.00    +0.000 S 
ATOM     15  O   UNL     1       7.781   4.445  18.360  0.00  0.00    +0.000 OA
ATOM     16  O   UNL     1       6.199   6.324  17.798  0.00  0.00    +0.000 OA
BRANCH  14  17
ATOM     17  C   UNL     1       7.111   4.822  15.852  0.00  0.00    +0.000 C 
BRANCH  17  19
ATOM     18  C   UNL     1       5.513   4.276  13.997  0.00  0.00    +0.000 C 
ATOM     19  C   UNL     1       6.293   3.730  15.180  0.00  0.00    +0.000 C 
ENDBRANCH  17  19
ENDBRANCH  14  17
ENDBRANCH  13  14
ENDBRANCH  12  13
ENDBRANCH   1  12
TORSDOF 6
ENDMDL
MODEL 6
REMARK VINA RESULT:      -6.0      0.898      1.222
REMARK  Name = 
REMARK  7 active torsions:
REMARK  status: ('A' for Active; 'I' for Inactive)
REMARK    1  A    between atoms: C_1  and  C_2
REMARK    2  A    between atoms: C_2  and  C_3
REMARK    3  A    between atoms: C_3  and  S_4
REMARK    4  A    between atoms: S_4  and  C_7
REMARK    5  A    between atoms: C_7  and  C_8
REMARK    6  A    between atoms: C_8  and  N_9
REMARK    7  A    between atoms: C_13  and  C_14
REMARK                            x       y       z     vdW  Elec       q    Type
REMARK                         _______ _______ _______ _____ _____    ______ ____
ROOT
ATOM      1  N   UNL     1       3.731   2.241  19.639  0.00  0.00    +0.000 NA
ATOM      2  C   UNL     1       3.415   1.684  18.304  0.00  0.00    +0.000 C 
ATOM      3  C   UNL     1       2.332   2.418  17.487  0.00  0.00    +0.000 C 
ATOM      4  O   UNL     1       1.173   2.808  18.230  0.00  0.00    +0.000 OA
ATOM      5  C   UNL     1       1.478   3.486  19.463  0.00  0.00    +0.000 C 
ATOM      6  C   UNL     1       2.462   2.619  20.295  0.00  0.00    +0.000 C 
ENDROOT
BRANCH   5   7
ATOM      7  C   UNL     1       1.856   4.948  19.290  0.00  0.00    +0.000 A 
ATOM      8  C   UNL     1       1.924   5.935  20.337  0.00  0.00    +0.000 A 
ATOM      9  C   UNL     1       2.282   7.185  19.885  0.00  0.00    +0.000 A 
ATOM     10  S   UNL     1       2.615   7.185  18.214  0.00  0.00    +0.000 S 
ATOM     11  C   UNL     1       2.255   5.518  18.091  0.00  0.00    +0.000 A 
ENDBRANCH   5   7
BRANCH   1  12
ATOM     12  C   UNL     1       4.740   3.311  19.561  0.00  0.00    +0.000 C 
BRANCH  12  13
ATOM     13  C   UNL     1       5.313   3.549  18.165  0.00  0.00    +0.000 C 
BRANCH  13  14
ATOM     14  S   UNL     1       6.448   4.933  18.121  0.00  0.00    +0.000 S 
ATOM     15  O   UNL     1       7.784   4.384  18.124  0.00  0.00    +0.000 OA
ATOM     16  O   UNL     1       6.028   5.887  19.128  0.00  0.00    +0.000 OA
BRANCH  14  17
ATOM     17  C   UNL     1       6.168   5.683  16.518  0.00  0.00    +0.000 C 
BRANCH  17  19
ATOM     18  C   UNL     1       5.977   4.158  14.536  0.00  0.00    +0.000 C 
ATOM     19  C   UNL     1       6.925   4.943  15.427  0.00  0.00    +0.000 C 
ENDBRANCH  17  19
ENDBRANCH  14  17
ENDBRANCH  13  14
ENDBRANCH  12  13
ENDBRANCH   1  12
TORSDOF 6
ENDMDL
MODEL 7
REMARK VINA RESULT:      -5.9      3.624      5.276
REMARK  Name = 
REMARK  7 active torsions:
REMARK  status: ('A' for Active; 'I' for Inactive)
REMARK    1  A    between atoms: C_1  and  C_2
REMARK    2  A    between atoms: C_2  and  C_3
REMARK    3  A    between atoms: C_3  and  S_4
REMARK    4  A    between atoms: S_4  and  C_7
REMARK    5  A    between atoms: C_7  and  C_8
REMARK    6  A    between atoms: C_8  and  N_9
REMARK    7  A    between atoms: C_13  and  C_14
REMARK                            x       y       z     vdW  Elec       q    Type
REMARK                         _______ _______ _______ _____ _____    ______ ____
ROOT
ATOM      1  N   UNL     1       6.079   5.728  15.298  0.00  0.00    +0.000 NA
ATOM      2  C   UNL     1       7.323   5.257  15.948  0.00  0.00    +0.000 C 
ATOM      3  C   UNL     1       7.195   4.744  17.397  0.00  0.00    +0.000 C 
ATOM      4  O   UNL     1       6.374   5.545  18.252  0.00  0.00    +0.000 OA
ATOM      5  C   UNL     1       5.097   5.881  17.678  0.00  0.00    +0.000 C 
ATOM      6  C   UNL     1       5.315   6.523  16.281  0.00  0.00    +0.000 C 
ENDROOT
BRANCH   5   7
ATOM      7  C   UNL     1       4.071   4.761  17.747  0.00  0.00    +0.000 A 
ATOM      8  C   UNL     1       2.644   4.912  17.636  0.00  0.00    +0.000 A 
ATOM      9  C   UNL     1       1.959   3.723  17.750  0.00  0.00    +0.000 A 
ATOM     10  S   UNL     1       3.015   2.396  17.916  0.00  0.00    +0.000 S 
ATOM     11  C   UNL     1       4.386   3.415  17.864  0.00  0.00    +0.000 A 
ENDBRANCH   5   7
BRANCH   1  12
ATOM     12  C   UNL     1       5.334   4.621  14.673  0.00  0.00    +0.000 C 
BRANCH  12  13
ATOM     13  C   UNL     1       6.207   3.494  14.122  0.00  0.00    +0.000 C 
BRANCH  13  14
ATOM     14  S   UNL     1       6.192   3.433  12.333  0.00  0.00    +0.000 S 
ATOM     15  O   UNL     1       6.231   2.039  11.958  0.00  0.00    +0.000 OA
ATOM     16  O   UNL     1       7.185   4.369  11.846  0.00  0.00    +0.000 OA
BRANCH  14  17
ATOM     17  C   UNL     1       4.580   4.076  11.883  0.00  0.00    +0.000 C 
BRANCH  17  19
ATOM     18  C   UNL     1       3.103   3.861   9.868  0.00  0.00    +0.000 C 
ATOM     19  C   UNL     1       3.844   3.115  10.963  0.00  0.00    +0.000 C 
ENDBRANCH  17  19
ENDBRANCH  14  17
ENDBRANCH  13  14
ENDBRANCH  12  13
ENDBRANCH   1  12
TORSDOF 6
ENDMDL
MODEL 8
REMARK VINA RESULT:      -5.9      1.191      1.711
REMARK  Name = 
REMARK  7 active torsions:
REMARK  status: ('A' for Active; 'I' for Inactive)
REMARK    1  A    between atoms: C_1  and  C_2
REMARK    2  A    between atoms: C_2  and  C_3
REMARK    3  A    between atoms: C_3  and  S_4
REMARK    4  A    between atoms: S_4  and  C_7
REMARK    5  A    between atoms: C_7  and  C_8
REMARK    6  A    between atoms: C_8  and  N_9
REMARK    7  A    between atoms: C_13  and  C_14
REMARK                            x       y       z     vdW  Elec       q    Type
REMARK                         _______ _______ _______ _____ _____    ______ ____
ROOT
ATOM      1  N   UNL     1       3.797   2.579  18.975  0.00  0.00    +0.000 NA
ATOM      2  C   UNL     1       2.636   1.867  18.395  0.00  0.00    +0.000 C 
ATOM      3  C   UNL     1       1.261   2.547  18.551  0.00  0.00    +0.000 C 
ATOM      4  O   UNL     1       1.000   3.098  19.845  0.00  0.00    +0.000 OA
ATOM      5  C   UNL     1       2.073   3.917  20.350  0.00  0.00    +0.000 C 
ATOM      6  C   UNL     1       3.401   3.114  20.294  0.00  0.00    +0.000 C 
ENDROOT
BRANCH   5   7
ATOM      7  C   UNL     1       2.113   5.319  19.763  0.00  0.00    +0.000 A 
ATOM      8  C   UNL     1       2.246   5.649  18.368  0.00  0.00    +0.000 A 
ATOM      9  C   UNL     1       2.266   7.005  18.128  0.00  0.00    +0.000 A 
ATOM     10  S   UNL     1       2.051   7.906  19.560  0.00  0.00    +0.000 S 
ATOM     11  C   UNL     1       1.958   6.482  20.502  0.00  0.00    +0.000 A 
ENDBRANCH   5   7
BRANCH   1  12
ATOM     12  C   UNL     1       4.357   3.569  18.039  0.00  0.00    +0.000 C 
BRANCH  12  13
ATOM     13  C   UNL     1       5.618   4.275  18.535  0.00  0.00    +0.000 C 
BRANCH  13  14
ATOM     14  S   UNL     1       6.714   4.733  17.195  0.00  0.00    +0.000 S 
ATOM     15  O   UNL     1       6.107   4.259  15.973  0.00  0.00    +0.000 OA
ATOM     16  O   UNL     1       8.060   4.341  17.565  0.00  0.00    +0.000 OA
BRANCH  14  17
ATOM     17  C   UNL     1       6.661   6.524  17.174  0.00  0.00    +0.000 C 
BRANCH  17  19
ATOM     18  C   UNL     1       7.892   8.623  17.782  0.00  0.00    +0.000 C 
ATOM     19  C   UNL     1       7.823   7.115  17.956  0.00  0.00    +0.000 C 
ENDBRANCH  17  19
ENDBRANCH  14  17
ENDBRANCH  13  14
ENDBRANCH  12  13
ENDBRANCH   1  12
TORSDOF 6
ENDMDL
MODEL 9
REMARK VINA RESULT:      -5.9      2.807      4.380
REMARK  Name = 
REMARK  7 active torsions:
REMARK  status: ('A' for Active; 'I' for Inactive)
REMARK    1  A    between atoms: C_1  and  C_2
REMARK    2  A    between atoms: C_2  and  C_3
REMARK    3  A    between atoms: C_3  and  S_4
REMARK    4  A    between atoms: S_4  and  C_7
REMARK    5  A    between atoms: C_7  and  C_8
REMARK    6  A    between atoms: C_8  and  N_9
REMARK    7  A    between atoms: C_13  and  C_14
REMARK                            x       y       z     vdW  Elec       q    Type
REMARK                         _______ _______ _______ _____ _____    ______ ____
ROOT
ATOM      1  N   UNL     1       5.095   6.459  17.005  0.00  0.00    +0.000 NA
ATOM      2  C   UNL     1       6.440   6.282  17.596  0.00  0.00    +0.000 C 
ATOM      3  C   UNL     1       6.548   5.317  18.793  0.00  0.00    +0.000 C 
ATOM      4  O   UNL     1       5.510   5.444  19.770  0.00  0.00    +0.000 OA
ATOM      5  C   UNL     1       4.186   5.466  19.205  0.00  0.00    +0.000 C 
ATOM      6  C   UNL     1       4.114   6.560  18.105  0.00  0.00    +0.000 C 
ENDROOT
BRANCH   5   7
ATOM      7  C   UNL     1       3.652   4.095  18.821  0.00  0.00    +0.000 A 
ATOM      8  C   UNL     1       2.492   3.836  18.009  0.00  0.00    +0.000 A 
ATOM      9  C   UNL     1       2.236   2.494  17.836  0.00  0.00    +0.000 A 
ATOM     10  S   UNL     1       3.423   1.521  18.579  0.00  0.00    +0.000 S 
ATOM     11  C   UNL     1       4.262   2.895  19.154  0.00  0.00    +0.000 A 
ENDBRANCH   5   7
BRANCH   1  12
ATOM     12  C   UNL     1       4.799   5.427  15.996  0.00  0.00    +0.000 C 
BRANCH  12  13
ATOM     13  C   UNL     1       5.396   5.693  14.615  0.00  0.00    +0.000 C 
BRANCH  13  14
ATOM     14  S   UNL     1       6.761   4.598  14.240  0.00  0.00    +0.000 S 
ATOM     15  O   UNL     1       6.507   3.354  14.928  0.00  0.00    +0.000 OA
ATOM     16  O   UNL     1       7.993   5.332  14.449  0.00  0.00    +0.000 OA
BRANCH  14  17
ATOM     17  C   UNL     1       6.610   4.291  12.480  0.00  0.00    +0.000 C 
BRANCH  17  19
ATOM     18  C   UNL     1       4.525   3.251  11.551  0.00  0.00    +0.000 C 
ATOM     19  C   UNL     1       5.868   2.991  12.213  0.00  0.00    +0.000 C 
ENDBRANCH  17  19
ENDBRANCH  14  17
ENDBRANCH  13  14
ENDBRANCH  12  13
ENDBRANCH   1  12
TORSDOF 6
ENDMDL
