MODEL 1
REMARK VINA RESULT:      -8.5      0.000      0.000
REMARK  Name = 
REMARK  5 active torsions:
REMARK  status: ('A' for Active; 'I' for Inactive)
REMARK    1  A    between atoms: C_2  and  C_11
REMARK    2  A    between atoms: N_3  and  C_4
REMARK    3  A    between atoms: C_9  and  O_10
REMARK    4  A    between atoms: N_13  and  C_14
REMARK    5  A    between atoms: C_14  and  C_15
REMARK                            x       y       z     vdW  Elec       q    Type
REMARK                         _______ _______ _______ _____ _____    ______ ____
ROOT
ATOM      1  C   UNL     1       1.389   8.886  19.739  0.00  0.00    +0.000 A 
ATOM      2  C   UNL     1       1.077   9.857  18.801  0.00  0.00    +0.000 A 
ATOM      3  N   UNL     1       0.252  10.786  19.386  0.00  0.00    +0.000 N 
ATOM      4  C   UNL     1       0.080  10.483  20.720  0.00  0.00    +0.000 A 
ATOM      5  C   UNL     1      -0.636  11.103  21.748  0.00  0.00    +0.000 A 
ATOM      6  C   UNL     1      -0.580  10.496  22.999  0.00  0.00    +0.000 A 
ATOM      7  C   UNL     1       0.155   9.331  23.149  0.00  0.00    +0.000 A 
ATOM      8  N   UNL     1       0.843   8.699  22.174  0.00  0.00    +0.000 NA
ATOM      9  C   UNL     1       0.794   9.307  20.958  0.00  0.00    +0.000 A 
ENDROOT
BRANCH   1  11
ATOM     10  O   UNL     1       2.976   7.638  18.543  0.00  0.00    +0.000 OA
ATOM     11  C   UNL     1       2.146   7.679  19.450  0.00  0.00    +0.000 C 
ATOM     12  N   UNL     1       1.820   6.585  20.207  0.00  0.00    +0.000 N 
ATOM     13  H   UNL     1       1.176   6.760  20.978  0.00  0.00    +0.000 HD
BRANCH  12  14
ATOM     14  C   UNL     1       2.403   5.239  20.068  0.00  0.00    +0.000 C 
ATOM     15  C   UNL     1       2.144   4.483  21.384  0.00  0.00    +0.000 C 
ATOM     16  C   UNL     1       2.510   3.007  21.322  0.00  0.00    +0.000 C 
ATOM     17  C   UNL     1       1.769   2.317  20.188  0.00  0.00    +0.000 C 
ATOM     18  C   UNL     1       2.124   2.964  18.864  0.00  0.00    +0.000 C 
ATOM     19  C   UNL     1       1.849   4.469  18.830  0.00  0.00    +0.000 C 
BRANCH  19  20
ATOM     20  O   UNL     1       2.443   4.919  17.609  0.00  0.00    +0.000 OA
ATOM     21  H   UNL     1       1.779   5.465  17.136  0.00  0.00    +0.000 HD
ENDBRANCH  19  20
ENDBRANCH  12  14
ENDBRANCH   1  11
BRANCH   3  22
ATOM     22  C   UNL     1      -0.406  11.863  18.656  0.00  0.00    +0.000 C 
BRANCH  22  23
ATOM     23  C   UNL     1      -1.877  11.596  18.494  0.00  0.00    +0.000 A 
ATOM     24  C   UNL     1      -2.317  10.625  17.592  0.00  0.00    +0.000 A 
ATOM     25  C   UNL     1      -3.678  10.360  17.443  0.00  0.00    +0.000 A 
ATOM     26  C   UNL     1      -4.640  11.051  18.158  0.00  0.00    +0.000 A 
ATOM     27  N   UNL     1      -5.933  10.791  17.927  0.00  0.00    +0.000 NA
ATOM     28  C   UNL     1      -6.853  11.472  18.640  0.00  0.00    +0.000 A 
ATOM     29  C   UNL     1      -6.535  12.390  19.625  0.00  0.00    +0.000 A 
ATOM     30  C   UNL     1      -5.193  12.659  19.858  0.00  0.00    +0.000 A 
ATOM     31  C   UNL     1      -4.208  12.008  19.106  0.00  0.00    +0.000 A 
ATOM     32  C   UNL     1      -2.831  12.281  19.258  0.00  0.00    +0.000 A 
ENDBRANCH  22  23
ENDBRANCH   3  22
TORSDOF 5
ENDMDL
MODEL 2
REMARK VINA RESULT:      -8.3      4.255      9.825
REMARK  Name = 
REMARK  5 active torsions:
REMARK  status: ('A' for Active; 'I' for Inactive)
REMARK    1  A    between atoms: C_2  and  C_11
REMARK    2  A    between atoms: N_3  and  C_4
REMARK    3  A    between atoms: C_9  and  O_10
REMARK    4  A    between atoms: N_13  and  C_14
REMARK    5  A    between atoms: C_14  and  C_15
REMARK                            x       y       z     vdW  Elec       q    Type
REMARK                         _______ _______ _______ _____ _____    ______ ____
ROOT
ATOM      1  C   UNL     1       2.690   5.869  18.616  0.00  0.00    +0.000 A 
ATOM      2  C   UNL     1       3.425   5.225  17.634  0.00  0.00    +0.000 A 
ATOM      3  N   UNL     1       3.487   3.888  17.936  0.00  0.00    +0.000 N 
ATOM      4  C   UNL     1       2.735   3.627  19.061  0.00  0.00    +0.000 A 
ATOM      5  C   UNL     1       2.457   2.452  19.765  0.00  0.00    +0.000 A 
ATOM      6  C   UNL     1       1.640   2.575  20.884  0.00  0.00    +0.000 A 
ATOM      7  C   UNL     1       1.170   3.829  21.239  0.00  0.00    +0.000 A 
ATOM      8  N   UNL     1       1.433   4.985  20.591  0.00  0.00    +0.000 NA
ATOM      9  C   UNL     1       2.221   4.852  19.490  0.00  0.00    +0.000 A 
ENDROOT
BRANCH   1  11
ATOM     10  O   UNL     1       3.075   8.075  17.917  0.00  0.00    +0.000 OA
ATOM     11  C   UNL     1       2.511   7.310  18.697  0.00  0.00    +0.000 C 
ATOM     12  N   UNL     1       1.734   7.748  19.736  0.00  0.00    +0.000 N 
ATOM     13  H   UNL     1       1.257   7.020  20.266  0.00  0.00    +0.000 HD
BRANCH  12  14
ATOM     14  C   UNL     1       1.450   9.158  20.061  0.00  0.00    +0.000 C 
ATOM     15  C   UNL     1       0.509   9.703  18.972  0.00  0.00    +0.000 C 
ATOM     16  C   UNL     1      -0.038  11.091  19.277  0.00  0.00    +0.000 C 
ATOM     17  C   UNL     1      -0.755  11.102  20.617  0.00  0.00    +0.000 C 
ATOM     18  C   UNL     1       0.200  10.700  21.723  0.00  0.00    +0.000 C 
ATOM     19  C   UNL     1       0.857   9.337  21.492  0.00  0.00    +0.000 C 
BRANCH  19  20
ATOM     20  O   UNL     1       1.864   9.243  22.505  0.00  0.00    +0.000 OA
ATOM     21  H   UNL     1       1.830  10.067  23.038  0.00  0.00    +0.000 HD
ENDBRANCH  19  20
ENDBRANCH  12  14
ENDBRANCH   1  11
BRANCH   3  22
ATOM     22  C   UNL     1       4.313   2.929  17.211  0.00  0.00    +0.000 C 
BRANCH  22  23
ATOM     23  C   UNL     1       5.298   3.624  16.311  0.00  0.00    +0.000 A 
ATOM     24  C   UNL     1       6.228   4.515  16.849  0.00  0.00    +0.000 A 
ATOM     25  C   UNL     1       7.155   5.156  16.025  0.00  0.00    +0.000 A 
ATOM     26  C   UNL     1       7.178   4.954  14.657  0.00  0.00    +0.000 A 
ATOM     27  N   UNL     1       8.054   5.643  13.914  0.00  0.00    +0.000 NA
ATOM     28  C   UNL     1       8.064   5.426  12.583  0.00  0.00    +0.000 A 
ATOM     29  C   UNL     1       7.252   4.502  11.950  0.00  0.00    +0.000 A 
ATOM     30  C   UNL     1       6.344   3.792  12.724  0.00  0.00    +0.000 A 
ATOM     31  C   UNL     1       6.270   4.023  14.103  0.00  0.00    +0.000 A 
ATOM     32  C   UNL     1       5.329   3.374  14.932  0.00  0.00    +0.000 A 
ENDBRANCH  22  23
ENDBRANCH   3  22
TORSDOF 5
ENDMDL
MODEL 3
REMARK VINA RESULT:      -8.3      1.119      1.252
REMARK  Name = 
REMARK  5 active torsions:
REMARK  status: ('A' for Active; 'I' for Inactive)
REMARK    1  A    between atoms: C_2  and  C_11
REMARK    2  A    between atoms: N_3  and  C_4
REMARK    3  A    between atoms: C_9  and  O_10
REMARK    4  A    between atoms: N_13  and  C_14
REMARK    5  A    between atoms: C_14  and  C_15
REMARK                            x       y       z     vdW  Elec       q    Type
REMARK                         _______ _______ _______ _____ _____    ______ ____
ROOT
ATOM      1  C   UNL     1       1.554   9.157  18.827  0.00  0.00    +0.000 A 
ATOM      2  C   UNL     1       1.120  10.292  18.162  0.00  0.00    +0.000 A 
ATOM      3  N   UNL     1       0.309  11.013  19.003  0.00  0.00    +0.000 N 
ATOM      4  C   UNL     1       0.267  10.410  20.242  0.00  0.00    +0.000 A 
ATOM      5  C   UNL     1      -0.383  10.738  21.435  0.00  0.00    +0.000 A 
ATOM      6  C   UNL     1      -0.192   9.871  22.507  0.00  0.00    +0.000 A 
ATOM      7  C   UNL     1       0.603   8.750  22.332  0.00  0.00    +0.000 A 
ATOM      8  N   UNL     1       1.230   8.396  21.190  0.00  0.00    +0.000 NA
ATOM      9  C   UNL     1       1.049   9.257  20.152  0.00  0.00    +0.000 A 
ENDROOT
BRANCH   1  11
ATOM     10  O   UNL     1       2.904   8.250  17.137  0.00  0.00    +0.000 OA
ATOM     11  C   UNL     1       2.334   8.093  18.215  0.00  0.00    +0.000 C 
ATOM     12  N   UNL     1       2.328   6.899  18.886  0.00  0.00    +0.000 N 
ATOM     13  H   UNL     1       1.889   6.913  19.805  0.00  0.00    +0.000 HD
BRANCH  12  14
ATOM     14  C   UNL     1       2.995   5.662  18.441  0.00  0.00    +0.000 C 
ATOM     15  C   UNL     1       4.249   5.472  19.315  0.00  0.00    +0.000 C 
ATOM     16  C   UNL     1       4.936   4.129  19.113  0.00  0.00    +0.000 C 
ATOM     17  C   UNL     1       3.965   2.986  19.365  0.00  0.00    +0.000 C 
ATOM     18  C   UNL     1       2.789   3.081  18.414  0.00  0.00    +0.000 C 
ATOM     19  C   UNL     1       2.052   4.420  18.491  0.00  0.00    +0.000 C 
BRANCH  19  20
ATOM     20  O   UNL     1       1.140   4.397  17.388  0.00  0.00    +0.000 OA
ATOM     21  H   UNL     1       0.237   4.271  17.750  0.00  0.00    +0.000 HD
ENDBRANCH  19  20
ENDBRANCH  12  14
ENDBRANCH   1  11
BRANCH   3  22
ATOM     22  C   UNL     1      -0.456  12.183  18.589  0.00  0.00    +0.000 C 
BRANCH  22  23
ATOM     23  C   UNL     1      -1.917  11.858  18.439  0.00  0.00    +0.000 A 
ATOM     24  C   UNL     1      -2.348  11.048  17.387  0.00  0.00    +0.000 A 
ATOM     25  C   UNL     1      -3.699  10.728  17.245  0.00  0.00    +0.000 A 
ATOM     26  C   UNL     1      -4.659  11.210  18.118  0.00  0.00    +0.000 A 
ATOM     27  N   UNL     1      -5.946  10.916  17.894  0.00  0.00    +0.000 NA
ATOM     28  C   UNL     1      -6.864  11.390  18.760  0.00  0.00    +0.000 A 
ATOM     29  C   UNL     1      -6.547  12.126  19.888  0.00  0.00    +0.000 A 
ATOM     30  C   UNL     1      -5.211  12.432  20.114  0.00  0.00    +0.000 A 
ATOM     31  C   UNL     1      -4.232  11.998  19.212  0.00  0.00    +0.000 A 
ATOM     32  C   UNL     1      -2.866  12.325  19.358  0.00  0.00    +0.000 A 
ENDBRANCH  22  23
ENDBRANCH   3  22
TORSDOF 5
ENDMDL
MODEL 4
REMARK VINA RESULT:      -8.1      4.317      9.769
REMARK  Name = 
REMARK  5 active torsions:
REMARK  status: ('A' for Active; 'I' for Inactive)
REMARK    1  A    between atoms: C_2  and  C_11
REMARK    2  A    between atoms: N_3  and  C_4
REMARK    3  A    between atoms: C_9  and  O_10
REMARK    4  A    between atoms: N_13  and  C_14
REMARK    5  A    between atoms: C_14  and  C_15
REMARK                            x       y       z     vdW  Elec       q    Type
REMARK                         _______ _______ _______ _____ _____    ______ ____
ROOT
ATOM      1  C   UNL     1       2.899   6.619  18.574  0.00  0.00    +0.000 A 
ATOM      2  C   UNL     1       4.102   6.185  18.040  0.00  0.00    +0.000 A 
ATOM      3  N   UNL     1       4.363   4.923  18.512  0.00  0.00    +0.000 N 
ATOM      4  C   UNL     1       3.309   4.485  19.285  0.00  0.00    +0.000 A 
ATOM      5  C   UNL     1       3.068   3.292  19.972  0.00  0.00    +0.000 A 
ATOM      6  C   UNL     1       1.865   3.206  20.666  0.00  0.00    +0.000 A 
ATOM      7  C   UNL     1       0.999   4.287  20.648  0.00  0.00    +0.000 A 
ATOM      8  N   UNL     1       1.210   5.458  20.010  0.00  0.00    +0.000 NA
ATOM      9  C   UNL     1       2.381   5.528  19.323  0.00  0.00    +0.000 A 
ENDROOT
BRANCH   1  11
ATOM     10  O   UNL     1       2.591   8.618  17.385  0.00  0.00    +0.000 OA
ATOM     11  C   UNL     1       2.355   7.955  18.394  0.00  0.00    +0.000 C 
ATOM     12  N   UNL     1       1.628   8.441  19.448  0.00  0.00    +0.000 N 
ATOM     13  H   UNL     1       1.434   7.772  20.193  0.00  0.00    +0.000 HD
BRANCH  12  14
ATOM     14  C   UNL     1       1.023   9.783  19.529  0.00  0.00    +0.000 C 
ATOM     15  C   UNL     1       0.048   9.923  18.346  0.00  0.00    +0.000 C 
ATOM     16  C   UNL     1      -0.807  11.181  18.405  0.00  0.00    +0.000 C 
ATOM     17  C   UNL     1      -1.584  11.240  19.710  0.00  0.00    +0.000 C 
ATOM     18  C   UNL     1      -0.628  11.243  20.887  0.00  0.00    +0.000 C 
ATOM     19  C   UNL     1       0.325  10.046  20.899  0.00  0.00    +0.000 C 
BRANCH  19  20
ATOM     20  O   UNL     1       1.269  10.343  21.933  0.00  0.00    +0.000 OA
ATOM     21  H   UNL     1       0.865  10.084  22.789  0.00  0.00    +0.000 HD
ENDBRANCH  19  20
ENDBRANCH  12  14
ENDBRANCH   1  11
BRANCH   3  22
ATOM     22  C   UNL     1       5.619   4.216  18.289  0.00  0.00    +0.000 C 
BRANCH  22  23
ATOM     23  C   UNL     1       6.150   4.466  16.904  0.00  0.00    +0.000 A 
ATOM     24  C   UNL     1       7.163   5.405  16.702  0.00  0.00    +0.000 A 
ATOM     25  C   UNL     1       7.672   5.636  15.424  0.00  0.00    +0.000 A 
ATOM     26  C   UNL     1       7.188   4.968  14.313  0.00  0.00    +0.000 A 
ATOM     27  N   UNL     1       7.678   5.277  13.106  0.00  0.00    +0.000 NA
ATOM     28  C   UNL     1       7.196   4.610  12.037  0.00  0.00    +0.000 A 
ATOM     29  C   UNL     1       6.259   3.596  12.125  0.00  0.00    +0.000 A 
ATOM     30  C   UNL     1       5.752   3.282  13.379  0.00  0.00    +0.000 A 
ATOM     31  C   UNL     1       6.191   3.985  14.507  0.00  0.00    +0.000 A 
ATOM     32  C   UNL     1       5.672   3.749  15.799  0.00  0.00    +0.000 A 
ENDBRANCH  22  23
ENDBRANCH   3  22
TORSDOF 5
ENDMDL
MODEL 5
REMARK VINA RESULT:      -8.1      1.259      1.665
REMARK  Name = 
REMARK  5 active torsions:
REMARK  status: ('A' for Active; 'I' for Inactive)
REMARK    1  A    between atoms: C_2  and  C_11
REMARK    2  A    between atoms: N_3  and  C_4
REMARK    3  A    between atoms: C_9  and  O_10
REMARK    4  A    between atoms: N_13  and  C_14
REMARK    5  A    between atoms: C_14  and  C_15
REMARK                            x       y       z     vdW  Elec       q    Type
REMARK                         _______ _______ _______ _____ _____    ______ ____
ROOT
ATOM      1  C   UNL     1       1.547   8.963  19.107  0.00  0.00    +0.000 A 
ATOM      2  C   UNL     1       1.141  10.022  18.311  0.00  0.00    +0.000 A 
ATOM      3  N   UNL     1       0.350  10.858  19.059  0.00  0.00    +0.000 N 
ATOM      4  C   UNL     1       0.294  10.407  20.361  0.00  0.00    +0.000 A 
ATOM      5  C   UNL     1      -0.347  10.890  21.505  0.00  0.00    +0.000 A 
ATOM      6  C   UNL     1      -0.177  10.152  22.672  0.00  0.00    +0.000 A 
ATOM      7  C   UNL     1       0.590   8.999  22.633  0.00  0.00    +0.000 A 
ATOM      8  N   UNL     1       1.208   8.497  21.542  0.00  0.00    +0.000 NA
ATOM      9  C   UNL     1       1.047   9.232  20.410  0.00  0.00    +0.000 A 
ENDROOT
BRANCH   1  11
ATOM     10  O   UNL     1       2.974   7.870  17.599  0.00  0.00    +0.000 OA
ATOM     11  C   UNL     1       2.301   7.816  18.627  0.00  0.00    +0.000 C 
ATOM     12  N   UNL     1       2.150   6.667  19.356  0.00  0.00    +0.000 N 
ATOM     13  H   UNL     1       1.632   6.764  20.229  0.00  0.00    +0.000 HD
BRANCH  12  14
ATOM     14  C   UNL     1       2.762   5.364  19.041  0.00  0.00    +0.000 C 
ATOM     15  C   UNL     1       1.950   4.735  17.894  0.00  0.00    +0.000 C 
ATOM     16  C   UNL     1       2.580   3.475  17.318  0.00  0.00    +0.000 C 
ATOM     17  C   UNL     1       3.997   3.754  16.841  0.00  0.00    +0.000 C 
ATOM     18  C   UNL     1       4.849   4.243  17.996  0.00  0.00    +0.000 C 
ATOM     19  C   UNL     1       4.277   5.481  18.691  0.00  0.00    +0.000 C 
BRANCH  19  20
ATOM     20  O   UNL     1       5.086   5.646  19.861  0.00  0.00    +0.000 OA
ATOM     21  H   UNL     1       4.485   5.833  20.615  0.00  0.00    +0.000 HD
ENDBRANCH  19  20
ENDBRANCH  12  14
ENDBRANCH   1  11
BRANCH   3  22
ATOM     22  C   UNL     1      -0.386  11.990  18.508  0.00  0.00    +0.000 C 
BRANCH  22  23
ATOM     23  C   UNL     1      -1.854  11.683  18.388  0.00  0.00    +0.000 A 
ATOM     24  C   UNL     1      -2.301  10.763  17.437  0.00  0.00    +0.000 A 
ATOM     25  C   UNL     1      -3.658  10.461  17.326  0.00  0.00    +0.000 A 
ATOM     26  C   UNL     1      -4.610  11.065  18.129  0.00  0.00    +0.000 A 
ATOM     27  N   UNL     1      -5.902  10.776  17.933  0.00  0.00    +0.000 NA
ATOM     28  C   UNL     1      -6.812  11.372  18.731  0.00  0.00    +0.000 A 
ATOM     29  C   UNL     1      -6.481  12.229  19.765  0.00  0.00    +0.000 A 
ATOM     30  C   UNL     1      -5.140  12.529  19.962  0.00  0.00    +0.000 A 
ATOM     31  C   UNL     1      -4.168  11.967  19.124  0.00  0.00    +0.000 A 
ATOM     32  C   UNL     1      -2.795  12.278  19.239  0.00  0.00    +0.000 A 
ENDBRANCH  22  23
ENDBRANCH   3  22
TORSDOF 5
ENDMDL
MODEL 6
REMARK VINA RESULT:      -8.0      2.692      4.788
REMARK  Name = 
REMARK  5 active torsions:
REMARK  status: ('A' for Active; 'I' for Inactive)
REMARK    1  A    between atoms: C_2  and  C_11
REMARK    2  A    between atoms: N_3  and  C_4
REMARK    3  A    between atoms: C_9  and  O_10
REMARK    4  A    between atoms: N_13  and  C_14
REMARK    5  A    between atoms: C_14  and  C_15
REMARK                            x       y       z     vdW  Elec       q    Type
REMARK                         _______ _______ _______ _____ _____    ______ ____
ROOT
ATOM      1  C   UNL     1       1.444   8.816  19.581  0.00  0.00    +0.000 A 
ATOM      2  C   UNL     1       1.142   9.770  18.623  0.00  0.00    +0.000 A 
ATOM      3  N   UNL     1       0.339  10.728  19.193  0.00  0.00    +0.000 N 
ATOM      4  C   UNL     1       0.174  10.461  20.535  0.00  0.00    +0.000 A 
ATOM      5  C   UNL     1      -0.521  11.118  21.554  0.00  0.00    +0.000 A 
ATOM      6  C   UNL     1      -0.465  10.540  22.818  0.00  0.00    +0.000 A 
ATOM      7  C   UNL     1       0.249   9.366  22.990  0.00  0.00    +0.000 A 
ATOM      8  N   UNL     1       0.917   8.698  22.025  0.00  0.00    +0.000 NA
ATOM      9  C   UNL     1       0.868   9.278  20.796  0.00  0.00    +0.000 A 
ENDROOT
BRANCH   1  11
ATOM     10  O   UNL     1       2.999   7.511  18.406  0.00  0.00    +0.000 OA
ATOM     11  C   UNL     1       2.175   7.587  19.316  0.00  0.00    +0.000 C 
ATOM     12  N   UNL     1       1.831   6.517  20.098  0.00  0.00    +0.000 N 
ATOM     13  H   UNL     1       1.196   6.722  20.868  0.00  0.00    +0.000 HD
BRANCH  12  14
ATOM     14  C   UNL     1       2.388   5.157  19.985  0.00  0.00    +0.000 C 
ATOM     15  C   UNL     1       2.168   4.454  21.337  0.00  0.00    +0.000 C 
ATOM     16  C   UNL     1       2.508   2.970  21.316  0.00  0.00    +0.000 C 
ATOM     17  C   UNL     1       1.712   2.253  20.237  0.00  0.00    +0.000 C 
ATOM     18  C   UNL     1       2.025   2.845  18.877  0.00  0.00    +0.000 C 
ATOM     19  C   UNL     1       1.772   4.353  18.799  0.00  0.00    +0.000 C 
BRANCH  19  20
ATOM     20  O   UNL     1       2.326   4.749  17.540  0.00  0.00    +0.000 OA
ATOM     21  H   UNL     1       1.623   5.215  17.038  0.00  0.00    +0.000 HD
ENDBRANCH  19  20
ENDBRANCH  12  14
ENDBRANCH   1  11
BRANCH   3  22
ATOM     22  C   UNL     1      -0.305  11.799  18.442  0.00  0.00    +0.000 C 
BRANCH  22  23
ATOM     23  C   UNL     1       0.472  13.083  18.545  0.00  0.00    +0.000 A 
ATOM     24  C   UNL     1      -0.172  14.263  18.922  0.00  0.00    +0.000 A 
ATOM     25  C   UNL     1       0.541  15.456  19.034  0.00  0.00    +0.000 A 
ATOM     26  C   UNL     1       1.895  15.527  18.760  0.00  0.00    +0.000 A 
ATOM     27  N   UNL     1       2.511  16.714  18.828  0.00  0.00    +0.000 NA
ATOM     28  C   UNL     1       3.833  16.759  18.564  0.00  0.00    +0.000 A 
ATOM     29  C   UNL     1       4.594  15.642  18.269  0.00  0.00    +0.000 A 
ATOM     30  C   UNL     1       3.951  14.413  18.196  0.00  0.00    +0.000 A 
ATOM     31  C   UNL     1       2.570  14.333  18.417  0.00  0.00    +0.000 A 
ATOM     32  C   UNL     1       1.852  13.122  18.301  0.00  0.00    +0.000 A 
ENDBRANCH  22  23
ENDBRANCH   3  22
TORSDOF 5
ENDMDL
MODEL 7
REMARK VINA RESULT:      -7.9      2.481      8.365
REMARK  Name = 
REMARK  5 active torsions:
REMARK  status: ('A' for Active; 'I' for Inactive)
REMARK    1  A    between atoms: C_2  and  C_11
REMARK    2  A    between atoms: N_3  and  C_4
REMARK    3  A    between atoms: C_9  and  O_10
REMARK    4  A    between atoms: N_13  and  C_14
REMARK    5  A    between atoms: C_14  and  C_15
REMARK                            x       y       z     vdW  Elec       q    Type
REMARK                         _______ _______ _______ _____ _____    ______ ____
ROOT
ATOM      1  C   UNL     1      -0.715  10.405  19.042  0.00  0.00    +0.000 A 
ATOM      2  C   UNL     1       0.245   9.705  18.330  0.00  0.00    +0.000 A 
ATOM      3  N   UNL     1       1.134   9.150  19.218  0.00  0.00    +0.000 N 
ATOM      4  C   UNL     1       0.728   9.408  20.509  0.00  0.00    +0.000 A 
ATOM      5  C   UNL     1       1.256   9.064  21.756  0.00  0.00    +0.000 A 
ATOM      6  C   UNL     1       0.559   9.514  22.873  0.00  0.00    +0.000 A 
ATOM      7  C   UNL     1      -0.586  10.273  22.691  0.00  0.00    +0.000 A 
ATOM      8  N   UNL     1      -1.112  10.637  21.502  0.00  0.00    +0.000 NA
ATOM      9  C   UNL     1      -0.432  10.180  20.417  0.00  0.00    +0.000 A 
ENDROOT
BRANCH   1  11
ATOM     10  O   UNL     1      -1.526  11.937  17.461  0.00  0.00    +0.000 OA
ATOM     11  C   UNL     1      -1.753  11.223  18.436  0.00  0.00    +0.000 C 
ATOM     12  N   UNL     1      -2.969  11.191  19.066  0.00  0.00    +0.000 N 
ATOM     13  H   UNL     1      -3.059  10.504  19.813  0.00  0.00    +0.000 HD
BRANCH  12  14
ATOM     14  C   UNL     1      -4.158  11.972  18.678  0.00  0.00    +0.000 C 
ATOM     15  C   UNL     1      -5.183  10.988  18.083  0.00  0.00    +0.000 C 
ATOM     16  C   UNL     1      -6.546  11.613  17.820  0.00  0.00    +0.000 C 
ATOM     17  C   UNL     1      -7.111  12.225  19.092  0.00  0.00    +0.000 C 
ATOM     18  C   UNL     1      -6.175  13.297  19.615  0.00  0.00    +0.000 C 
ATOM     19  C   UNL     1      -4.752  12.792  19.864  0.00  0.00    +0.000 C 
BRANCH  19  20
ATOM     20  O   UNL     1      -3.989  13.973  20.132  0.00  0.00    +0.000 OA
ATOM     21  H   UNL     1      -3.559  14.248  19.294  0.00  0.00    +0.000 HD
ENDBRANCH  19  20
ENDBRANCH  12  14
ENDBRANCH   1  11
BRANCH   3  22
ATOM     22  C   UNL     1       2.366   8.478  18.821  0.00  0.00    +0.000 C 
BRANCH  22  23
ATOM     23  C   UNL     1       2.226   6.983  18.906  0.00  0.00    +0.000 A 
ATOM     24  C   UNL     1       2.119   6.223  17.741  0.00  0.00    +0.000 A 
ATOM     25  C   UNL     1       2.002   4.834  17.808  0.00  0.00    +0.000 A 
ATOM     26  C   UNL     1       1.968   4.161  19.016  0.00  0.00    +0.000 A 
ATOM     27  N   UNL     1       1.795   2.833  19.015  0.00  0.00    +0.000 NA
ATOM     28  C   UNL     1       1.771   2.197  20.204  0.00  0.00    +0.000 A 
ATOM     29  C   UNL     1       1.958   2.833  21.419  0.00  0.00    +0.000 A 
ATOM     30  C   UNL     1       2.134   4.210  21.415  0.00  0.00    +0.000 A 
ATOM     31  C   UNL     1       2.117   4.914  20.204  0.00  0.00    +0.000 A 
ATOM     32  C   UNL     1       2.234   6.320  20.141  0.00  0.00    +0.000 A 
ENDBRANCH  22  23
ENDBRANCH   3  22
TORSDOF 5
ENDMDL
MODEL 8
REMARK VINA RESULT:      -7.8      4.375      9.695
REMARK  Name = 
REMARK  5 active torsions:
REMARK  status: ('A' for Active; 'I' for Inactive)
REMARK    1  A    between atoms: C_2  and  C_11
REMARK    2  A    between atoms: N_3  and  C_4
REMARK    3  A    between atoms: C_9  and  O_10
REMARK    4  A    between atoms: N_13  and  C_14
REMARK    5  A    between atoms: C_14  and  C_15
REMARK                            x       y       z     vdW  Elec       q    Type
REMARK                         _______ _______ _______ _____ _____    ______ ____
ROOT
ATOM      1  C   UNL     1       2.809   7.294  18.503  0.00  0.00    +0.000 A 
ATOM      2  C   UNL     1       4.017   7.043  17.872  0.00  0.00    +0.000 A 
ATOM      3  N   UNL     1       4.544   5.879  18.375  0.00  0.00    +0.000 N 
ATOM      4  C   UNL     1       3.661   5.316  19.271  0.00  0.00    +0.000 A 
ATOM      5  C   UNL     1       3.703   4.147  20.036  0.00  0.00    +0.000 A 
ATOM      6  C   UNL     1       2.605   3.897  20.852  0.00  0.00    +0.000 A 
ATOM      7  C   UNL     1       1.560   4.807  20.871  0.00  0.00    +0.000 A 
ATOM      8  N   UNL     1       1.496   5.952  20.158  0.00  0.00    +0.000 NA
ATOM      9  C   UNL     1       2.568   6.180  19.353  0.00  0.00    +0.000 A 
ENDROOT
BRANCH   1  11
ATOM     10  O   UNL     1       1.976   9.081  17.233  0.00  0.00    +0.000 OA
ATOM     11  C   UNL     1       2.019   8.499  18.315  0.00  0.00    +0.000 C 
ATOM     12  N   UNL     1       1.390   8.971  19.437  0.00  0.00    +0.000 N 
ATOM     13  H   UNL     1       1.434   8.363  20.254  0.00  0.00    +0.000 HD
BRANCH  12  14
ATOM     14  C   UNL     1       0.581  10.200  19.515  0.00  0.00    +0.000 C 
ATOM     15  C   UNL     1      -0.253  10.124  20.807  0.00  0.00    +0.000 C 
ATOM     16  C   UNL     1      -0.993  11.414  21.134  0.00  0.00    +0.000 C 
ATOM     17  C   UNL     1      -0.022  12.581  21.225  0.00  0.00    +0.000 C 
ATOM     18  C   UNL     1       0.709  12.756  19.909  0.00  0.00    +0.000 C 
ATOM     19  C   UNL     1       1.447  11.496  19.451  0.00  0.00    +0.000 C 
BRANCH  19  20
ATOM     20  O   UNL     1       1.873  11.789  18.117  0.00  0.00    +0.000 OA
ATOM     21  H   UNL     1       2.763  12.200  18.171  0.00  0.00    +0.000 HD
ENDBRANCH  19  20
ENDBRANCH  12  14
ENDBRANCH   1  11
BRANCH   3  22
ATOM     22  C   UNL     1       5.881   5.390  18.060  0.00  0.00    +0.000 C 
BRANCH  22  23
ATOM     23  C   UNL     1       5.961   4.888  16.644  0.00  0.00    +0.000 A 
ATOM     24  C   UNL     1       5.107   3.872  16.213  0.00  0.00    +0.000 A 
ATOM     25  C   UNL     1       5.164   3.407  14.898  0.00  0.00    +0.000 A 
ATOM     26  C   UNL     1       6.070   3.914  13.983  0.00  0.00    +0.000 A 
ATOM     27  N   UNL     1       6.114   3.385  12.753  0.00  0.00    +0.000 NA
ATOM     28  C   UNL     1       7.000   3.898  11.875  0.00  0.00    +0.000 A 
ATOM     29  C   UNL     1       7.832   4.966  12.160  0.00  0.00    +0.000 A 
ATOM     30  C   UNL     1       7.785   5.508  13.438  0.00  0.00    +0.000 A 
ATOM     31  C   UNL     1       6.912   4.972  14.393  0.00  0.00    +0.000 A 
ATOM     32  C   UNL     1       6.860   5.444  15.723  0.00  0.00    +0.000 A 
ENDBRANCH  22  23
ENDBRANCH   3  22
TORSDOF 5
ENDMDL
MODEL 9
REMARK VINA RESULT:      -7.8      2.643      4.141
REMARK  Name = 
REMARK  5 active torsions:
REMARK  status: ('A' for Active; 'I' for Inactive)
REMARK    1  A    between atoms: C_2  and  C_11
REMARK    2  A    between atoms: N_3  and  C_4
REMARK    3  A    between atoms: C_9  and  O_10
REMARK    4  A    between atoms: N_13  and  C_14
REMARK    5  A    between atoms: C_14  and  C_15
REMARK                            x       y       z     vdW  Elec       q    Type
REMARK                         _______ _______ _______ _____ _____    ______ ____
ROOT
ATOM      1  C   UNL     1       1.434   8.813  19.557  0.00  0.00    +0.000 A 
ATOM      2  C   UNL     1       1.097   9.737  18.582  0.00  0.00    +0.000 A 
ATOM      3  N   UNL     1       0.274  10.684  19.138  0.00  0.00    +0.000 N 
ATOM      4  C   UNL     1       0.127  10.442  20.487  0.00  0.00    +0.000 A 
ATOM      5  C   UNL     1      -0.577  11.101  21.499  0.00  0.00    +0.000 A 
ATOM      6  C   UNL     1      -0.494  10.552  22.774  0.00  0.00    +0.000 A 
ATOM      7  C   UNL     1       0.254   9.402  22.965  0.00  0.00    +0.000 A 
ATOM      8  N   UNL     1       0.932   8.732  22.007  0.00  0.00    +0.000 NA
ATOM      9  C   UNL     1       0.856   9.284  20.767  0.00  0.00    +0.000 A 
ENDROOT
BRANCH   1  11
ATOM     10  O   UNL     1       3.054   7.544  18.430  0.00  0.00    +0.000 OA
ATOM     11  C   UNL     1       2.198   7.600  19.311  0.00  0.00    +0.000 C 
ATOM     12  N   UNL     1       1.847   6.519  20.076  0.00  0.00    +0.000 N 
ATOM     13  H   UNL     1       1.181   6.707  20.824  0.00  0.00    +0.000 HD
BRANCH  12  14
ATOM     14  C   UNL     1       2.432   5.170  19.975  0.00  0.00    +0.000 C 
ATOM     15  C   UNL     1       2.122   4.432  21.291  0.00  0.00    +0.000 C 
ATOM     16  C   UNL     1       2.487   2.954  21.262  0.00  0.00    +0.000 C 
ATOM     17  C   UNL     1       1.787   2.251  20.110  0.00  0.00    +0.000 C 
ATOM     18  C   UNL     1       2.192   2.880  18.791  0.00  0.00    +0.000 C 
ATOM     19  C   UNL     1       1.922   4.385  18.728  0.00  0.00    +0.000 C 
BRANCH  19  20
ATOM     20  O   UNL     1       2.562   4.818  17.524  0.00  0.00    +0.000 OA
ATOM     21  H   UNL     1       3.386   5.289  17.776  0.00  0.00    +0.000 HD
ENDBRANCH  19  20
ENDBRANCH  12  14
ENDBRANCH   1  11
BRANCH   3  22
ATOM     22  C   UNL     1      -0.407  11.721  18.371  0.00  0.00    +0.000 C 
BRANCH  22  23
ATOM     23  C   UNL     1       0.280  13.051  18.520  0.00  0.00    +0.000 A 
ATOM     24  C   UNL     1       1.668  13.139  18.406  0.00  0.00    +0.000 A 
ATOM     25  C   UNL     1       2.314  14.370  18.530  0.00  0.00    +0.000 A 
ATOM     26  C   UNL     1       1.618  15.538  18.787  0.00  0.00    +0.000 A 
ATOM     27  N   UNL     1       2.301  16.677  18.953  0.00  0.00    +0.000 NA
ATOM     28  C   UNL     1       1.602  17.805  19.197  0.00  0.00    +0.000 A 
ATOM     29  C   UNL     1       0.220  17.856  19.242  0.00  0.00    +0.000 A 
ATOM     30  C   UNL     1      -0.484  16.671  19.072  0.00  0.00    +0.000 A 
ATOM     31  C   UNL     1       0.208  15.471  18.864  0.00  0.00    +0.000 A 
ATOM     32  C   UNL     1      -0.450  14.227  18.742  0.00  0.00    +0.000 A 
ENDBRANCH  22  23
ENDBRANCH   3  22
TORSDOF 5
ENDMDL
