MODEL 1
REMARK VINA RESULT:      -7.4      0.000      0.000
REMARK  Name = 
REMARK  8 active torsions:
REMARK  status: ('A' for Active; 'I' for Inactive)
REMARK    1  A    between atoms: C_1  and  O_2
REMARK    2  A    between atoms: O_2  and  C_3
REMARK    3  A    between atoms: C_6  and  N_7
REMARK    4  A    between atoms: N_7  and  C_8
REMARK    5  A    between atoms: C_9  and  C_10
REMARK    6  A    between atoms: C_10  and  O_12
REMARK    7  A    between atoms: C_20  and  O_21
REMARK    8  A    between atoms: O_21  and  C_22
REMARK                            x       y       z     vdW  Elec       q    Type
REMARK                         _______ _______ _______ _____ _____    ______ ____
ROOT
ATOM      1  C   UNL     1       3.955   3.316  18.008  0.00  0.00    +0.000 A 
ATOM      2  C   UNL     1       3.814   2.081  18.621  0.00  0.00    +0.000 A 
ATOM      3  S   UNL     1       2.118   1.760  18.540  0.00  0.00    +0.000 S 
ATOM      4  C   UNL     1       1.916   3.380  19.139  0.00  0.00    +0.000 A 
ATOM      5  C   UNL     1       0.856   3.887  19.901  0.00  0.00    +0.000 A 
ATOM      6  C   UNL     1       1.070   5.093  20.565  0.00  0.00    +0.000 A 
ATOM      7  C   UNL     1       2.254   5.805  20.384  0.00  0.00    +0.000 A 
ATOM      8  C   UNL     1       3.229   5.373  19.471  0.00  0.00    +0.000 A 
ATOM      9  C   UNL     1       3.075   4.122  18.831  0.00  0.00    +0.000 A 
ENDROOT
BRANCH   1  10
ATOM     10  N   UNL     1       5.107   3.684  17.360  0.00  0.00    +0.000 N 
ATOM     11  H   UNL     1       5.032   3.766  16.337  0.00  0.00    +0.000 HD
BRANCH  10  15
ATOM     12  C   UNL     1       7.745   6.941  18.212  0.00  0.00    +0.000 A 
ATOM     13  C   UNL     1       7.532   5.939  19.164  0.00  0.00    +0.000 A 
ATOM     14  C   UNL     1       6.682   4.853  18.905  0.00  0.00    +0.000 A 
ATOM     15  C   UNL     1       6.019   4.754  17.682  0.00  0.00    +0.000 A 
ATOM     16  C   UNL     1       6.255   5.754  16.707  0.00  0.00    +0.000 A 
ATOM     17  C   UNL     1       7.100   6.849  16.980  0.00  0.00    +0.000 A 
BRANCH  12  19
ATOM     18  C   UNL     1       8.345   9.252  18.101  0.00  0.00    +0.000 C 
ATOM     19  O   UNL     1       8.598   7.942  18.594  0.00  0.00    +0.000 OA
ENDBRANCH  12  19
BRANCH  16  20
ATOM     20  O   UNL     1       5.577   5.623  15.512  0.00  0.00    +0.000 OA
ATOM     21  C   UNL     1       6.296   4.946  14.489  0.00  0.00    +0.000 C 
ENDBRANCH  16  20
ENDBRANCH  10  15
ENDBRANCH   1  10
BRANCH   2  22
ATOM     22  C   UNL     1       4.627   1.484  19.669  0.00  0.00    +0.000 C 
ATOM     23  O   UNL     1       5.061   2.044  20.657  0.00  0.00    +0.000 OA
BRANCH  22  24
ATOM     24  O   UNL     1       4.987   0.202  19.372  0.00  0.00    +0.000 OA
ATOM     25  H   UNL     1       5.890  -0.034  19.683  0.00  0.00    +0.000 HD
ENDBRANCH  22  24
ENDBRANCH   2  22
TORSDOF 6
ENDMDL
MODEL 2
REMARK VINA RESULT:      -7.3      3.971      5.854
REMARK  Name = 
REMARK  8 active torsions:
REMARK  status: ('A' for Active; 'I' for Inactive)
REMARK    1  A    between atoms: C_1  and  O_2
REMARK    2  A    between atoms: O_2  and  C_3
REMARK    3  A    between atoms: C_6  and  N_7
REMARK    4  A    between atoms: N_7  and  C_8
REMARK    5  A    between atoms: C_9  and  C_10
REMARK    6  A    between atoms: C_10  and  O_12
REMARK    7  A    between atoms: C_20  and  O_21
REMARK    8  A    between atoms: O_21  and  C_22
REMARK                            x       y       z     vdW  Elec       q    Type
REMARK                         _______ _______ _______ _____ _____    ______ ____
ROOT
ATOM      1  C   UNL     1       2.837   5.753  19.018  0.00  0.00    +0.000 A 
ATOM      2  C   UNL     1       3.967   5.164  18.475  0.00  0.00    +0.000 A 
ATOM      3  S   UNL     1       3.348   4.105  17.258  0.00  0.00    +0.000 S 
ATOM      4  C   UNL     1       2.235   3.565  18.479  0.00  0.00    +0.000 A 
ATOM      5  C   UNL     1       1.625   2.309  18.589  0.00  0.00    +0.000 A 
ATOM      6  C   UNL     1       1.063   1.981  19.821  0.00  0.00    +0.000 A 
ATOM      7  C   UNL     1       1.023   2.913  20.857  0.00  0.00    +0.000 A 
ATOM      8  C   UNL     1       1.472   4.229  20.666  0.00  0.00    +0.000 A 
ATOM      9  C   UNL     1       2.109   4.577  19.453  0.00  0.00    +0.000 A 
ENDROOT
BRANCH   1  10
ATOM     10  N   UNL     1       2.861   7.007  19.575  0.00  0.00    +0.000 N 
ATOM     11  H   UNL     1       3.793   7.432  19.666  0.00  0.00    +0.000 HD
BRANCH  10  15
ATOM     12  C   UNL     1       0.427  10.433  18.781  0.00  0.00    +0.000 A 
ATOM     13  C   UNL     1       1.124   9.808  17.742  0.00  0.00    +0.000 A 
ATOM     14  C   UNL     1       1.918   8.674  17.972  0.00  0.00    +0.000 A 
ATOM     15  C   UNL     1       2.038   8.148  19.259  0.00  0.00    +0.000 A 
ATOM     16  C   UNL     1       1.311   8.765  20.307  0.00  0.00    +0.000 A 
ATOM     17  C   UNL     1       0.526   9.911  20.069  0.00  0.00    +0.000 A 
BRANCH  12  19
ATOM     18  C   UNL     1      -1.647  11.311  17.979  0.00  0.00    +0.000 C 
ATOM     19  O   UNL     1      -0.311  11.528  18.416  0.00  0.00    +0.000 OA
ENDBRANCH  12  19
BRANCH  16  20
ATOM     20  O   UNL     1       1.458   8.217  21.565  0.00  0.00    +0.000 OA
ATOM     21  C   UNL     1       1.097   9.079  22.637  0.00  0.00    +0.000 C 
ENDBRANCH  16  20
ENDBRANCH  10  15
ENDBRANCH   1  10
BRANCH   2  22
ATOM     22  C   UNL     1       5.248   4.889  19.108  0.00  0.00    +0.000 C 
ATOM     23  O   UNL     1       5.975   5.697  19.653  0.00  0.00    +0.000 OA
BRANCH  22  24
ATOM     24  O   UNL     1       5.647   3.598  18.921  0.00  0.00    +0.000 OA
ATOM     25  H   UNL     1       5.669   3.328  17.974  0.00  0.00    +0.000 HD
ENDBRANCH  22  24
ENDBRANCH   2  22
TORSDOF 6
ENDMDL
MODEL 3
REMARK VINA RESULT:      -7.3      3.284      6.158
REMARK  Name = 
REMARK  8 active torsions:
REMARK  status: ('A' for Active; 'I' for Inactive)
REMARK    1  A    between atoms: C_1  and  O_2
REMARK    2  A    between atoms: O_2  and  C_3
REMARK    3  A    between atoms: C_6  and  N_7
REMARK    4  A    between atoms: N_7  and  C_8
REMARK    5  A    between atoms: C_9  and  C_10
REMARK    6  A    between atoms: C_10  and  O_12
REMARK    7  A    between atoms: C_20  and  O_21
REMARK    8  A    between atoms: O_21  and  C_22
REMARK                            x       y       z     vdW  Elec       q    Type
REMARK                         _______ _______ _______ _____ _____    ______ ____
ROOT
ATOM      1  C   UNL     1       4.687   6.012  17.283  0.00  0.00    +0.000 A 
ATOM      2  C   UNL     1       5.751   5.953  18.168  0.00  0.00    +0.000 A 
ATOM      3  S   UNL     1       7.025   6.791  17.355  0.00  0.00    +0.000 S 
ATOM      4  C   UNL     1       6.610   5.816  15.977  0.00  0.00    +0.000 A 
ATOM      5  C   UNL     1       7.449   5.406  14.932  0.00  0.00    +0.000 A 
ATOM      6  C   UNL     1       7.006   4.351  14.138  0.00  0.00    +0.000 A 
ATOM      7  C   UNL     1       5.736   3.806  14.321  0.00  0.00    +0.000 A 
ATOM      8  C   UNL     1       4.838   4.354  15.251  0.00  0.00    +0.000 A 
ATOM      9  C   UNL     1       5.276   5.380  16.118  0.00  0.00    +0.000 A 
ENDROOT
BRANCH   1  10
ATOM     10  N   UNL     1       3.381   5.995  17.704  0.00  0.00    +0.000 N 
ATOM     11  H   UNL     1       3.085   5.138  18.190  0.00  0.00    +0.000 HD
BRANCH  10  15
ATOM     12  C   UNL     1       1.266   8.958  19.948  0.00  0.00    +0.000 A 
ATOM     13  C   UNL     1       1.605   9.195  18.612  0.00  0.00    +0.000 A 
ATOM     14  C   UNL     1       2.287   8.235  17.849  0.00  0.00    +0.000 A 
ATOM     15  C   UNL     1       2.653   7.014  18.417  0.00  0.00    +0.000 A 
ATOM     16  C   UNL     1       2.285   6.763  19.763  0.00  0.00    +0.000 A 
ATOM     17  C   UNL     1       1.613   7.738  20.526  0.00  0.00    +0.000 A 
BRANCH  12  19
ATOM     18  C   UNL     1      -0.030   9.695  21.817  0.00  0.00    +0.000 C 
ATOM     19  O   UNL     1       0.602   9.980  20.575  0.00  0.00    +0.000 OA
ENDBRANCH  12  19
BRANCH  16  20
ATOM     20  O   UNL     1       2.668   5.546  20.290  0.00  0.00    +0.000 OA
ATOM     21  C   UNL     1       1.595   4.709  20.700  0.00  0.00    +0.000 C 
ENDBRANCH  16  20
ENDBRANCH  10  15
ENDBRANCH   1  10
BRANCH   2  22
ATOM     22  C   UNL     1       6.056   4.934  19.162  0.00  0.00    +0.000 C 
ATOM     23  O   UNL     1       5.429   3.914  19.370  0.00  0.00    +0.000 OA
BRANCH  22  24
ATOM     24  O   UNL     1       7.092   5.301  19.970  0.00  0.00    +0.000 OA
ATOM     25  H   UNL     1       7.519   4.542  20.429  0.00  0.00    +0.000 HD
ENDBRANCH  22  24
ENDBRANCH   2  22
TORSDOF 6
ENDMDL
MODEL 4
REMARK VINA RESULT:      -7.3      2.445      4.256
REMARK  Name = 
REMARK  8 active torsions:
REMARK  status: ('A' for Active; 'I' for Inactive)
REMARK    1  A    between atoms: C_1  and  O_2
REMARK    2  A    between atoms: O_2  and  C_3
REMARK    3  A    between atoms: C_6  and  N_7
REMARK    4  A    between atoms: N_7  and  C_8
REMARK    5  A    between atoms: C_9  and  C_10
REMARK    6  A    between atoms: C_10  and  O_12
REMARK    7  A    between atoms: C_20  and  O_21
REMARK    8  A    between atoms: O_21  and  C_22
REMARK                            x       y       z     vdW  Elec       q    Type
REMARK                         _______ _______ _______ _____ _____    ______ ____
ROOT
ATOM      1  C   UNL     1       4.318   4.507  19.028  0.00  0.00    +0.000 A 
ATOM      2  C   UNL     1       3.750   5.770  19.052  0.00  0.00    +0.000 A 
ATOM      3  S   UNL     1       2.780   5.771  20.482  0.00  0.00    +0.000 S 
ATOM      4  C   UNL     1       2.179   4.241  19.918  0.00  0.00    +0.000 A 
ATOM      5  C   UNL     1       0.926   3.666  20.170  0.00  0.00    +0.000 A 
ATOM      6  C   UNL     1       0.528   2.622  19.338  0.00  0.00    +0.000 A 
ATOM      7  C   UNL     1       1.391   2.112  18.370  0.00  0.00    +0.000 A 
ATOM      8  C   UNL     1       2.711   2.578  18.257  0.00  0.00    +0.000 A 
ATOM      9  C   UNL     1       3.127   3.680  19.038  0.00  0.00    +0.000 A 
ENDROOT
BRANCH   1  10
ATOM     10  N   UNL     1       5.534   4.261  18.440  0.00  0.00    +0.000 N 
ATOM     11  H   UNL     1       5.998   3.390  18.732  0.00  0.00    +0.000 HD
BRANCH  10  15
ATOM     12  C   UNL     1       6.736   4.527  14.344  0.00  0.00    +0.000 A 
ATOM     13  C   UNL     1       5.568   3.842  14.693  0.00  0.00    +0.000 A 
ATOM     14  C   UNL     1       5.143   3.751  16.027  0.00  0.00    +0.000 A 
ATOM     15  C   UNL     1       5.891   4.341  17.046  0.00  0.00    +0.000 A 
ATOM     16  C   UNL     1       7.061   5.058  16.691  0.00  0.00    +0.000 A 
ATOM     17  C   UNL     1       7.487   5.133  15.350  0.00  0.00    +0.000 A 
BRANCH  12  19
ATOM     18  C   UNL     1       6.501   3.492  12.202  0.00  0.00    +0.000 C 
ATOM     19  O   UNL     1       7.033   4.538  13.007  0.00  0.00    +0.000 OA
ENDBRANCH  12  19
BRANCH  16  20
ATOM     20  O   UNL     1       7.776   5.624  17.727  0.00  0.00    +0.000 OA
ATOM     21  C   UNL     1       7.659   7.037  17.832  0.00  0.00    +0.000 C 
ENDBRANCH  16  20
ENDBRANCH  10  15
ENDBRANCH   1  10
BRANCH   2  22
ATOM     22  C   UNL     1       3.417   6.643  17.936  0.00  0.00    +0.000 C 
ATOM     23  O   UNL     1       4.170   7.013  17.056  0.00  0.00    +0.000 OA
BRANCH  22  24
ATOM     24  O   UNL     1       2.150   7.137  18.032  0.00  0.00    +0.000 OA
ATOM     25  H   UNL     1       2.119   8.112  18.165  0.00  0.00    +0.000 HD
ENDBRANCH  22  24
ENDBRANCH   2  22
TORSDOF 6
ENDMDL
MODEL 5
REMARK VINA RESULT:      -7.3      2.419      4.431
REMARK  Name = 
REMARK  8 active torsions:
REMARK  status: ('A' for Active; 'I' for Inactive)
REMARK    1  A    between atoms: C_1  and  O_2
REMARK    2  A    between atoms: O_2  and  C_3
REMARK    3  A    between atoms: C_6  and  N_7
REMARK    4  A    between atoms: N_7  and  C_8
REMARK    5  A    between atoms: C_9  and  C_10
REMARK    6  A    between atoms: C_10  and  O_12
REMARK    7  A    between atoms: C_20  and  O_21
REMARK    8  A    between atoms: O_21  and  C_22
REMARK                            x       y       z     vdW  Elec       q    Type
REMARK                         _______ _______ _______ _____ _____    ______ ____
ROOT
ATOM      1  C   UNL     1       3.762   5.494  19.423  0.00  0.00    +0.000 A 
ATOM      2  C   UNL     1       2.807   6.459  19.695  0.00  0.00    +0.000 A 
ATOM      3  S   UNL     1       1.868   5.777  20.975  0.00  0.00    +0.000 S 
ATOM      4  C   UNL     1       1.817   4.341  19.997  0.00  0.00    +0.000 A 
ATOM      5  C   UNL     1       0.822   3.356  19.971  0.00  0.00    +0.000 A 
ATOM      6  C   UNL     1       0.805   2.497  18.875  0.00  0.00    +0.000 A 
ATOM      7  C   UNL     1       1.805   2.560  17.905  0.00  0.00    +0.000 A 
ATOM      8  C   UNL     1       2.897   3.431  18.045  0.00  0.00    +0.000 A 
ATOM      9  C   UNL     1       2.912   4.362  19.109  0.00  0.00    +0.000 A 
ENDROOT
BRANCH   1  10
ATOM     10  N   UNL     1       4.999   5.808  18.920  0.00  0.00    +0.000 N 
ATOM     11  H   UNL     1       5.795   5.575  19.529  0.00  0.00    +0.000 HD
BRANCH  10  15
ATOM     12  C   UNL     1       6.668   4.903  15.088  0.00  0.00    +0.000 A 
ATOM     13  C   UNL     1       5.437   5.560  15.183  0.00  0.00    +0.000 A 
ATOM     14  C   UNL     1       4.873   5.881  16.428  0.00  0.00    +0.000 A 
ATOM     15  C   UNL     1       5.533   5.540  17.608  0.00  0.00    +0.000 A 
ATOM     16  C   UNL     1       6.793   4.898  17.512  0.00  0.00    +0.000 A 
ATOM     17  C   UNL     1       7.345   4.568  16.259  0.00  0.00    +0.000 A 
BRANCH  12  19
ATOM     18  C   UNL     1       6.307   3.795  13.001  0.00  0.00    +0.000 C 
ATOM     19  O   UNL     1       7.101   4.652  13.813  0.00  0.00    +0.000 OA
ENDBRANCH  12  19
BRANCH  16  20
ATOM     20  O   UNL     1       7.412   4.573  18.702  0.00  0.00    +0.000 OA
ATOM     21  C   UNL     1       8.126   5.638  19.314  0.00  0.00    +0.000 C 
ENDBRANCH  16  20
ENDBRANCH  10  15
ENDBRANCH   1  10
BRANCH   2  22
ATOM     22  C   UNL     1       2.221   7.444  18.797  0.00  0.00    +0.000 C 
ATOM     23  O   UNL     1       2.317   7.465  17.585  0.00  0.00    +0.000 OA
BRANCH  22  24
ATOM     24  O   UNL     1       1.627   8.467  19.474  0.00  0.00    +0.000 OA
ATOM     25  H   UNL     1       1.453   9.259  18.916  0.00  0.00    +0.000 HD
ENDBRANCH  22  24
ENDBRANCH   2  22
TORSDOF 6
ENDMDL
MODEL 6
REMARK VINA RESULT:      -7.1      0.871      1.068
REMARK  Name = 
REMARK  8 active torsions:
REMARK  status: ('A' for Active; 'I' for Inactive)
REMARK    1  A    between atoms: C_1  and  O_2
REMARK    2  A    between atoms: O_2  and  C_3
REMARK    3  A    between atoms: C_6  and  N_7
REMARK    4  A    between atoms: N_7  and  C_8
REMARK    5  A    between atoms: C_9  and  C_10
REMARK    6  A    between atoms: C_10  and  O_12
REMARK    7  A    between atoms: C_20  and  O_21
REMARK    8  A    between atoms: O_21  and  C_22
REMARK                            x       y       z     vdW  Elec       q    Type
REMARK                         _______ _______ _______ _____ _____    ______ ____
ROOT
ATOM      1  C   UNL     1       4.360   3.366  18.777  0.00  0.00    +0.000 A 
ATOM      2  C   UNL     1       4.010   2.242  19.508  0.00  0.00    +0.000 A 
ATOM      3  S   UNL     1       2.353   1.969  19.098  0.00  0.00    +0.000 S 
ATOM      4  C   UNL     1       2.134   3.666  19.406  0.00  0.00    +0.000 A 
ATOM      5  C   UNL     1       0.970   4.316  19.837  0.00  0.00    +0.000 A 
ATOM      6  C   UNL     1       1.114   5.599  20.358  0.00  0.00    +0.000 A 
ATOM      7  C   UNL     1       2.353   6.237  20.348  0.00  0.00    +0.000 A 
ATOM      8  C   UNL     1       3.472   5.642  19.742  0.00  0.00    +0.000 A 
ATOM      9  C   UNL     1       3.378   4.315  19.264  0.00  0.00    +0.000 A 
ENDROOT
BRANCH   1  10
ATOM     10  N   UNL     1       5.645   3.595  18.356  0.00  0.00    +0.000 N 
ATOM     11  H   UNL     1       5.963   3.012  17.570  0.00  0.00    +0.000 HD
BRANCH  10  15
ATOM     12  C   UNL     1       7.448   7.365  17.444  0.00  0.00    +0.000 A 
ATOM     13  C   UNL     1       7.792   6.684  18.617  0.00  0.00    +0.000 A 
ATOM     14  C   UNL     1       7.226   5.440  18.933  0.00  0.00    +0.000 A 
ATOM     15  C   UNL     1       6.291   4.854  18.080  0.00  0.00    +0.000 A 
ATOM     16  C   UNL     1       5.962   5.530  16.879  0.00  0.00    +0.000 A 
ATOM     17  C   UNL     1       6.525   6.786  16.575  0.00  0.00    +0.000 A 
BRANCH  12  19
ATOM     18  C   UNL     1       8.488   9.284  18.417  0.00  0.00    +0.000 C 
ATOM     19  O   UNL     1       8.075   8.568  17.259  0.00  0.00    +0.000 OA
ENDBRANCH  12  19
BRANCH  16  20
ATOM     20  O   UNL     1       5.031   4.920  16.063  0.00  0.00    +0.000 OA
ATOM     21  C   UNL     1       5.559   4.361  14.867  0.00  0.00    +0.000 C 
ENDBRANCH  16  20
ENDBRANCH  10  15
ENDBRANCH   1  10
BRANCH   2  22
ATOM     22  C   UNL     1       4.539   1.781  20.783  0.00  0.00    +0.000 C 
ATOM     23  O   UNL     1       5.563   1.151  20.957  0.00  0.00    +0.000 OA
BRANCH  22  24
ATOM     24  O   UNL     1       3.678   2.023  21.813  0.00  0.00    +0.000 OA
ATOM     25  H   UNL     1       2.730   1.975  21.551  0.00  0.00    +0.000 HD
ENDBRANCH  22  24
ENDBRANCH   2  22
TORSDOF 6
ENDMDL
MODEL 7
REMARK VINA RESULT:      -7.1      3.249      5.760
REMARK  Name = 
REMARK  8 active torsions:
REMARK  status: ('A' for Active; 'I' for Inactive)
REMARK    1  A    between atoms: C_1  and  O_2
REMARK    2  A    between atoms: O_2  and  C_3
REMARK    3  A    between atoms: C_6  and  N_7
REMARK    4  A    between atoms: N_7  and  C_8
REMARK    5  A    between atoms: C_9  and  C_10
REMARK    6  A    between atoms: C_10  and  O_12
REMARK    7  A    between atoms: C_20  and  O_21
REMARK    8  A    between atoms: O_21  and  C_22
REMARK                            x       y       z     vdW  Elec       q    Type
REMARK                         _______ _______ _______ _____ _____    ______ ____
ROOT
ATOM      1  C   UNL     1       4.275   5.457  18.017  0.00  0.00    +0.000 A 
ATOM      2  C   UNL     1       4.873   4.618  18.943  0.00  0.00    +0.000 A 
ATOM      3  S   UNL     1       6.524   5.129  18.972  0.00  0.00    +0.000 S 
ATOM      4  C   UNL     1       6.438   5.065  17.237  0.00  0.00    +0.000 A 
ATOM      5  C   UNL     1       7.482   4.823  16.335  0.00  0.00    +0.000 A 
ATOM      6  C   UNL     1       7.130   4.464  15.036  0.00  0.00    +0.000 A 
ATOM      7  C   UNL     1       5.794   4.451  14.638  0.00  0.00    +0.000 A 
ATOM      8  C   UNL     1       4.774   4.876  15.504  0.00  0.00    +0.000 A 
ATOM      9  C   UNL     1       5.088   5.184  16.848  0.00  0.00    +0.000 A 
ENDROOT
BRANCH   1  10
ATOM     10  N   UNL     1       2.946   5.793  18.083  0.00  0.00    +0.000 N 
ATOM     11  H   UNL     1       2.311   5.029  18.353  0.00  0.00    +0.000 HD
BRANCH  10  15
ATOM     12  C   UNL     1       1.178   9.119  20.108  0.00  0.00    +0.000 A 
ATOM     13  C   UNL     1       1.541   9.226  18.762  0.00  0.00    +0.000 A 
ATOM     14  C   UNL     1       2.110   8.146  18.070  0.00  0.00    +0.000 A 
ATOM     15  C   UNL     1       2.337   6.933  18.721  0.00  0.00    +0.000 A 
ATOM     16  C   UNL     1       1.944   6.816  20.077  0.00  0.00    +0.000 A 
ATOM     17  C   UNL     1       1.385   7.910  20.768  0.00  0.00    +0.000 A 
BRANCH  12  19
ATOM     18  C   UNL     1       0.764  11.467  19.938  0.00  0.00    +0.000 C 
ATOM     19  O   UNL     1       0.633  10.248  20.659  0.00  0.00    +0.000 OA
ENDBRANCH  12  19
BRANCH  16  20
ATOM     20  O   UNL     1       2.188   5.602  20.688  0.00  0.00    +0.000 OA
ATOM     21  C   UNL     1       1.149   4.642  20.544  0.00  0.00    +0.000 C 
ENDBRANCH  16  20
ENDBRANCH  10  15
ENDBRANCH   1  10
BRANCH   2  22
ATOM     22  C   UNL     1       4.518   3.253  19.302  0.00  0.00    +0.000 C 
ATOM     23  O   UNL     1       5.125   2.523  20.061  0.00  0.00    +0.000 OA
BRANCH  22  24
ATOM     24  O   UNL     1       3.458   2.792  18.580  0.00  0.00    +0.000 OA
ATOM     25  H   UNL     1       3.013   2.015  18.988  0.00  0.00    +0.000 HD
ENDBRANCH  22  24
ENDBRANCH   2  22
TORSDOF 6
ENDMDL
MODEL 8
REMARK VINA RESULT:      -7.0      1.496      3.013
REMARK  Name = 
REMARK  8 active torsions:
REMARK  status: ('A' for Active; 'I' for Inactive)
REMARK    1  A    between atoms: C_1  and  O_2
REMARK    2  A    between atoms: O_2  and  C_3
REMARK    3  A    between atoms: C_6  and  N_7
REMARK    4  A    between atoms: N_7  and  C_8
REMARK    5  A    between atoms: C_9  and  C_10
REMARK    6  A    between atoms: C_10  and  O_12
REMARK    7  A    between atoms: C_20  and  O_21
REMARK    8  A    between atoms: O_21  and  C_22
REMARK                            x       y       z     vdW  Elec       q    Type
REMARK                         _______ _______ _______ _____ _____    ______ ____
ROOT
ATOM      1  C   UNL     1       4.134   3.390  18.785  0.00  0.00    +0.000 A 
ATOM      2  C   UNL     1       3.800   2.227  19.460  0.00  0.00    +0.000 A 
ATOM      3  S   UNL     1       2.143   1.961  19.050  0.00  0.00    +0.000 S 
ATOM      4  C   UNL     1       1.911   3.638  19.446  0.00  0.00    +0.000 A 
ATOM      5  C   UNL     1       0.745   4.254  19.918  0.00  0.00    +0.000 A 
ATOM      6  C   UNL     1       0.883   5.511  20.503  0.00  0.00    +0.000 A 
ATOM      7  C   UNL     1       2.116   6.159  20.516  0.00  0.00    +0.000 A 
ATOM      8  C   UNL     1       3.235   5.606  19.872  0.00  0.00    +0.000 A 
ATOM      9  C   UNL     1       3.148   4.304  19.327  0.00  0.00    +0.000 A 
ENDROOT
BRANCH   1  10
ATOM     10  N   UNL     1       5.415   3.652  18.366  0.00  0.00    +0.000 N 
ATOM     11  H   UNL     1       6.116   2.945  18.623  0.00  0.00    +0.000 HD
BRANCH  10  15
ATOM     12  C   UNL     1       6.901   4.877  14.548  0.00  0.00    +0.000 A 
ATOM     13  C   UNL     1       5.609   4.355  14.667  0.00  0.00    +0.000 A 
ATOM     14  C   UNL     1       5.091   3.958  15.909  0.00  0.00    +0.000 A 
ATOM     15  C   UNL     1       5.868   4.069  17.063  0.00  0.00    +0.000 A 
ATOM     16  C   UNL     1       7.167   4.623  16.947  0.00  0.00    +0.000 A 
ATOM     17  C   UNL     1       7.684   5.006  15.693  0.00  0.00    +0.000 A 
BRANCH  12  19
ATOM     18  C   UNL     1       7.086   4.265  12.244  0.00  0.00    +0.000 C 
ATOM     19  O   UNL     1       7.279   5.224  13.278  0.00  0.00    +0.000 OA
ENDBRANCH  12  19
BRANCH  16  20
ATOM     20  O   UNL     1       7.905   4.712  18.110  0.00  0.00    +0.000 OA
ATOM     21  C   UNL     1       7.838   5.972  18.765  0.00  0.00    +0.000 C 
ENDBRANCH  16  20
ENDBRANCH  10  15
ENDBRANCH   1  10
BRANCH   2  22
ATOM     22  C   UNL     1       4.343   1.707  20.707  0.00  0.00    +0.000 C 
ATOM     23  O   UNL     1       3.881   1.866  21.820  0.00  0.00    +0.000 OA
BRANCH  22  24
ATOM     24  O   UNL     1       5.549   1.096  20.525  0.00  0.00    +0.000 OA
ATOM     25  H   UNL     1       5.828   1.051  19.583  0.00  0.00    +0.000 HD
ENDBRANCH  22  24
ENDBRANCH   2  22
TORSDOF 6
ENDMDL
MODEL 9
REMARK VINA RESULT:      -6.8      3.927      5.748
REMARK  Name = 
REMARK  8 active torsions:
REMARK  status: ('A' for Active; 'I' for Inactive)
REMARK    1  A    between atoms: C_1  and  O_2
REMARK    2  A    between atoms: O_2  and  C_3
REMARK    3  A    between atoms: C_6  and  N_7
REMARK    4  A    between atoms: N_7  and  C_8
REMARK    5  A    between atoms: C_9  and  C_10
REMARK    6  A    between atoms: C_10  and  O_12
REMARK    7  A    between atoms: C_20  and  O_21
REMARK    8  A    between atoms: O_21  and  C_22
REMARK                            x       y       z     vdW  Elec       q    Type
REMARK                         _______ _______ _______ _____ _____    ______ ____
ROOT
ATOM      1  C   UNL     1       2.840   5.893  19.081  0.00  0.00    +0.000 A 
ATOM      2  C   UNL     1       3.921   5.272  18.478  0.00  0.00    +0.000 A 
ATOM      3  S   UNL     1       3.216   4.326  17.215  0.00  0.00    +0.000 S 
ATOM      4  C   UNL     1       2.095   3.781  18.427  0.00  0.00    +0.000 A 
ATOM      5  C   UNL     1       1.414   2.559  18.477  0.00  0.00    +0.000 A 
ATOM      6  C   UNL     1       0.856   2.191  19.699  0.00  0.00    +0.000 A 
ATOM      7  C   UNL     1       0.892   3.059  20.789  0.00  0.00    +0.000 A 
ATOM      8  C   UNL     1       1.417   4.356  20.667  0.00  0.00    +0.000 A 
ATOM      9  C   UNL     1       2.050   4.738  19.462  0.00  0.00    +0.000 A 
ENDROOT
BRANCH   1  10
ATOM     10  N   UNL     1       2.950   7.107  19.710  0.00  0.00    +0.000 N 
ATOM     11  H   UNL     1       3.592   7.778  19.267  0.00  0.00    +0.000 HD
BRANCH  10  15
ATOM     12  C   UNL     1      -0.193   9.705  21.003  0.00  0.00    +0.000 A 
ATOM     13  C   UNL     1       0.233   8.652  21.820  0.00  0.00    +0.000 A 
ATOM     14  C   UNL     1       1.271   7.793  21.426  0.00  0.00    +0.000 A 
ATOM     15  C   UNL     1       1.900   7.969  20.194  0.00  0.00    +0.000 A 
ATOM     16  C   UNL     1       1.488   9.051  19.378  0.00  0.00    +0.000 A 
ATOM     17  C   UNL     1       0.435   9.901  19.775  0.00  0.00    +0.000 A 
BRANCH  12  19
ATOM     18  C   UNL     1      -0.991  11.132  22.747  0.00  0.00    +0.000 C 
ATOM     19  O   UNL     1      -1.213  10.464  21.510  0.00  0.00    +0.000 OA
ENDBRANCH  12  19
BRANCH  16  20
ATOM     20  O   UNL     1       2.131   9.189  18.164  0.00  0.00    +0.000 OA
ATOM     21  C   UNL     1       2.294  10.531  17.724  0.00  0.00    +0.000 C 
ENDBRANCH  16  20
ENDBRANCH  10  15
ENDBRANCH   1  10
BRANCH   2  22
ATOM     22  C   UNL     1       5.195   4.883  19.064  0.00  0.00    +0.000 C 
ATOM     23  O   UNL     1       5.969   5.608  19.659  0.00  0.00    +0.000 OA
BRANCH  22  24
ATOM     24  O   UNL     1       5.525   3.594  18.767  0.00  0.00    +0.000 OA
ATOM     25  H   UNL     1       5.007   2.930  19.276  0.00  0.00    +0.000 HD
ENDBRANCH  22  24
ENDBRANCH   2  22
TORSDOF 6
ENDMDL
