MODEL 1
REMARK VINA RESULT:      -8.7      0.000      0.000
REMARK  Name = 
REMARK  11 active torsions:
REMARK  status: ('A' for Active; 'I' for Inactive)
REMARK    1  A    between atoms: C_1  and  O_2
REMARK    2  A    between atoms: O_2  and  C_3
REMARK    3  A    between atoms: C_7  and  C_8
REMARK    4  A    between atoms: C_17  and  C_18
REMARK    5  A    between atoms: N_20  and  C_21
REMARK    6  A    between atoms: C_21  and  C_22
REMARK    7  A    between atoms: C_22  and  C_23
REMARK    8  A    between atoms: C_22  and  C_24
REMARK    9  A    between atoms: C_22  and  C_25
REMARK   10  A    between atoms: C_25  and  O_27
REMARK   11  A    between atoms: C_34  and  C_35
REMARK                            x       y       z     vdW  Elec       q    Type
REMARK                         _______ _______ _______ _____ _____    ______ ____
ROOT
ATOM      1  C   UNL     1      -2.865  13.582  21.647  0.00  0.00    +0.000 C 
ATOM      2  C   UNL     1      -2.762  13.073  22.893  0.00  0.00    +0.000 C 
ATOM      3  C   UNL     1      -1.964  11.835  22.944  0.00  0.00    +0.000 C 
ATOM      4  C   UNL     1      -1.125  12.026  21.702  0.00  0.00    +0.000 C 
ATOM      5  C   UNL     1      -0.434  10.788  21.180  0.00  0.00    +0.000 C 
ATOM      6  C   UNL     1       0.321  10.054  22.292  0.00  0.00    +0.000 C 
ATOM      7  C   UNL     1       0.670   8.671  21.794  0.00  0.00    +0.000 C 
ATOM      8  C   UNL     1       1.190   8.667  20.378  0.00  0.00    +0.000 A 
ATOM      9  C   UNL     1       1.654   7.422  19.909  0.00  0.00    +0.000 A 
ATOM     10  C   UNL     1       2.148   7.291  18.620  0.00  0.00    +0.000 A 
ATOM     11  C   UNL     1       2.251   8.441  17.825  0.00  0.00    +0.000 A 
ATOM     12  C   UNL     1       1.764   9.688  18.274  0.00  0.00    +0.000 A 
ATOM     13  C   UNL     1       1.171   9.818  19.540  0.00  0.00    +0.000 A 
ATOM     14  C   UNL     1       0.582  11.147  20.067  0.00  0.00    +0.000 C 
ATOM     15  C   UNL     1      -0.026  12.186  19.058  0.00  0.00    +0.000 C 
ATOM     16  C   UNL     1      -0.927  13.330  19.691  0.00  0.00    +0.000 C 
ATOM     17  C   UNL     1      -2.019  12.751  20.645  0.00  0.00    +0.000 C 
ATOM     18  C   UNL     1      -2.957  11.892  19.772  0.00  0.00    +0.000 C 
ENDROOT
BRANCH   1  23
ATOM     19  C   UNL     1      -6.524  14.204  21.173  0.00  0.00    +0.000 A 
ATOM     20  C   UNL     1      -6.445  15.369  20.423  0.00  0.00    +0.000 A 
ATOM     21  N   UNL     1      -5.304  16.066  20.237  0.00  0.00    +0.000 NA
ATOM     22  C   UNL     1      -4.179  15.533  20.783  0.00  0.00    +0.000 A 
ATOM     23  C   UNL     1      -4.122  14.349  21.538  0.00  0.00    +0.000 A 
ATOM     24  C   UNL     1      -5.346  13.692  21.730  0.00  0.00    +0.000 A 
BRANCH  19  26
ATOM     25  C   UNL     1      -7.714  12.272  21.758  0.00  0.00    +0.000 C 
ATOM     26  O   UNL     1      -7.744  13.588  21.218  0.00  0.00    +0.000 OA
ENDBRANCH  19  26
ENDBRANCH   1  23
BRANCH  10  27
ATOM     27  C   UNL     1       2.576   5.959  18.078  0.00  0.00    +0.000 C 
ATOM     28  O   UNL     1       1.735   5.127  17.763  0.00  0.00    +0.000 OA
ATOM     29  N   UNL     1       3.938   5.729  18.000  0.00  0.00    +0.000 N 
ATOM     30  H   UNL     1       4.594   6.421  18.347  0.00  0.00    +0.000 HD
BRANCH  29  31
ATOM     31  C   UNL     1       4.531   4.495  17.495  0.00  0.00    +0.000 C 
BRANCH  31  32
ATOM     32  C   UNL     1       5.876   4.701  16.744  0.00  0.00    +0.000 C 
ATOM     33  C   UNL     1       5.994   3.694  15.592  0.00  0.00    +0.000 C 
ATOM     34  C   UNL     1       5.906   6.138  16.188  0.00  0.00    +0.000 C 
BRANCH  32  35
ATOM     35  C   UNL     1       7.041   4.520  17.720  0.00  0.00    +0.000 C 
ATOM     36  O   UNL     1       6.957   4.674  18.932  0.00  0.00    +0.000 OA
BRANCH  35  37
ATOM     37  O   UNL     1       8.212   4.156  17.147  0.00  0.00    +0.000 OA
ATOM     38  H   UNL     1       8.628   4.828  16.576  0.00  0.00    +0.000 HD
ENDBRANCH  35  37
ENDBRANCH  32  35
ENDBRANCH  31  32
ENDBRANCH  29  31
ENDBRANCH  10  27
TORSDOF 7
ENDMDL
MODEL 2
REMARK VINA RESULT:      -8.4      1.196      1.670
REMARK  Name = 
REMARK  11 active torsions:
REMARK  status: ('A' for Active; 'I' for Inactive)
REMARK    1  A    between atoms: C_1  and  O_2
REMARK    2  A    between atoms: O_2  and  C_3
REMARK    3  A    between atoms: C_7  and  C_8
REMARK    4  A    between atoms: C_17  and  C_18
REMARK    5  A    between atoms: N_20  and  C_21
REMARK    6  A    between atoms: C_21  and  C_22
REMARK    7  A    between atoms: C_22  and  C_23
REMARK    8  A    between atoms: C_22  and  C_24
REMARK    9  A    between atoms: C_22  and  C_25
REMARK   10  A    between atoms: C_25  and  O_27
REMARK   11  A    between atoms: C_34  and  C_35
REMARK                            x       y       z     vdW  Elec       q    Type
REMARK                         _______ _______ _______ _____ _____    ______ ____
ROOT
ATOM      1  C   UNL     1      -3.173  13.410  20.991  0.00  0.00    +0.000 C 
ATOM      2  C   UNL     1      -3.089  13.049  22.290  0.00  0.00    +0.000 C 
ATOM      3  C   UNL     1      -2.212  11.883  22.506  0.00  0.00    +0.000 C 
ATOM      4  C   UNL     1      -1.337  11.997  21.279  0.00  0.00    +0.000 C 
ATOM      5  C   UNL     1      -0.543  10.762  20.923  0.00  0.00    +0.000 C 
ATOM      6  C   UNL     1       0.213  10.209  22.135  0.00  0.00    +0.000 C 
ATOM      7  C   UNL     1       0.674   8.809  21.807  0.00  0.00    +0.000 C 
ATOM      8  C   UNL     1       1.252   8.687  20.419  0.00  0.00    +0.000 A 
ATOM      9  C   UNL     1       1.817   7.435  20.108  0.00  0.00    +0.000 A 
ATOM     10  C   UNL     1       2.371   7.199  18.859  0.00  0.00    +0.000 A 
ATOM     11  C   UNL     1       2.429   8.259  17.944  0.00  0.00    +0.000 A 
ATOM     12  C   UNL     1       1.842   9.509  18.235  0.00  0.00    +0.000 A 
ATOM     13  C   UNL     1       1.190   9.735  19.457  0.00  0.00    +0.000 A 
ATOM     14  C   UNL     1       0.492  11.069  19.811  0.00  0.00    +0.000 C 
ATOM     15  C   UNL     1      -0.143  11.945  18.672  0.00  0.00    +0.000 C 
ATOM     16  C   UNL     1      -1.144  13.084  19.142  0.00  0.00    +0.000 C 
ATOM     17  C   UNL     1      -2.233  12.536  20.118  0.00  0.00    +0.000 C 
ATOM     18  C   UNL     1      -3.074  11.522  19.316  0.00  0.00    +0.000 C 
ENDROOT
BRANCH   1  23
ATOM     19  C   UNL     1      -5.760  16.113  21.051  0.00  0.00    +0.000 A 
ATOM     20  C   UNL     1      -6.876  15.332  21.312  0.00  0.00    +0.000 A 
ATOM     21  N   UNL     1      -6.875  13.982  21.268  0.00  0.00    +0.000 NA
ATOM     22  C   UNL     1      -5.679  13.391  21.007  0.00  0.00    +0.000 A 
ATOM     23  C   UNL     1      -4.473  14.068  20.755  0.00  0.00    +0.000 A 
ATOM     24  C   UNL     1      -4.548  15.468  20.774  0.00  0.00    +0.000 A 
BRANCH  19  26
ATOM     25  C   UNL     1      -5.226  18.235  20.212  0.00  0.00    +0.000 C 
ATOM     26  O   UNL     1      -5.914  17.465  21.191  0.00  0.00    +0.000 OA
ENDBRANCH  19  26
ENDBRANCH   1  23
BRANCH  10  27
ATOM     27  C   UNL     1       2.910   5.849  18.485  0.00  0.00    +0.000 C 
ATOM     28  O   UNL     1       2.465   4.842  19.020  0.00  0.00    +0.000 OA
ATOM     29  N   UNL     1       3.935   5.825  17.557  0.00  0.00    +0.000 N 
ATOM     30  H   UNL     1       4.323   6.693  17.200  0.00  0.00    +0.000 HD
BRANCH  29  31
ATOM     31  C   UNL     1       4.574   4.605  17.075  0.00  0.00    +0.000 C 
BRANCH  31  32
ATOM     32  C   UNL     1       5.811   4.855  16.168  0.00  0.00    +0.000 C 
ATOM     33  C   UNL     1       6.069   3.629  15.280  0.00  0.00    +0.000 C 
ATOM     34  C   UNL     1       5.527   6.088  15.288  0.00  0.00    +0.000 C 
BRANCH  32  35
ATOM     35  C   UNL     1       7.037   5.137  17.040  0.00  0.00    +0.000 C 
ATOM     36  O   UNL     1       7.199   6.159  17.695  0.00  0.00    +0.000 OA
BRANCH  35  37
ATOM     37  O   UNL     1       7.964   4.150  17.055  0.00  0.00    +0.000 OA
ATOM     38  H   UNL     1       8.418   3.986  16.208  0.00  0.00    +0.000 HD
ENDBRANCH  35  37
ENDBRANCH  32  35
ENDBRANCH  31  32
ENDBRANCH  29  31
ENDBRANCH  10  27
TORSDOF 7
ENDMDL
MODEL 3
REMARK VINA RESULT:      -8.3      1.376      1.885
REMARK  Name = 
REMARK  11 active torsions:
REMARK  status: ('A' for Active; 'I' for Inactive)
REMARK    1  A    between atoms: C_1  and  O_2
REMARK    2  A    between atoms: O_2  and  C_3
REMARK    3  A    between atoms: C_7  and  C_8
REMARK    4  A    between atoms: C_17  and  C_18
REMARK    5  A    between atoms: N_20  and  C_21
REMARK    6  A    between atoms: C_21  and  C_22
REMARK    7  A    between atoms: C_22  and  C_23
REMARK    8  A    between atoms: C_22  and  C_24
REMARK    9  A    between atoms: C_22  and  C_25
REMARK   10  A    between atoms: C_25  and  O_27
REMARK   11  A    between atoms: C_34  and  C_35
REMARK                            x       y       z     vdW  Elec       q    Type
REMARK                         _______ _______ _______ _____ _____    ______ ____
ROOT
ATOM      1  C   UNL     1      -2.668  13.671  21.844  0.00  0.00    +0.000 C 
ATOM      2  C   UNL     1      -2.630  13.094  23.065  0.00  0.00    +0.000 C 
ATOM      3  C   UNL     1      -1.895  11.816  23.073  0.00  0.00    +0.000 C 
ATOM      4  C   UNL     1      -1.010  12.027  21.866  0.00  0.00    +0.000 C 
ATOM      5  C   UNL     1      -0.366  10.784  21.300  0.00  0.00    +0.000 C 
ATOM      6  C   UNL     1       0.318   9.956  22.392  0.00  0.00    +0.000 C 
ATOM      7  C   UNL     1       0.613   8.585  21.832  0.00  0.00    +0.000 C 
ATOM      8  C   UNL     1       1.176   8.626  20.434  0.00  0.00    +0.000 A 
ATOM      9  C   UNL     1       1.591   7.385  19.914  0.00  0.00    +0.000 A 
ATOM     10  C   UNL     1       2.117   7.295  18.633  0.00  0.00    +0.000 A 
ATOM     11  C   UNL     1       2.301   8.478  17.903  0.00  0.00    +0.000 A 
ATOM     12  C   UNL     1       1.863   9.722  18.404  0.00  0.00    +0.000 A 
ATOM     13  C   UNL     1       1.239   9.819  19.657  0.00  0.00    +0.000 A 
ATOM     14  C   UNL     1       0.701  11.147  20.236  0.00  0.00    +0.000 C 
ATOM     15  C   UNL     1       0.176  12.266  19.266  0.00  0.00    +0.000 C 
ATOM     16  C   UNL     1      -0.686  13.420  19.933  0.00  0.00    +0.000 C 
ATOM     17  C   UNL     1      -1.835  12.850  20.825  0.00  0.00    +0.000 C 
ATOM     18  C   UNL     1      -2.786  12.086  19.882  0.00  0.00    +0.000 C 
ENDROOT
BRANCH   1  23
ATOM     19  C   UNL     1      -4.748  16.711  21.184  0.00  0.00    +0.000 A 
ATOM     20  C   UNL     1      -5.646  16.585  22.234  0.00  0.00    +0.000 A 
ATOM     21  N   UNL     1      -5.744  15.484  23.010  0.00  0.00    +0.000 NA
ATOM     22  C   UNL     1      -4.856  14.488  22.753  0.00  0.00    +0.000 A 
ATOM     23  C   UNL     1      -3.882  14.505  21.740  0.00  0.00    +0.000 A 
ATOM     24  C   UNL     1      -3.857  15.658  20.942  0.00  0.00    +0.000 A 
BRANCH  19  26
ATOM     25  C   UNL     1      -4.150  17.866  19.235  0.00  0.00    +0.000 C 
ATOM     26  O   UNL     1      -4.737  17.912  20.530  0.00  0.00    +0.000 OA
ENDBRANCH  19  26
ENDBRANCH   1  23
BRANCH  10  27
ATOM     27  C   UNL     1       2.495   5.972  18.035  0.00  0.00    +0.000 C 
ATOM     28  O   UNL     1       1.642   5.112  17.860  0.00  0.00    +0.000 OA
ATOM     29  N   UNL     1       3.834   5.783  17.742  0.00  0.00    +0.000 N 
ATOM     30  H   UNL     1       4.516   6.497  17.978  0.00  0.00    +0.000 HD
BRANCH  29  31
ATOM     31  C   UNL     1       4.378   4.563  17.154  0.00  0.00    +0.000 C 
BRANCH  31  32
ATOM     32  C   UNL     1       5.574   4.805  16.191  0.00  0.00    +0.000 C 
ATOM     33  C   UNL     1       5.422   3.936  14.935  0.00  0.00    +0.000 C 
ATOM     34  C   UNL     1       5.588   6.295  15.799  0.00  0.00    +0.000 C 
BRANCH  32  35
ATOM     35  C   UNL     1       6.884   4.466  16.907  0.00  0.00    +0.000 C 
ATOM     36  O   UNL     1       7.991   4.528  16.388  0.00  0.00    +0.000 OA
BRANCH  35  37
ATOM     37  O   UNL     1       6.745   4.088  18.199  0.00  0.00    +0.000 OA
ATOM     38  H   UNL     1       7.486   3.573  18.569  0.00  0.00    +0.000 HD
ENDBRANCH  35  37
ENDBRANCH  32  35
ENDBRANCH  31  32
ENDBRANCH  29  31
ENDBRANCH  10  27
TORSDOF 7
ENDMDL
MODEL 4
REMARK VINA RESULT:      -8.3      1.853      2.498
REMARK  Name = 
REMARK  11 active torsions:
REMARK  status: ('A' for Active; 'I' for Inactive)
REMARK    1  A    between atoms: C_1  and  O_2
REMARK    2  A    between atoms: O_2  and  C_3
REMARK    3  A    between atoms: C_7  and  C_8
REMARK    4  A    between atoms: C_17  and  C_18
REMARK    5  A    between atoms: N_20  and  C_21
REMARK    6  A    between atoms: C_21  and  C_22
REMARK    7  A    between atoms: C_22  and  C_23
REMARK    8  A    between atoms: C_22  and  C_24
REMARK    9  A    between atoms: C_22  and  C_25
REMARK   10  A    between atoms: C_25  and  O_27
REMARK   11  A    between atoms: C_34  and  C_35
REMARK                            x       y       z     vdW  Elec       q    Type
REMARK                         _______ _______ _______ _____ _____    ______ ____
ROOT
ATOM      1  C   UNL     1      -3.065  13.512  21.441  0.00  0.00    +0.000 C 
ATOM      2  C   UNL     1      -3.001  12.963  22.673  0.00  0.00    +0.000 C 
ATOM      3  C   UNL     1      -2.137  11.769  22.726  0.00  0.00    +0.000 C 
ATOM      4  C   UNL     1      -1.244  12.053  21.541  0.00  0.00    +0.000 C 
ATOM      5  C   UNL     1      -0.456  10.876  21.017  0.00  0.00    +0.000 C 
ATOM      6  C   UNL     1       0.279  10.144  22.144  0.00  0.00    +0.000 C 
ATOM      7  C   UNL     1       0.733   8.802  21.620  0.00  0.00    +0.000 C 
ATOM      8  C   UNL     1       1.329   8.879  20.237  0.00  0.00    +0.000 A 
ATOM      9  C   UNL     1       1.889   7.681  19.752  0.00  0.00    +0.000 A 
ATOM     10  C   UNL     1       2.459   7.626  18.489  0.00  0.00    +0.000 A 
ATOM     11  C   UNL     1       2.539   8.809  17.741  0.00  0.00    +0.000 A 
ATOM     12  C   UNL     1       1.957  10.008  18.205  0.00  0.00    +0.000 A 
ATOM     13  C   UNL     1       1.290  10.059  19.439  0.00  0.00    +0.000 A 
ATOM     14  C   UNL     1       0.598  11.332  19.976  0.00  0.00    +0.000 C 
ATOM     15  C   UNL     1      -0.013  12.373  18.971  0.00  0.00    +0.000 C 
ATOM     16  C   UNL     1      -1.011  13.441  19.590  0.00  0.00    +0.000 C 
ATOM     17  C   UNL     1      -2.119  12.766  20.461  0.00  0.00    +0.000 C 
ATOM     18  C   UNL     1      -2.957  11.890  19.507  0.00  0.00    +0.000 C 
ENDROOT
BRANCH   1  23
ATOM     19  C   UNL     1      -5.634  16.198  21.873  0.00  0.00    +0.000 A 
ATOM     20  C   UNL     1      -6.760  15.396  21.992  0.00  0.00    +0.000 A 
ATOM     21  N   UNL     1      -6.767  14.069  21.741  0.00  0.00    +0.000 NA
ATOM     22  C   UNL     1      -5.570  13.515  21.411  0.00  0.00    +0.000 A 
ATOM     23  C   UNL     1      -4.356  14.211  21.287  0.00  0.00    +0.000 A 
ATOM     24  C   UNL     1      -4.422  15.592  21.520  0.00  0.00    +0.000 A 
BRANCH  19  26
ATOM     25  C   UNL     1      -7.125  17.904  22.470  0.00  0.00    +0.000 C 
ATOM     26  O   UNL     1      -5.781  17.513  22.218  0.00  0.00    +0.000 OA
ENDBRANCH  19  26
ENDBRANCH   1  23
BRANCH  10  27
ATOM     27  C   UNL     1       2.992   6.341  17.927  0.00  0.00    +0.000 C 
ATOM     28  O   UNL     1       3.896   6.361  17.102  0.00  0.00    +0.000 OA
ATOM     29  N   UNL     1       2.385   5.175  18.360  0.00  0.00    +0.000 N 
ATOM     30  H   UNL     1       1.587   5.215  18.986  0.00  0.00    +0.000 HD
BRANCH  29  31
ATOM     31  C   UNL     1       2.776   3.839  17.923  0.00  0.00    +0.000 C 
BRANCH  31  32
ATOM     32  C   UNL     1       3.089   2.859  19.087  0.00  0.00    +0.000 C 
ATOM     33  C   UNL     1       2.150   3.133  20.271  0.00  0.00    +0.000 C 
ATOM     34  C   UNL     1       2.883   1.418  18.579  0.00  0.00    +0.000 C 
BRANCH  32  35
ATOM     35  C   UNL     1       4.545   3.030  19.524  0.00  0.00    +0.000 C 
ATOM     36  O   UNL     1       5.189   4.064  19.395  0.00  0.00    +0.000 OA
BRANCH  35  37
ATOM     37  O   UNL     1       5.102   1.934  20.092  0.00  0.00    +0.000 OA
ATOM     38  H   UNL     1       6.064   1.982  20.245  0.00  0.00    +0.000 HD
ENDBRANCH  35  37
ENDBRANCH  32  35
ENDBRANCH  31  32
ENDBRANCH  29  31
ENDBRANCH  10  27
TORSDOF 7
ENDMDL
MODEL 5
REMARK VINA RESULT:      -8.2      1.306      1.570
REMARK  Name = 
REMARK  11 active torsions:
REMARK  status: ('A' for Active; 'I' for Inactive)
REMARK    1  A    between atoms: C_1  and  O_2
REMARK    2  A    between atoms: O_2  and  C_3
REMARK    3  A    between atoms: C_7  and  C_8
REMARK    4  A    between atoms: C_17  and  C_18
REMARK    5  A    between atoms: N_20  and  C_21
REMARK    6  A    between atoms: C_21  and  C_22
REMARK    7  A    between atoms: C_22  and  C_23
REMARK    8  A    between atoms: C_22  and  C_24
REMARK    9  A    between atoms: C_22  and  C_25
REMARK   10  A    between atoms: C_25  and  O_27
REMARK   11  A    between atoms: C_34  and  C_35
REMARK                            x       y       z     vdW  Elec       q    Type
REMARK                         _______ _______ _______ _____ _____    ______ ____
ROOT
ATOM      1  C   UNL     1      -3.656  13.343  20.874  0.00  0.00    +0.000 C 
ATOM      2  C   UNL     1      -3.477  13.095  22.189  0.00  0.00    +0.000 C 
ATOM      3  C   UNL     1      -2.492  12.027  22.443  0.00  0.00    +0.000 C 
ATOM      4  C   UNL     1      -1.692  12.115  21.164  0.00  0.00    +0.000 C 
ATOM      5  C   UNL     1      -0.812  10.926  20.858  0.00  0.00    +0.000 C 
ATOM      6  C   UNL     1       0.048  10.536  22.064  0.00  0.00    +0.000 C 
ATOM      7  C   UNL     1       0.613   9.157  21.817  0.00  0.00    +0.000 C 
ATOM      8  C   UNL     1       1.130   8.974  20.412  0.00  0.00    +0.000 A 
ATOM      9  C   UNL     1       1.786   7.752  20.165  0.00  0.00    +0.000 A 
ATOM     10  C   UNL     1       2.297   7.465  18.908  0.00  0.00    +0.000 A 
ATOM     11  C   UNL     1       2.218   8.451  17.915  0.00  0.00    +0.000 A 
ATOM     12  C   UNL     1       1.539   9.667  18.143  0.00  0.00    +0.000 A 
ATOM     13  C   UNL     1       0.930   9.934  19.379  0.00  0.00    +0.000 A 
ATOM     14  C   UNL     1       0.137  11.228  19.671  0.00  0.00    +0.000 C 
ATOM     15  C   UNL     1      -0.626  11.956  18.507  0.00  0.00    +0.000 C 
ATOM     16  C   UNL     1      -1.699  13.041  18.945  0.00  0.00    +0.000 C 
ATOM     17  C   UNL     1      -2.687  12.484  20.018  0.00  0.00    +0.000 C 
ATOM     18  C   UNL     1      -3.475  11.344  19.342  0.00  0.00    +0.000 C 
ENDROOT
BRANCH   1  23
ATOM     19  C   UNL     1      -6.520  14.944  19.074  0.00  0.00    +0.000 A 
ATOM     20  C   UNL     1      -7.036  15.692  20.123  0.00  0.00    +0.000 A 
ATOM     21  N   UNL     1      -6.644  15.556  21.407  0.00  0.00    +0.000 NA
ATOM     22  C   UNL     1      -5.643  14.665  21.638  0.00  0.00    +0.000 A 
ATOM     23  C   UNL     1      -5.019  13.870  20.662  0.00  0.00    +0.000 A 
ATOM     24  C   UNL     1      -5.498  14.028  19.353  0.00  0.00    +0.000 A 
BRANCH  19  26
ATOM     25  C   UNL     1      -6.828  14.193  16.877  0.00  0.00    +0.000 C 
ATOM     26  O   UNL     1      -6.984  15.243  17.824  0.00  0.00    +0.000 OA
ENDBRANCH  19  26
ENDBRANCH   1  23
BRANCH  10  27
ATOM     27  C   UNL     1       2.933   6.139  18.607  0.00  0.00    +0.000 C 
ATOM     28  O   UNL     1       2.312   5.103  18.805  0.00  0.00    +0.000 OA
ATOM     29  N   UNL     1       4.236   6.166  18.145  0.00  0.00    +0.000 N 
ATOM     30  H   UNL     1       4.735   7.047  18.071  0.00  0.00    +0.000 HD
BRANCH  29  31
ATOM     31  C   UNL     1       5.006   4.976  17.798  0.00  0.00    +0.000 C 
BRANCH  31  32
ATOM     32  C   UNL     1       5.780   5.092  16.456  0.00  0.00    +0.000 C 
ATOM     33  C   UNL     1       5.567   3.825  15.614  0.00  0.00    +0.000 C 
ATOM     34  C   UNL     1       5.248   6.322  15.694  0.00  0.00    +0.000 C 
BRANCH  32  35
ATOM     35  C   UNL     1       7.271   5.288  16.740  0.00  0.00    +0.000 C 
ATOM     36  O   UNL     1       8.039   4.387  17.052  0.00  0.00    +0.000 OA
BRANCH  35  37
ATOM     37  O   UNL     1       7.712   6.562  16.611  0.00  0.00    +0.000 OA
ATOM     38  H   UNL     1       8.361   6.712  15.899  0.00  0.00    +0.000 HD
ENDBRANCH  35  37
ENDBRANCH  32  35
ENDBRANCH  31  32
ENDBRANCH  29  31
ENDBRANCH  10  27
TORSDOF 7
ENDMDL
MODEL 6
REMARK VINA RESULT:      -8.2      1.474      2.012
REMARK  Name = 
REMARK  11 active torsions:
REMARK  status: ('A' for Active; 'I' for Inactive)
REMARK    1  A    between atoms: C_1  and  O_2
REMARK    2  A    between atoms: O_2  and  C_3
REMARK    3  A    between atoms: C_7  and  C_8
REMARK    4  A    between atoms: C_17  and  C_18
REMARK    5  A    between atoms: N_20  and  C_21
REMARK    6  A    between atoms: C_21  and  C_22
REMARK    7  A    between atoms: C_22  and  C_23
REMARK    8  A    between atoms: C_22  and  C_24
REMARK    9  A    between atoms: C_22  and  C_25
REMARK   10  A    between atoms: C_25  and  O_27
REMARK   11  A    between atoms: C_34  and  C_35
REMARK                            x       y       z     vdW  Elec       q    Type
REMARK                         _______ _______ _______ _____ _____    ______ ____
ROOT
ATOM      1  C   UNL     1      -2.712  13.430  21.714  0.00  0.00    +0.000 C 
ATOM      2  C   UNL     1      -2.580  12.914  22.954  0.00  0.00    +0.000 C 
ATOM      3  C   UNL     1      -1.775  11.678  22.979  0.00  0.00    +0.000 C 
ATOM      4  C   UNL     1      -0.965  11.881  21.720  0.00  0.00    +0.000 C 
ATOM      5  C   UNL     1      -0.281  10.650  21.175  0.00  0.00    +0.000 C 
ATOM      6  C   UNL     1       0.502   9.912  22.265  0.00  0.00    +0.000 C 
ATOM      7  C   UNL     1       0.846   8.534  21.750  0.00  0.00    +0.000 C 
ATOM      8  C   UNL     1       1.334   8.540  20.323  0.00  0.00    +0.000 A 
ATOM      9  C   UNL     1       1.793   7.301  19.836  0.00  0.00    +0.000 A 
ATOM     10  C   UNL     1       2.258   7.180  18.535  0.00  0.00    +0.000 A 
ATOM     11  C   UNL     1       2.338   8.336  17.745  0.00  0.00    +0.000 A 
ATOM     12  C   UNL     1       1.856   9.577  18.214  0.00  0.00    +0.000 A 
ATOM     13  C   UNL     1       1.291   9.697  19.493  0.00  0.00    +0.000 A 
ATOM     14  C   UNL     1       0.709  11.020  20.041  0.00  0.00    +0.000 C 
ATOM     15  C   UNL     1       0.074  12.063  19.053  0.00  0.00    +0.000 C 
ATOM     16  C   UNL     1      -0.818  13.199  19.713  0.00  0.00    +0.000 C 
ATOM     17  C   UNL     1      -1.886  12.609  20.688  0.00  0.00    +0.000 C 
ATOM     18  C   UNL     1      -2.839  11.751  19.831  0.00  0.00    +0.000 C 
ENDROOT
BRANCH   1  23
ATOM     19  C   UNL     1      -4.981  16.406  21.741  0.00  0.00    +0.000 A 
ATOM     20  C   UNL     1      -6.051  15.849  22.426  0.00  0.00    +0.000 A 
ATOM     21  N   UNL     1      -6.166  14.531  22.697  0.00  0.00    +0.000 NA
ATOM     22  C   UNL     1      -5.125  13.746  22.311  0.00  0.00    +0.000 A 
ATOM     23  C   UNL     1      -3.974  14.192  21.638  0.00  0.00    +0.000 A 
ATOM     24  C   UNL     1      -3.933  15.563  21.349  0.00  0.00    +0.000 A 
BRANCH  19  26
ATOM     25  C   UNL     1      -6.106  18.269  20.874  0.00  0.00    +0.000 C 
ATOM     26  O   UNL     1      -4.989  17.765  21.596  0.00  0.00    +0.000 OA
ENDBRANCH  19  26
ENDBRANCH   1  23
BRANCH  10  27
ATOM     27  C   UNL     1       2.679   5.854  17.975  0.00  0.00    +0.000 C 
ATOM     28  O   UNL     1       1.916   4.898  18.023  0.00  0.00    +0.000 OA
ATOM     29  N   UNL     1       3.960   5.776  17.458  0.00  0.00    +0.000 N 
ATOM     30  H   UNL     1       4.583   6.576  17.513  0.00  0.00    +0.000 HD
BRANCH  29  31
ATOM     31  C   UNL     1       4.534   4.570  16.871  0.00  0.00    +0.000 C 
BRANCH  31  32
ATOM     32  C   UNL     1       6.021   4.719  16.446  0.00  0.00    +0.000 C 
ATOM     33  C   UNL     1       6.941   4.402  17.634  0.00  0.00    +0.000 C 
ATOM     34  C   UNL     1       6.298   3.736  15.293  0.00  0.00    +0.000 C 
BRANCH  32  35
ATOM     35  C   UNL     1       6.273   6.147  15.956  0.00  0.00    +0.000 C 
ATOM     36  O   UNL     1       5.480   6.798  15.287  0.00  0.00    +0.000 OA
BRANCH  35  37
ATOM     37  O   UNL     1       7.464   6.674  16.325  0.00  0.00    +0.000 OA
ATOM     38  H   UNL     1       7.497   7.647  16.372  0.00  0.00    +0.000 HD
ENDBRANCH  35  37
ENDBRANCH  32  35
ENDBRANCH  31  32
ENDBRANCH  29  31
ENDBRANCH  10  27
TORSDOF 7
ENDMDL
MODEL 7
REMARK VINA RESULT:      -8.1      1.108      1.396
REMARK  Name = 
REMARK  11 active torsions:
REMARK  status: ('A' for Active; 'I' for Inactive)
REMARK    1  A    between atoms: C_1  and  O_2
REMARK    2  A    between atoms: O_2  and  C_3
REMARK    3  A    between atoms: C_7  and  C_8
REMARK    4  A    between atoms: C_17  and  C_18
REMARK    5  A    between atoms: N_20  and  C_21
REMARK    6  A    between atoms: C_21  and  C_22
REMARK    7  A    between atoms: C_22  and  C_23
REMARK    8  A    between atoms: C_22  and  C_24
REMARK    9  A    between atoms: C_22  and  C_25
REMARK   10  A    between atoms: C_25  and  O_27
REMARK   11  A    between atoms: C_34  and  C_35
REMARK                            x       y       z     vdW  Elec       q    Type
REMARK                         _______ _______ _______ _____ _____    ______ ____
ROOT
ATOM      1  C   UNL     1      -3.268  13.275  21.729  0.00  0.00    +0.000 C 
ATOM      2  C   UNL     1      -3.105  12.760  22.967  0.00  0.00    +0.000 C 
ATOM      3  C   UNL     1      -2.181  11.611  22.994  0.00  0.00    +0.000 C 
ATOM      4  C   UNL     1      -1.375  11.908  21.750  0.00  0.00    +0.000 C 
ATOM      5  C   UNL     1      -0.563  10.757  21.206  0.00  0.00    +0.000 C 
ATOM      6  C   UNL     1       0.272  10.088  22.302  0.00  0.00    +0.000 C 
ATOM      7  C   UNL     1       0.760   8.757  21.781  0.00  0.00    +0.000 C 
ATOM      8  C   UNL     1       1.268   8.828  20.363  0.00  0.00    +0.000 A 
ATOM      9  C   UNL     1       1.856   7.646  19.872  0.00  0.00    +0.000 A 
ATOM     10  C   UNL     1       2.352   7.587  18.578  0.00  0.00    +0.000 A 
ATOM     11  C   UNL     1       2.329   8.753  17.801  0.00  0.00    +0.000 A 
ATOM     12  C   UNL     1       1.718   9.935  18.272  0.00  0.00    +0.000 A 
ATOM     13  C   UNL     1       1.124   9.984  19.543  0.00  0.00    +0.000 A 
ATOM     14  C   UNL     1       0.403  11.237  20.093  0.00  0.00    +0.000 C 
ATOM     15  C   UNL     1      -0.317  12.221  19.104  0.00  0.00    +0.000 C 
ATOM     16  C   UNL     1      -1.328  13.255  19.759  0.00  0.00    +0.000 C 
ATOM     17  C   UNL     1      -2.347  12.551  20.710  0.00  0.00    +0.000 C 
ATOM     18  C   UNL     1      -3.196  11.612  19.829  0.00  0.00    +0.000 C 
ENDROOT
BRANCH   1  23
ATOM     19  C   UNL     1      -6.773  13.839  20.545  0.00  0.00    +0.000 A 
ATOM     20  C   UNL     1      -6.770  15.226  20.530  0.00  0.00    +0.000 A 
ATOM     21  N   UNL     1      -5.787  15.981  21.066  0.00  0.00    +0.000 NA
ATOM     22  C   UNL     1      -4.729  15.306  21.588  0.00  0.00    +0.000 A 
ATOM     23  C   UNL     1      -4.599  13.907  21.638  0.00  0.00    +0.000 A 
ATOM     24  C   UNL     1      -5.671  13.179  21.103  0.00  0.00    +0.000 A 
BRANCH  19  26
ATOM     25  C   UNL     1      -7.424  12.314  18.889  0.00  0.00    +0.000 C 
ATOM     26  O   UNL     1      -7.816  13.223  19.911  0.00  0.00    +0.000 OA
ENDBRANCH  19  26
ENDBRANCH   1  23
BRANCH  10  27
ATOM     27  C   UNL     1       2.913   6.315  18.013  0.00  0.00    +0.000 C 
ATOM     28  O   UNL     1       2.394   5.241  18.288  0.00  0.00    +0.000 OA
ATOM     29  N   UNL     1       4.042   6.431  17.223  0.00  0.00    +0.000 N 
ATOM     30  H   UNL     1       4.481   7.337  17.088  0.00  0.00    +0.000 HD
BRANCH  29  31
ATOM     31  C   UNL     1       4.717   5.303  16.589  0.00  0.00    +0.000 C 
BRANCH  31  32
ATOM     32  C   UNL     1       6.263   5.324  16.742  0.00  0.00    +0.000 C 
ATOM     33  C   UNL     1       6.736   6.740  17.104  0.00  0.00    +0.000 C 
ATOM     34  C   UNL     1       6.654   4.340  17.861  0.00  0.00    +0.000 C 
BRANCH  32  35
ATOM     35  C   UNL     1       6.914   4.874  15.432  0.00  0.00    +0.000 C 
ATOM     36  O   UNL     1       7.771   5.510  14.831  0.00  0.00    +0.000 OA
BRANCH  35  37
ATOM     37  O   UNL     1       6.479   3.681  14.962  0.00  0.00    +0.000 OA
ATOM     38  H   UNL     1       6.075   3.701  14.074  0.00  0.00    +0.000 HD
ENDBRANCH  35  37
ENDBRANCH  32  35
ENDBRANCH  31  32
ENDBRANCH  29  31
ENDBRANCH  10  27
TORSDOF 7
ENDMDL
MODEL 8
REMARK VINA RESULT:      -8.0      1.896      2.800
REMARK  Name = 
REMARK  11 active torsions:
REMARK  status: ('A' for Active; 'I' for Inactive)
REMARK    1  A    between atoms: C_1  and  O_2
REMARK    2  A    between atoms: O_2  and  C_3
REMARK    3  A    between atoms: C_7  and  C_8
REMARK    4  A    between atoms: C_17  and  C_18
REMARK    5  A    between atoms: N_20  and  C_21
REMARK    6  A    between atoms: C_21  and  C_22
REMARK    7  A    between atoms: C_22  and  C_23
REMARK    8  A    between atoms: C_22  and  C_24
REMARK    9  A    between atoms: C_22  and  C_25
REMARK   10  A    between atoms: C_25  and  O_27
REMARK   11  A    between atoms: C_34  and  C_35
REMARK                            x       y       z     vdW  Elec       q    Type
REMARK                         _______ _______ _______ _____ _____    ______ ____
ROOT
ATOM      1  C   UNL     1      -3.304  13.279  21.318  0.00  0.00    +0.000 C 
ATOM      2  C   UNL     1      -3.155  12.830  22.583  0.00  0.00    +0.000 C 
ATOM      3  C   UNL     1      -2.194  11.716  22.687  0.00  0.00    +0.000 C 
ATOM      4  C   UNL     1      -1.367  11.982  21.451  0.00  0.00    +0.000 C 
ATOM      5  C   UNL     1      -0.502  10.835  20.982  0.00  0.00    +0.000 C 
ATOM      6  C   UNL     1       0.327  10.250  22.129  0.00  0.00    +0.000 C 
ATOM      7  C   UNL     1       0.873   8.913  21.684  0.00  0.00    +0.000 C 
ATOM      8  C   UNL     1       1.415   8.935  20.277  0.00  0.00    +0.000 A 
ATOM      9  C   UNL     1       2.054   7.752  19.858  0.00  0.00    +0.000 A 
ATOM     10  C   UNL     1       2.585   7.649  18.581  0.00  0.00    +0.000 A 
ATOM     11  C   UNL     1       2.542   8.775  17.747  0.00  0.00    +0.000 A 
ATOM     12  C   UNL     1       1.879   9.956  18.147  0.00  0.00    +0.000 A 
ATOM     13  C   UNL     1       1.252  10.045  19.399  0.00  0.00    +0.000 A 
ATOM     14  C   UNL     1       0.475  11.296  19.871  0.00  0.00    +0.000 C 
ATOM     15  C   UNL     1      -0.252  12.206  18.818  0.00  0.00    +0.000 C 
ATOM     16  C   UNL     1      -1.314  13.234  19.398  0.00  0.00    +0.000 C 
ATOM     17  C   UNL     1      -2.333  12.540  20.358  0.00  0.00    +0.000 C 
ATOM     18  C   UNL     1      -3.127  11.532  19.502  0.00  0.00    +0.000 C 
ENDROOT
BRANCH   1  23
ATOM     19  C   UNL     1      -6.656  14.591  22.337  0.00  0.00    +0.000 A 
ATOM     20  C   UNL     1      -7.413  14.068  21.298  0.00  0.00    +0.000 A 
ATOM     21  N   UNL     1      -6.881  13.497  20.196  0.00  0.00    +0.000 NA
ATOM     22  C   UNL     1      -5.526  13.396  20.167  0.00  0.00    +0.000 A 
ATOM     23  C   UNL     1      -4.652  13.859  21.165  0.00  0.00    +0.000 A 
ATOM     24  C   UNL     1      -5.262  14.479  22.265  0.00  0.00    +0.000 A 
BRANCH  19  26
ATOM     25  C   UNL     1      -7.917  14.087  24.247  0.00  0.00    +0.000 C 
ATOM     26  O   UNL     1      -7.348  15.085  23.408  0.00  0.00    +0.000 OA
ENDBRANCH  19  26
ENDBRANCH   1  23
BRANCH  10  27
ATOM     27  C   UNL     1       3.203   6.372  18.091  0.00  0.00    +0.000 C 
ATOM     28  O   UNL     1       3.779   6.344  17.012  0.00  0.00    +0.000 OA
ATOM     29  N   UNL     1       3.047   5.258  18.896  0.00  0.00    +0.000 N 
ATOM     30  H   UNL     1       2.493   5.314  19.746  0.00  0.00    +0.000 HD
BRANCH  29  31
ATOM     31  C   UNL     1       3.584   3.938  18.581  0.00  0.00    +0.000 C 
BRANCH  31  32
ATOM     32  C   UNL     1       2.753   2.762  19.163  0.00  0.00    +0.000 C 
ATOM     33  C   UNL     1       3.232   1.432  18.563  0.00  0.00    +0.000 C 
ATOM     34  C   UNL     1       2.943   2.744  20.693  0.00  0.00    +0.000 C 
BRANCH  32  35
ATOM     35  C   UNL     1       1.271   2.975  18.848  0.00  0.00    +0.000 C 
ATOM     36  O   UNL     1       0.847   3.420  17.788  0.00  0.00    +0.000 OA
BRANCH  35  37
ATOM     37  O   UNL     1       0.421   2.623  19.841  0.00  0.00    +0.000 OA
ATOM     38  H   UNL     1      -0.506   2.485  19.572  0.00  0.00    +0.000 HD
ENDBRANCH  35  37
ENDBRANCH  32  35
ENDBRANCH  31  32
ENDBRANCH  29  31
ENDBRANCH  10  27
TORSDOF 7
ENDMDL
MODEL 9
REMARK VINA RESULT:      -8.0      1.800      2.565
REMARK  Name = 
REMARK  11 active torsions:
REMARK  status: ('A' for Active; 'I' for Inactive)
REMARK    1  A    between atoms: C_1  and  O_2
REMARK    2  A    between atoms: O_2  and  C_3
REMARK    3  A    between atoms: C_7  and  C_8
REMARK    4  A    between atoms: C_17  and  C_18
REMARK    5  A    between atoms: N_20  and  C_21
REMARK    6  A    between atoms: C_21  and  C_22
REMARK    7  A    between atoms: C_22  and  C_23
REMARK    8  A    between atoms: C_22  and  C_24
REMARK    9  A    between atoms: C_22  and  C_25
REMARK   10  A    between atoms: C_25  and  O_27
REMARK   11  A    between atoms: C_34  and  C_35
REMARK                            x       y       z     vdW  Elec       q    Type
REMARK                         _______ _______ _______ _____ _____    ______ ____
ROOT
ATOM      1  C   UNL     1      -2.754  13.605  21.621  0.00  0.00    +0.000 C 
ATOM      2  C   UNL     1      -2.566  13.133  22.873  0.00  0.00    +0.000 C 
ATOM      3  C   UNL     1      -1.714  11.930  22.911  0.00  0.00    +0.000 C 
ATOM      4  C   UNL     1      -0.949  12.124  21.623  0.00  0.00    +0.000 C 
ATOM      5  C   UNL     1      -0.233  10.902  21.096  0.00  0.00    +0.000 C 
ATOM      6  C   UNL     1       0.609  10.229  22.183  0.00  0.00    +0.000 C 
ATOM      7  C   UNL     1       0.990   8.850  21.701  0.00  0.00    +0.000 C 
ATOM      8  C   UNL     1       1.437   8.830  20.261  0.00  0.00    +0.000 A 
ATOM      9  C   UNL     1       1.929   7.594  19.798  0.00  0.00    +0.000 A 
ATOM     10  C   UNL     1       2.361   7.449  18.488  0.00  0.00    +0.000 A 
ATOM     11  C   UNL     1       2.374   8.582  17.662  0.00  0.00    +0.000 A 
ATOM     12  C   UNL     1       1.857   9.818  18.106  0.00  0.00    +0.000 A 
ATOM     13  C   UNL     1       1.326   9.957  19.397  0.00  0.00    +0.000 A 
ATOM     14  C   UNL     1       0.708  11.274  19.922  0.00  0.00    +0.000 C 
ATOM     15  C   UNL     1       0.005  12.260  18.922  0.00  0.00    +0.000 C 
ATOM     16  C   UNL     1      -0.910  13.382  19.573  0.00  0.00    +0.000 C 
ATOM     17  C   UNL     1      -1.926  12.783  20.597  0.00  0.00    +0.000 C 
ATOM     18  C   UNL     1      -2.870  11.863  19.795  0.00  0.00    +0.000 C 
ENDROOT
BRANCH   1  23
ATOM     19  C   UNL     1      -6.345  14.215  20.763  0.00  0.00    +0.000 A 
ATOM     20  C   UNL     1      -6.264  15.569  20.468  0.00  0.00    +0.000 A 
ATOM     21  N   UNL     1      -5.178  16.329  20.721  0.00  0.00    +0.000 NA
ATOM     22  C   UNL     1      -4.102  15.683  21.243  0.00  0.00    +0.000 A 
ATOM     23  C   UNL     1      -4.047  14.315  21.560  0.00  0.00    +0.000 A 
ATOM     24  C   UNL     1      -5.220  13.587  21.312  0.00  0.00    +0.000 A 
BRANCH  19  26
ATOM     25  C   UNL     1      -7.890  12.528  21.270  0.00  0.00    +0.000 C 
ATOM     26  O   UNL     1      -7.495  13.576  20.393  0.00  0.00    +0.000 OA
ENDBRANCH  19  26
ENDBRANCH   1  23
BRANCH  10  27
ATOM     27  C   UNL     1       2.817   6.122  17.957  0.00  0.00    +0.000 C 
ATOM     28  O   UNL     1       3.800   6.059  17.230  0.00  0.00    +0.000 OA
ATOM     29  N   UNL     1       2.054   5.021  18.299  0.00  0.00    +0.000 N 
ATOM     30  H   UNL     1       1.202   5.136  18.839  0.00  0.00    +0.000 HD
BRANCH  29  31
ATOM     31  C   UNL     1       2.351   3.656  17.876  0.00  0.00    +0.000 C 
BRANCH  31  32
ATOM     32  C   UNL     1       2.677   2.688  19.047  0.00  0.00    +0.000 C 
ATOM     33  C   UNL     1       3.078   1.312  18.496  0.00  0.00    +0.000 C 
ATOM     34  C   UNL     1       3.841   3.285  19.861  0.00  0.00    +0.000 C 
BRANCH  32  35
ATOM     35  C   UNL     1       1.452   2.552  19.954  0.00  0.00    +0.000 C 
ATOM     36  O   UNL     1       1.503   2.443  21.173  0.00  0.00    +0.000 OA
BRANCH  35  37
ATOM     37  O   UNL     1       0.261   2.571  19.310  0.00  0.00    +0.000 OA
ATOM     38  H   UNL     1       0.270   2.221  18.399  0.00  0.00    +0.000 HD
ENDBRANCH  35  37
ENDBRANCH  32  35
ENDBRANCH  31  32
ENDBRANCH  29  31
ENDBRANCH  10  27
TORSDOF 7
ENDMDL
