MODEL 1
REMARK VINA RESULT:      -7.7      0.000      0.000
REMARK  Name = 
REMARK  15 active torsions:
REMARK  status: ('A' for Active; 'I' for Inactive)
REMARK    1  A    between atoms: C_1  and  C_2
REMARK    2  A    between atoms: C_2  and  C_3
REMARK    3  A    between atoms: C_2  and  N_4
REMARK    4  A    between atoms: N_4  and  C_5
REMARK    5  A    between atoms: C_5  and  C_6
REMARK    6  A    between atoms: C_6  and  C_7
REMARK    7  A    between atoms: C_10  and  S_11
REMARK    8  A    between atoms: S_11  and  N_14
REMARK    9  A    between atoms: N_14  and  C_15
REMARK   10  A    between atoms: N_14  and  C_16
REMARK   11  A    between atoms: N_21  and  C_22
REMARK   12  A    between atoms: N_21  and  C_23
REMARK   13  A    between atoms: C_23  and  C_24
REMARK   14  A    between atoms: C_24  and  C_25
REMARK   15  A    between atoms: C_25  and  C_26
REMARK                            x       y       z     vdW  Elec       q    Type
REMARK                         _______ _______ _______ _____ _____    ______ ____
ROOT
ATOM      1  N   UNL     1       3.057   4.487  19.061  0.00  0.00    +0.000 N 
ATOM      2  C   UNL     1       4.404   4.245  18.826  0.00  0.00    +0.000 C 
ATOM      3  O   UNL     1       4.882   3.161  19.187  0.00  0.00    +0.000 OA
ATOM      4  N   UNL     1       5.261   5.157  18.215  0.00  0.00    +0.000 N 
ATOM      5  C   UNL     1       5.072   6.505  17.685  0.00  0.00    +0.000 C 
ENDROOT
BRANCH   1   7
ATOM      6  C   UNL     1       1.846   3.879  21.250  0.00  0.00    +0.000 C 
ATOM      7  C   UNL     1       2.279   3.464  19.839  0.00  0.00    +0.000 C 
ATOM      8  C   UNL     1       1.072   2.921  19.061  0.00  0.00    +0.000 C 
ENDBRANCH   1   7
BRANCH   1   9
ATOM      9  C   UNL     1       2.309   5.723  18.794  0.00  0.00    +0.000 C 
BRANCH   9  10
ATOM     10  C   UNL     1       2.564   6.865  19.798  0.00  0.00    +0.000 C 
BRANCH  10  11
ATOM     11  C   UNL     1       1.807   8.140  19.516  0.00  0.00    +0.000 A 
ATOM     12  C   UNL     1       1.836   8.738  18.250  0.00  0.00    +0.000 A 
ATOM     13  C   UNL     1       1.170   9.944  18.025  0.00  0.00    +0.000 A 
ATOM     14  C   UNL     1       0.469  10.555  19.071  0.00  0.00    +0.000 A 
ATOM     15  C   UNL     1       0.423   9.960  20.332  0.00  0.00    +0.000 A 
ATOM     16  C   UNL     1       1.074   8.748  20.546  0.00  0.00    +0.000 A 
BRANCH  14  17
ATOM     17  S   UNL     1      -0.219  12.182  18.840  0.00  0.00    +0.000 S 
ATOM     18  O   UNL     1       0.792  13.015  18.233  0.00  0.00    +0.000 OA
ATOM     19  O   UNL     1      -1.514  12.007  18.207  0.00  0.00    +0.000 OA
BRANCH  17  20
ATOM     20  N   UNL     1      -0.478  12.744  20.435  0.00  0.00    +0.000 NA
ATOM     21  C   UNL     1       0.419  13.840  20.869  0.00  0.00    +0.000 C 
ATOM     22  C   UNL     1      -1.898  13.095  20.681  0.00  0.00    +0.000 C 
ENDBRANCH  17  20
ENDBRANCH  14  17
ENDBRANCH  10  11
ENDBRANCH   9  10
ENDBRANCH   1   9
BRANCH   4  23
ATOM     23  C   UNL     1       6.672   4.726  18.117  0.00  0.00    +0.000 C 
BRANCH  23  24
ATOM     24  C   UNL     1       7.123   4.322  16.708  0.00  0.00    +0.000 C 
BRANCH  24  25
ATOM     25  C   UNL     1       5.982   4.091  15.714  0.00  0.00    +0.000 C 
BRANCH  25  26
ATOM     26  C   UNL     1       6.454   4.253  14.290  0.00  0.00    +0.000 A 
ATOM     27  C   UNL     1       6.025   3.345  13.311  0.00  0.00    +0.000 A 
ATOM     28  C   UNL     1       6.497   3.438  12.002  0.00  0.00    +0.000 A 
ATOM     29  C   UNL     1       7.403   4.440  11.659  0.00  0.00    +0.000 A 
ATOM     30  C   UNL     1       7.829   5.352  12.623  0.00  0.00    +0.000 A 
ATOM     31  C   UNL     1       7.358   5.261  13.935  0.00  0.00    +0.000 A 
ENDBRANCH  25  26
ENDBRANCH  24  25
ENDBRANCH  23  24
ENDBRANCH   4  23
TORSDOF 10
ENDMDL
MODEL 2
REMARK VINA RESULT:      -7.6      1.052      1.546
REMARK  Name = 
REMARK  15 active torsions:
REMARK  status: ('A' for Active; 'I' for Inactive)
REMARK    1  A    between atoms: C_1  and  C_2
REMARK    2  A    between atoms: C_2  and  C_3
REMARK    3  A    between atoms: C_2  and  N_4
REMARK    4  A    between atoms: N_4  and  C_5
REMARK    5  A    between atoms: C_5  and  C_6
REMARK    6  A    between atoms: C_6  and  C_7
REMARK    7  A    between atoms: C_10  and  S_11
REMARK    8  A    between atoms: S_11  and  N_14
REMARK    9  A    between atoms: N_14  and  C_15
REMARK   10  A    between atoms: N_14  and  C_16
REMARK   11  A    between atoms: N_21  and  C_22
REMARK   12  A    between atoms: N_21  and  C_23
REMARK   13  A    between atoms: C_23  and  C_24
REMARK   14  A    between atoms: C_24  and  C_25
REMARK   15  A    between atoms: C_25  and  C_26
REMARK                            x       y       z     vdW  Elec       q    Type
REMARK                         _______ _______ _______ _____ _____    ______ ____
ROOT
ATOM      1  N   UNL     1       3.122   4.425  19.223  0.00  0.00    +0.000 N 
ATOM      2  C   UNL     1       4.476   4.278  18.952  0.00  0.00    +0.000 C 
ATOM      3  O   UNL     1       5.031   3.218  19.270  0.00  0.00    +0.000 OA
ATOM      4  N   UNL     1       5.258   5.262  18.352  0.00  0.00    +0.000 N 
ATOM      5  C   UNL     1       4.971   6.611  17.869  0.00  0.00    +0.000 C 
ENDROOT
BRANCH   1   7
ATOM      6  C   UNL     1       2.332   3.525  21.502  0.00  0.00    +0.000 C 
ATOM      7  C   UNL     1       2.430   3.331  19.985  0.00  0.00    +0.000 C 
ATOM      8  C   UNL     1       1.046   2.995  19.411  0.00  0.00    +0.000 C 
ENDBRANCH   1   7
BRANCH   1   9
ATOM      9  C   UNL     1       2.290   5.617  19.010  0.00  0.00    +0.000 C 
BRANCH   9  10
ATOM     10  C   UNL     1       2.298   6.629  20.174  0.00  0.00    +0.000 C 
BRANCH  10  11
ATOM     11  C   UNL     1       1.623   7.945  19.875  0.00  0.00    +0.000 A 
ATOM     12  C   UNL     1       0.980   8.678  20.881  0.00  0.00    +0.000 A 
ATOM     13  C   UNL     1       0.318   9.868  20.573  0.00  0.00    +0.000 A 
ATOM     14  C   UNL     1       0.300  10.329  19.252  0.00  0.00    +0.000 A 
ATOM     15  C   UNL     1       0.948   9.614  18.245  0.00  0.00    +0.000 A 
ATOM     16  C   UNL     1       1.622   8.437  18.562  0.00  0.00    +0.000 A 
BRANCH  14  17
ATOM     17  S   UNL     1      -0.701  11.740  18.825  0.00  0.00    +0.000 S 
ATOM     18  O   UNL     1      -1.434  11.423  17.622  0.00  0.00    +0.000 OA
ATOM     19  O   UNL     1      -1.395  12.147  20.033  0.00  0.00    +0.000 OA
BRANCH  17  20
ATOM     20  N   UNL     1       0.447  12.949  18.439  0.00  0.00    +0.000 NA
ATOM     21  C   UNL     1       0.033  14.335  18.761  0.00  0.00    +0.000 C 
ATOM     22  C   UNL     1       1.785  12.652  19.006  0.00  0.00    +0.000 C 
ENDBRANCH  17  20
ENDBRANCH  14  17
ENDBRANCH  10  11
ENDBRANCH   9  10
ENDBRANCH   1   9
BRANCH   4  23
ATOM     23  C   UNL     1       6.691   4.928  18.212  0.00  0.00    +0.000 C 
BRANCH  23  24
ATOM     24  C   UNL     1       7.100   4.424  16.822  0.00  0.00    +0.000 C 
BRANCH  24  25
ATOM     25  C   UNL     1       7.062   5.489  15.722  0.00  0.00    +0.000 C 
BRANCH  25  26
ATOM     26  C   UNL     1       6.796   4.871  14.371  0.00  0.00    +0.000 A 
ATOM     27  C   UNL     1       5.712   3.997  14.210  0.00  0.00    +0.000 A 
ATOM     28  C   UNL     1       5.484   3.366  12.987  0.00  0.00    +0.000 A 
ATOM     29  C   UNL     1       6.338   3.605  11.912  0.00  0.00    +0.000 A 
ATOM     30  C   UNL     1       7.414   4.479  12.059  0.00  0.00    +0.000 A 
ATOM     31  C   UNL     1       7.644   5.111  13.283  0.00  0.00    +0.000 A 
ENDBRANCH  25  26
ENDBRANCH  24  25
ENDBRANCH  23  24
ENDBRANCH   4  23
TORSDOF 10
ENDMDL
MODEL 3
REMARK VINA RESULT:      -7.5      1.256      2.004
REMARK  Name = 
REMARK  15 active torsions:
REMARK  status: ('A' for Active; 'I' for Inactive)
REMARK    1  A    between atoms: C_1  and  C_2
REMARK    2  A    between atoms: C_2  and  C_3
REMARK    3  A    between atoms: C_2  and  N_4
REMARK    4  A    between atoms: N_4  and  C_5
REMARK    5  A    between atoms: C_5  and  C_6
REMARK    6  A    between atoms: C_6  and  C_7
REMARK    7  A    between atoms: C_10  and  S_11
REMARK    8  A    between atoms: S_11  and  N_14
REMARK    9  A    between atoms: N_14  and  C_15
REMARK   10  A    between atoms: N_14  and  C_16
REMARK   11  A    between atoms: N_21  and  C_22
REMARK   12  A    between atoms: N_21  and  C_23
REMARK   13  A    between atoms: C_23  and  C_24
REMARK   14  A    between atoms: C_24  and  C_25
REMARK   15  A    between atoms: C_25  and  C_26
REMARK                            x       y       z     vdW  Elec       q    Type
REMARK                         _______ _______ _______ _____ _____    ______ ____
ROOT
ATOM      1  N   UNL     1       2.791   4.418  19.371  0.00  0.00    +0.000 N 
ATOM      2  C   UNL     1       4.112   4.320  18.956  0.00  0.00    +0.000 C 
ATOM      3  O   UNL     1       4.693   3.234  19.080  0.00  0.00    +0.000 OA
ATOM      4  N   UNL     1       4.835   5.380  18.415  0.00  0.00    +0.000 N 
ATOM      5  C   UNL     1       4.505   6.777  18.138  0.00  0.00    +0.000 C 
ENDROOT
BRANCH   1   7
ATOM      6  C   UNL     1       2.246   3.213  21.581  0.00  0.00    +0.000 C 
ATOM      7  C   UNL     1       2.173   3.228  20.049  0.00  0.00    +0.000 C 
ATOM      8  C   UNL     1       0.729   2.972  19.594  0.00  0.00    +0.000 C 
ENDBRANCH   1   7
BRANCH   1   9
ATOM      9  C   UNL     1       1.945   5.619  19.394  0.00  0.00    +0.000 C 
BRANCH   9  10
ATOM     10  C   UNL     1       1.827   6.303  20.771  0.00  0.00    +0.000 C 
BRANCH  10  11
ATOM     11  C   UNL     1       1.510   7.778  20.721  0.00  0.00    +0.000 A 
ATOM     12  C   UNL     1       1.193   8.493  21.884  0.00  0.00    +0.000 A 
ATOM     13  C   UNL     1       0.853   9.845  21.809  0.00  0.00    +0.000 A 
ATOM     14  C   UNL     1       0.831  10.486  20.565  0.00  0.00    +0.000 A 
ATOM     15  C   UNL     1       1.158   9.787  19.404  0.00  0.00    +0.000 A 
ATOM     16  C   UNL     1       1.515   8.443  19.487  0.00  0.00    +0.000 A 
BRANCH  14  17
ATOM     17  S   UNL     1       0.215  12.154  20.445  0.00  0.00    +0.000 S 
ATOM     18  O   UNL     1      -1.200  12.132  20.732  0.00  0.00    +0.000 OA
ATOM     19  O   UNL     1       1.115  12.994  21.213  0.00  0.00    +0.000 OA
BRANCH  17  20
ATOM     20  N   UNL     1       0.410  12.540  18.789  0.00  0.00    +0.000 NA
ATOM     21  C   UNL     1      -0.851  12.702  18.028  0.00  0.00    +0.000 C 
ATOM     22  C   UNL     1       1.302  13.708  18.589  0.00  0.00    +0.000 C 
ENDBRANCH  17  20
ENDBRANCH  14  17
ENDBRANCH  10  11
ENDBRANCH   9  10
ENDBRANCH   1   9
BRANCH   4  23
ATOM     23  C   UNL     1       6.247   5.082  18.096  0.00  0.00    +0.000 C 
BRANCH  23  24
ATOM     24  C   UNL     1       6.599   5.160  16.606  0.00  0.00    +0.000 C 
BRANCH  24  25
ATOM     25  C   UNL     1       6.048   4.010  15.759  0.00  0.00    +0.000 C 
BRANCH  25  26
ATOM     26  C   UNL     1       6.494   4.124  14.322  0.00  0.00    +0.000 A 
ATOM     27  C   UNL     1       7.479   5.060  13.975  0.00  0.00    +0.000 A 
ATOM     28  C   UNL     1       7.862   5.226  12.644  0.00  0.00    +0.000 A 
ATOM     29  C   UNL     1       7.265   4.458  11.648  0.00  0.00    +0.000 A 
ATOM     30  C   UNL     1       6.291   3.519  11.982  0.00  0.00    +0.000 A 
ATOM     31  C   UNL     1       5.905   3.350  13.314  0.00  0.00    +0.000 A 
ENDBRANCH  25  26
ENDBRANCH  24  25
ENDBRANCH  23  24
ENDBRANCH   4  23
TORSDOF 10
ENDMDL
MODEL 4
REMARK VINA RESULT:      -7.5      0.897      1.645
REMARK  Name = 
REMARK  15 active torsions:
REMARK  status: ('A' for Active; 'I' for Inactive)
REMARK    1  A    between atoms: C_1  and  C_2
REMARK    2  A    between atoms: C_2  and  C_3
REMARK    3  A    between atoms: C_2  and  N_4
REMARK    4  A    between atoms: N_4  and  C_5
REMARK    5  A    between atoms: C_5  and  C_6
REMARK    6  A    between atoms: C_6  and  C_7
REMARK    7  A    between atoms: C_10  and  S_11
REMARK    8  A    between atoms: S_11  and  N_14
REMARK    9  A    between atoms: N_14  and  C_15
REMARK   10  A    between atoms: N_14  and  C_16
REMARK   11  A    between atoms: N_21  and  C_22
REMARK   12  A    between atoms: N_21  and  C_23
REMARK   13  A    between atoms: C_23  and  C_24
REMARK   14  A    between atoms: C_24  and  C_25
REMARK   15  A    between atoms: C_25  and  C_26
REMARK                            x       y       z     vdW  Elec       q    Type
REMARK                         _______ _______ _______ _____ _____    ______ ____
ROOT
ATOM      1  N   UNL     1       3.099   4.438  19.307  0.00  0.00    +0.000 N 
ATOM      2  C   UNL     1       4.446   4.291  19.006  0.00  0.00    +0.000 C 
ATOM      3  O   UNL     1       4.994   3.208  19.253  0.00  0.00    +0.000 OA
ATOM      4  N   UNL     1       5.231   5.299  18.449  0.00  0.00    +0.000 N 
ATOM      5  C   UNL     1       4.952   6.676  18.049  0.00  0.00    +0.000 C 
ENDROOT
BRANCH   1   7
ATOM      6  C   UNL     1       2.191   3.493  21.523  0.00  0.00    +0.000 C 
ATOM      7  C   UNL     1       2.406   3.310  20.017  0.00  0.00    +0.000 C 
ATOM      8  C   UNL     1       1.083   2.912  19.346  0.00  0.00    +0.000 C 
ENDBRANCH   1   7
BRANCH   1   9
ATOM      9  C   UNL     1       2.278   5.649  19.176  0.00  0.00    +0.000 C 
BRANCH   9  10
ATOM     10  C   UNL     1       2.389   6.638  20.354  0.00  0.00    +0.000 C 
BRANCH  10  11
ATOM     11  C   UNL     1       1.683   7.955  20.146  0.00  0.00    +0.000 A 
ATOM     12  C   UNL     1       1.029   8.605  21.201  0.00  0.00    +0.000 A 
ATOM     13  C   UNL     1       0.339   9.797  20.975  0.00  0.00    +0.000 A 
ATOM     14  C   UNL     1       0.303  10.344  19.687  0.00  0.00    +0.000 A 
ATOM     15  C   UNL     1       0.963   9.712  18.633  0.00  0.00    +0.000 A 
ATOM     16  C   UNL     1       1.665   8.533  18.868  0.00  0.00    +0.000 A 
BRANCH  14  17
ATOM     17  S   UNL     1      -0.731  11.757  19.358  0.00  0.00    +0.000 S 
ATOM     18  O   UNL     1      -1.161  11.688  17.982  0.00  0.00    +0.000 OA
ATOM     19  O   UNL     1      -1.701  11.831  20.436  0.00  0.00    +0.000 OA
BRANCH  17  20
ATOM     20  N   UNL     1       0.336  13.085  19.511  0.00  0.00    +0.000 NA
ATOM     21  C   UNL     1       0.842  13.331  20.882  0.00  0.00    +0.000 C 
ATOM     22  C   UNL     1       1.455  13.019  18.539  0.00  0.00    +0.000 C 
ENDBRANCH  17  20
ENDBRANCH  14  17
ENDBRANCH  10  11
ENDBRANCH   9  10
ENDBRANCH   1   9
BRANCH   4  23
ATOM     23  C   UNL     1       6.657   4.957  18.266  0.00  0.00    +0.000 C 
BRANCH  23  24
ATOM     24  C   UNL     1       7.000   4.342  16.904  0.00  0.00    +0.000 C 
BRANCH  24  25
ATOM     25  C   UNL     1       7.256   5.361  15.791  0.00  0.00    +0.000 C 
BRANCH  25  26
ATOM     26  C   UNL     1       6.967   4.771  14.432  0.00  0.00    +0.000 A 
ATOM     27  C   UNL     1       7.730   5.175  13.326  0.00  0.00    +0.000 A 
ATOM     28  C   UNL     1       7.440   4.690  12.051  0.00  0.00    +0.000 A 
ATOM     29  C   UNL     1       6.386   3.797  11.869  0.00  0.00    +0.000 A 
ATOM     30  C   UNL     1       5.628   3.382  12.963  0.00  0.00    +0.000 A 
ATOM     31  C   UNL     1       5.916   3.867  14.241  0.00  0.00    +0.000 A 
ENDBRANCH  25  26
ENDBRANCH  24  25
ENDBRANCH  23  24
ENDBRANCH   4  23
TORSDOF 10
ENDMDL
MODEL 5
REMARK VINA RESULT:      -7.2      1.861      3.108
REMARK  Name = 
REMARK  15 active torsions:
REMARK  status: ('A' for Active; 'I' for Inactive)
REMARK    1  A    between atoms: C_1  and  C_2
REMARK    2  A    between atoms: C_2  and  C_3
REMARK    3  A    between atoms: C_2  and  N_4
REMARK    4  A    between atoms: N_4  and  C_5
REMARK    5  A    between atoms: C_5  and  C_6
REMARK    6  A    between atoms: C_6  and  C_7
REMARK    7  A    between atoms: C_10  and  S_11
REMARK    8  A    between atoms: S_11  and  N_14
REMARK    9  A    between atoms: N_14  and  C_15
REMARK   10  A    between atoms: N_14  and  C_16
REMARK   11  A    between atoms: N_21  and  C_22
REMARK   12  A    between atoms: N_21  and  C_23
REMARK   13  A    between atoms: C_23  and  C_24
REMARK   14  A    between atoms: C_24  and  C_25
REMARK   15  A    between atoms: C_25  and  C_26
REMARK                            x       y       z     vdW  Elec       q    Type
REMARK                         _______ _______ _______ _____ _____    ______ ____
ROOT
ATOM      1  N   UNL     1       2.773   4.107  19.308  0.00  0.00    +0.000 N 
ATOM      2  C   UNL     1       3.237   3.922  18.013  0.00  0.00    +0.000 C 
ATOM      3  O   UNL     1       3.087   2.813  17.483  0.00  0.00    +0.000 OA
ATOM      4  N   UNL     1       3.879   4.911  17.271  0.00  0.00    +0.000 N 
ATOM      5  C   UNL     1       4.244   6.296  17.557  0.00  0.00    +0.000 C 
ENDROOT
BRANCH   1   7
ATOM      6  C   UNL     1       2.560   2.811  21.523  0.00  0.00    +0.000 C 
ATOM      7  C   UNL     1       2.210   2.918  20.034  0.00  0.00    +0.000 C 
ATOM      8  C   UNL     1       0.693   2.772  19.844  0.00  0.00    +0.000 C 
ENDBRANCH   1   7
BRANCH   1   9
ATOM      9  C   UNL     1       2.918   5.302  20.151  0.00  0.00    +0.000 C 
BRANCH   9  10
ATOM     10  C   UNL     1       1.591   5.917  20.638  0.00  0.00    +0.000 C 
BRANCH  10  11
ATOM     11  C   UNL     1       1.453   7.401  20.401  0.00  0.00    +0.000 A 
ATOM     12  C   UNL     1       0.886   8.242  21.367  0.00  0.00    +0.000 A 
ATOM     13  C   UNL     1       0.722   9.604  21.106  0.00  0.00    +0.000 A 
ATOM     14  C   UNL     1       1.128  10.128  19.873  0.00  0.00    +0.000 A 
ATOM     15  C   UNL     1       1.707   9.301  18.911  0.00  0.00    +0.000 A 
ATOM     16  C   UNL     1       1.885   7.946  19.183  0.00  0.00    +0.000 A 
BRANCH  14  17
ATOM     17  S   UNL     1       0.747  11.820  19.467  0.00  0.00    +0.000 S 
ATOM     18  O   UNL     1       0.674  12.572  20.697  0.00  0.00    +0.000 OA
ATOM     19  O   UNL     1       1.657  12.216  18.407  0.00  0.00    +0.000 OA
BRANCH  17  20
ATOM     20  N   UNL     1      -0.829  11.733  18.808  0.00  0.00    +0.000 NA
ATOM     21  C   UNL     1      -1.150  10.467  18.107  0.00  0.00    +0.000 C 
ATOM     22  C   UNL     1      -1.874  12.061  19.809  0.00  0.00    +0.000 C 
ENDBRANCH  17  20
ENDBRANCH  14  17
ENDBRANCH  10  11
ENDBRANCH   9  10
ENDBRANCH   1   9
BRANCH   4  23
ATOM     23  C   UNL     1       4.352   4.488  15.936  0.00  0.00    +0.000 C 
BRANCH  23  24
ATOM     24  C   UNL     1       5.672   3.708  15.940  0.00  0.00    +0.000 C 
BRANCH  24  25
ATOM     25  C   UNL     1       6.902   4.533  15.555  0.00  0.00    +0.000 C 
BRANCH  25  26
ATOM     26  C   UNL     1       7.352   5.411  16.698  0.00  0.00    +0.000 A 
ATOM     27  C   UNL     1       7.644   4.833  17.942  0.00  0.00    +0.000 A 
ATOM     28  C   UNL     1       8.001   5.631  19.028  0.00  0.00    +0.000 A 
ATOM     29  C   UNL     1       8.072   7.015  18.881  0.00  0.00    +0.000 A 
ATOM     30  C   UNL     1       7.793   7.599  17.646  0.00  0.00    +0.000 A 
ATOM     31  C   UNL     1       7.434   6.802  16.557  0.00  0.00    +0.000 A 
ENDBRANCH  25  26
ENDBRANCH  24  25
ENDBRANCH  23  24
ENDBRANCH   4  23
TORSDOF 10
ENDMDL
MODEL 6
REMARK VINA RESULT:      -7.2      3.478      5.693
REMARK  Name = 
REMARK  15 active torsions:
REMARK  status: ('A' for Active; 'I' for Inactive)
REMARK    1  A    between atoms: C_1  and  C_2
REMARK    2  A    between atoms: C_2  and  C_3
REMARK    3  A    between atoms: C_2  and  N_4
REMARK    4  A    between atoms: N_4  and  C_5
REMARK    5  A    between atoms: C_5  and  C_6
REMARK    6  A    between atoms: C_6  and  C_7
REMARK    7  A    between atoms: C_10  and  S_11
REMARK    8  A    between atoms: S_11  and  N_14
REMARK    9  A    between atoms: N_14  and  C_15
REMARK   10  A    between atoms: N_14  and  C_16
REMARK   11  A    between atoms: N_21  and  C_22
REMARK   12  A    between atoms: N_21  and  C_23
REMARK   13  A    between atoms: C_23  and  C_24
REMARK   14  A    between atoms: C_24  and  C_25
REMARK   15  A    between atoms: C_25  and  C_26
REMARK                            x       y       z     vdW  Elec       q    Type
REMARK                         _______ _______ _______ _____ _____    ______ ____
ROOT
ATOM      1  N   UNL     1       0.942   9.190  20.243  0.00  0.00    +0.000 N 
ATOM      2  C   UNL     1       1.720   8.065  20.003  0.00  0.00    +0.000 C 
ATOM      3  O   UNL     1       1.915   7.271  20.933  0.00  0.00    +0.000 OA
ATOM      4  N   UNL     1       2.309   7.778  18.774  0.00  0.00    +0.000 N 
ATOM      5  C   UNL     1       2.321   8.468  17.486  0.00  0.00    +0.000 C 
ENDROOT
BRANCH   1   7
ATOM      6  C   UNL     1       0.226  10.902  22.029  0.00  0.00    +0.000 C 
ATOM      7  C   UNL     1       0.470   9.437  21.648  0.00  0.00    +0.000 C 
ATOM      8  C   UNL     1      -0.757   8.591  22.018  0.00  0.00    +0.000 C 
ENDBRANCH   1   7
BRANCH   1   9
ATOM      9  C   UNL     1       0.654  10.295  19.319  0.00  0.00    +0.000 C 
BRANCH   9  10
ATOM     10  C   UNL     1      -0.377   9.967  18.219  0.00  0.00    +0.000 C 
BRANCH  10  11
ATOM     11  C   UNL     1      -1.720  10.634  18.390  0.00  0.00    +0.000 A 
ATOM     12  C   UNL     1      -1.902  11.682  19.301  0.00  0.00    +0.000 A 
ATOM     13  C   UNL     1      -3.165  12.250  19.480  0.00  0.00    +0.000 A 
ATOM     14  C   UNL     1      -4.252  11.768  18.742  0.00  0.00    +0.000 A 
ATOM     15  C   UNL     1      -4.079  10.734  17.822  0.00  0.00    +0.000 A 
ATOM     16  C   UNL     1      -2.813  10.184  17.635  0.00  0.00    +0.000 A 
BRANCH  14  17
ATOM     17  S   UNL     1      -5.893  12.359  19.105  0.00  0.00    +0.000 S 
ATOM     18  O   UNL     1      -5.804  13.762  19.433  0.00  0.00    +0.000 OA
ATOM     19  O   UNL     1      -6.755  11.902  18.029  0.00  0.00    +0.000 OA
BRANCH  17  20
ATOM     20  N   UNL     1      -6.324  11.511  20.527  0.00  0.00    +0.000 NA
ATOM     21  C   UNL     1      -6.741  12.364  21.665  0.00  0.00    +0.000 C 
ATOM     22  C   UNL     1      -7.329  10.452  20.265  0.00  0.00    +0.000 C 
ENDBRANCH  17  20
ENDBRANCH  14  17
ENDBRANCH  10  11
ENDBRANCH   9  10
ENDBRANCH   1   9
BRANCH   4  23
ATOM     23  C   UNL     1       3.150   6.563  18.748  0.00  0.00    +0.000 C 
BRANCH  23  24
ATOM     24  C   UNL     1       4.278   6.585  17.709  0.00  0.00    +0.000 C 
BRANCH  24  25
ATOM     25  C   UNL     1       4.454   5.278  16.931  0.00  0.00    +0.000 C 
BRANCH  25  26
ATOM     26  C   UNL     1       3.854   4.112  17.677  0.00  0.00    +0.000 A 
ATOM     27  C   UNL     1       4.535   3.570  18.777  0.00  0.00    +0.000 A 
ATOM     28  C   UNL     1       4.030   2.453  19.443  0.00  0.00    +0.000 A 
ATOM     29  C   UNL     1       2.840   1.868  19.016  0.00  0.00    +0.000 A 
ATOM     30  C   UNL     1       2.151   2.404  17.929  0.00  0.00    +0.000 A 
ATOM     31  C   UNL     1       2.655   3.522  17.261  0.00  0.00    +0.000 A 
ENDBRANCH  25  26
ENDBRANCH  24  25
ENDBRANCH  23  24
ENDBRANCH   4  23
TORSDOF 10
ENDMDL
MODEL 7
REMARK VINA RESULT:      -7.2      1.743      3.079
REMARK  Name = 
REMARK  15 active torsions:
REMARK  status: ('A' for Active; 'I' for Inactive)
REMARK    1  A    between atoms: C_1  and  C_2
REMARK    2  A    between atoms: C_2  and  C_3
REMARK    3  A    between atoms: C_2  and  N_4
REMARK    4  A    between atoms: N_4  and  C_5
REMARK    5  A    between atoms: C_5  and  C_6
REMARK    6  A    between atoms: C_6  and  C_7
REMARK    7  A    between atoms: C_10  and  S_11
REMARK    8  A    between atoms: S_11  and  N_14
REMARK    9  A    between atoms: N_14  and  C_15
REMARK   10  A    between atoms: N_14  and  C_16
REMARK   11  A    between atoms: N_21  and  C_22
REMARK   12  A    between atoms: N_21  and  C_23
REMARK   13  A    between atoms: C_23  and  C_24
REMARK   14  A    between atoms: C_24  and  C_25
REMARK   15  A    between atoms: C_25  and  C_26
REMARK                            x       y       z     vdW  Elec       q    Type
REMARK                         _______ _______ _______ _____ _____    ______ ____
ROOT
ATOM      1  N   UNL     1       2.502   3.575  19.123  0.00  0.00    +0.000 N 
ATOM      2  C   UNL     1       3.521   3.152  18.282  0.00  0.00    +0.000 C 
ATOM      3  O   UNL     1       3.988   2.016  18.442  0.00  0.00    +0.000 OA
ATOM      4  N   UNL     1       4.065   3.935  17.267  0.00  0.00    +0.000 N 
ATOM      5  C   UNL     1       3.796   5.293  16.800  0.00  0.00    +0.000 C 
ENDROOT
BRANCH   1   7
ATOM      6  C   UNL     1       3.095   2.546  21.407  0.00  0.00    +0.000 C 
ATOM      7  C   UNL     1       2.095   2.672  20.252  0.00  0.00    +0.000 C 
ATOM      8  C   UNL     1       0.701   3.004  20.804  0.00  0.00    +0.000 C 
ENDBRANCH   1   7
BRANCH   1   9
ATOM      9  C   UNL     1       1.865   4.899  19.164  0.00  0.00    +0.000 C 
BRANCH   9  10
ATOM     10  C   UNL     1       2.673   5.983  19.905  0.00  0.00    +0.000 C 
BRANCH  10  11
ATOM     11  C   UNL     1       2.054   7.360  19.887  0.00  0.00    +0.000 A 
ATOM     12  C   UNL     1       1.447   7.899  21.028  0.00  0.00    +0.000 A 
ATOM     13  C   UNL     1       0.836   9.153  20.975  0.00  0.00    +0.000 A 
ATOM     14  C   UNL     1       0.832   9.873  19.775  0.00  0.00    +0.000 A 
ATOM     15  C   UNL     1       1.446   9.350  18.637  0.00  0.00    +0.000 A 
ATOM     16  C   UNL     1       2.070   8.106  18.700  0.00  0.00    +0.000 A 
BRANCH  14  17
ATOM     17  S   UNL     1      -0.109  11.381  19.654  0.00  0.00    +0.000 S 
ATOM     18  O   UNL     1      -0.870  11.338  18.428  0.00  0.00    +0.000 OA
ATOM     19  O   UNL     1      -0.770  11.570  20.932  0.00  0.00    +0.000 OA
BRANCH  17  20
ATOM     20  N   UNL     1       1.088  12.593  19.490  0.00  0.00    +0.000 NA
ATOM     21  C   UNL     1       0.732  13.708  18.581  0.00  0.00    +0.000 C 
ATOM     22  C   UNL     1       1.547  13.107  20.803  0.00  0.00    +0.000 C 
ENDBRANCH  17  20
ENDBRANCH  14  17
ENDBRANCH  10  11
ENDBRANCH   9  10
ENDBRANCH   1   9
BRANCH   4  23
ATOM     23  C   UNL     1       5.187   3.318  16.527  0.00  0.00    +0.000 C 
BRANCH  23  24
ATOM     24  C   UNL     1       5.613   4.072  15.261  0.00  0.00    +0.000 C 
BRANCH  24  25
ATOM     25  C   UNL     1       7.049   4.601  15.287  0.00  0.00    +0.000 C 
BRANCH  25  26
ATOM     26  C   UNL     1       7.334   5.349  16.567  0.00  0.00    +0.000 A 
ATOM     27  C   UNL     1       7.286   6.750  16.575  0.00  0.00    +0.000 A 
ATOM     28  C   UNL     1       7.606   7.463  17.730  0.00  0.00    +0.000 A 
ATOM     29  C   UNL     1       7.977   6.783  18.887  0.00  0.00    +0.000 A 
ATOM     30  C   UNL     1       8.019   5.390  18.892  0.00  0.00    +0.000 A 
ATOM     31  C   UNL     1       7.699   4.673  17.737  0.00  0.00    +0.000 A 
ENDBRANCH  25  26
ENDBRANCH  24  25
ENDBRANCH  23  24
ENDBRANCH   4  23
TORSDOF 10
ENDMDL
MODEL 8
REMARK VINA RESULT:      -7.2      1.421      1.946
REMARK  Name = 
REMARK  15 active torsions:
REMARK  status: ('A' for Active; 'I' for Inactive)
REMARK    1  A    between atoms: C_1  and  C_2
REMARK    2  A    between atoms: C_2  and  C_3
REMARK    3  A    between atoms: C_2  and  N_4
REMARK    4  A    between atoms: N_4  and  C_5
REMARK    5  A    between atoms: C_5  and  C_6
REMARK    6  A    between atoms: C_6  and  C_7
REMARK    7  A    between atoms: C_10  and  S_11
REMARK    8  A    between atoms: S_11  and  N_14
REMARK    9  A    between atoms: N_14  and  C_15
REMARK   10  A    between atoms: N_14  and  C_16
REMARK   11  A    between atoms: N_21  and  C_22
REMARK   12  A    between atoms: N_21  and  C_23
REMARK   13  A    between atoms: C_23  and  C_24
REMARK   14  A    between atoms: C_24  and  C_25
REMARK   15  A    between atoms: C_25  and  C_26
REMARK                            x       y       z     vdW  Elec       q    Type
REMARK                         _______ _______ _______ _____ _____    ______ ____
ROOT
ATOM      1  N   UNL     1       3.420   4.316  18.938  0.00  0.00    +0.000 N 
ATOM      2  C   UNL     1       4.513   4.101  18.110  0.00  0.00    +0.000 C 
ATOM      3  O   UNL     1       4.373   3.363  17.125  0.00  0.00    +0.000 OA
ATOM      4  N   UNL     1       5.771   4.658  18.326  0.00  0.00    +0.000 N 
ATOM      5  C   UNL     1       6.310   5.537  19.360  0.00  0.00    +0.000 C 
ENDROOT
BRANCH   1   7
ATOM      6  C   UNL     1       1.405   3.949  17.378  0.00  0.00    +0.000 C 
ATOM      7  C   UNL     1       2.156   3.555  18.655  0.00  0.00    +0.000 C 
ATOM      8  C   UNL     1       2.361   2.033  18.690  0.00  0.00    +0.000 C 
ENDBRANCH   1   7
BRANCH   1   9
ATOM      9  C   UNL     1       3.383   5.079  20.193  0.00  0.00    +0.000 C 
BRANCH   9  10
ATOM     10  C   UNL     1       1.977   5.534  20.634  0.00  0.00    +0.000 C 
BRANCH  10  11
ATOM     11  C   UNL     1       1.666   6.986  20.365  0.00  0.00    +0.000 A 
ATOM     12  C   UNL     1       2.023   7.594  19.154  0.00  0.00    +0.000 A 
ATOM     13  C   UNL     1       1.771   8.952  18.946  0.00  0.00    +0.000 A 
ATOM     14  C   UNL     1       1.158   9.705  19.953  0.00  0.00    +0.000 A 
ATOM     15  C   UNL     1       0.786   9.106  21.157  0.00  0.00    +0.000 A 
ATOM     16  C   UNL     1       1.023   7.747  21.352  0.00  0.00    +0.000 A 
BRANCH  14  17
ATOM     17  S   UNL     1       1.010  11.471  19.766  0.00  0.00    +0.000 S 
ATOM     18  O   UNL     1       1.265  12.082  21.049  0.00  0.00    +0.000 OA
ATOM     19  O   UNL     1       1.792  11.840  18.600  0.00  0.00    +0.000 OA
BRANCH  17  20
ATOM     20  N   UNL     1      -0.643  11.701  19.392  0.00  0.00    +0.000 NA
ATOM     21  C   UNL     1      -1.515  12.002  20.553  0.00  0.00    +0.000 C 
ATOM     22  C   UNL     1      -0.839  12.700  18.313  0.00  0.00    +0.000 C 
ENDBRANCH  17  20
ENDBRANCH  14  17
ENDBRANCH  10  11
ENDBRANCH   9  10
ENDBRANCH   1   9
BRANCH   4  23
ATOM     23  C   UNL     1       6.814   4.250  17.360  0.00  0.00    +0.000 C 
BRANCH  23  24
ATOM     24  C   UNL     1       7.183   5.320  16.325  0.00  0.00    +0.000 C 
BRANCH  24  25
ATOM     25  C   UNL     1       6.083   5.627  15.305  0.00  0.00    +0.000 C 
BRANCH  25  26
ATOM     26  C   UNL     1       6.260   4.811  14.047  0.00  0.00    +0.000 A 
ATOM     27  C   UNL     1       7.390   5.014  13.243  0.00  0.00    +0.000 A 
ATOM     28  C   UNL     1       7.542   4.316  12.045  0.00  0.00    +0.000 A 
ATOM     29  C   UNL     1       6.567   3.407  11.641  0.00  0.00    +0.000 A 
ATOM     30  C   UNL     1       5.444   3.190  12.438  0.00  0.00    +0.000 A 
ATOM     31  C   UNL     1       5.289   3.888  13.638  0.00  0.00    +0.000 A 
ENDBRANCH  25  26
ENDBRANCH  24  25
ENDBRANCH  23  24
ENDBRANCH   4  23
TORSDOF 10
ENDMDL
MODEL 9
REMARK VINA RESULT:      -7.2      1.107      1.437
REMARK  Name = 
REMARK  15 active torsions:
REMARK  status: ('A' for Active; 'I' for Inactive)
REMARK    1  A    between atoms: C_1  and  C_2
REMARK    2  A    between atoms: C_2  and  C_3
REMARK    3  A    between atoms: C_2  and  N_4
REMARK    4  A    between atoms: N_4  and  C_5
REMARK    5  A    between atoms: C_5  and  C_6
REMARK    6  A    between atoms: C_6  and  C_7
REMARK    7  A    between atoms: C_10  and  S_11
REMARK    8  A    between atoms: S_11  and  N_14
REMARK    9  A    between atoms: N_14  and  C_15
REMARK   10  A    between atoms: N_14  and  C_16
REMARK   11  A    between atoms: N_21  and  C_22
REMARK   12  A    between atoms: N_21  and  C_23
REMARK   13  A    between atoms: C_23  and  C_24
REMARK   14  A    between atoms: C_24  and  C_25
REMARK   15  A    between atoms: C_25  and  C_26
REMARK                            x       y       z     vdW  Elec       q    Type
REMARK                         _______ _______ _______ _____ _____    ______ ____
ROOT
ATOM      1  N   UNL     1       3.171   4.283  18.632  0.00  0.00    +0.000 N 
ATOM      2  C   UNL     1       4.540   4.098  18.487  0.00  0.00    +0.000 C 
ATOM      3  O   UNL     1       4.995   2.950  18.574  0.00  0.00    +0.000 OA
ATOM      4  N   UNL     1       5.442   5.134  18.259  0.00  0.00    +0.000 N 
ATOM      5  C   UNL     1       5.288   6.580  18.119  0.00  0.00    +0.000 C 
ENDROOT
BRANCH   1   7
ATOM      6  C   UNL     1       2.251   2.755  20.489  0.00  0.00    +0.000 C 
ATOM      7  C   UNL     1       2.331   3.091  18.995  0.00  0.00    +0.000 C 
ATOM      8  C   UNL     1       0.918   3.160  18.399  0.00  0.00    +0.000 C 
ENDBRANCH   1   7
BRANCH   1   9
ATOM      9  C   UNL     1       2.435   5.554  18.648  0.00  0.00    +0.000 C 
BRANCH   9  10
ATOM     10  C   UNL     1       2.339   6.230  20.030  0.00  0.00    +0.000 C 
BRANCH  10  11
ATOM     11  C   UNL     1       1.802   7.640  20.012  0.00  0.00    +0.000 A 
ATOM     12  C   UNL     1       1.824   8.412  18.843  0.00  0.00    +0.000 A 
ATOM     13  C   UNL     1       1.369   9.731  18.860  0.00  0.00    +0.000 A 
ATOM     14  C   UNL     1       0.888  10.283  20.053  0.00  0.00    +0.000 A 
ATOM     15  C   UNL     1       0.849   9.519  21.219  0.00  0.00    +0.000 A 
ATOM     16  C   UNL     1       1.287   8.197  21.191  0.00  0.00    +0.000 A 
BRANCH  14  17
ATOM     17  S   UNL     1       0.487  12.017  20.123  0.00  0.00    +0.000 S 
ATOM     18  O   UNL     1       0.489  12.423  21.509  0.00  0.00    +0.000 OA
ATOM     19  O   UNL     1       1.334  12.687  19.152  0.00  0.00    +0.000 OA
BRANCH  17  20
ATOM     20  N   UNL     1      -1.126  12.084  19.557  0.00  0.00    +0.000 NA
ATOM     21  C   UNL     1      -2.011  13.021  20.288  0.00  0.00    +0.000 C 
ATOM     22  C   UNL     1      -1.196  12.324  18.094  0.00  0.00    +0.000 C 
ENDBRANCH  17  20
ENDBRANCH  14  17
ENDBRANCH  10  11
ENDBRANCH   9  10
ENDBRANCH   1   9
BRANCH   4  23
ATOM     23  C   UNL     1       6.862   4.730  18.198  0.00  0.00    +0.000 C 
BRANCH  23  24
ATOM     24  C   UNL     1       7.429   4.587  16.780  0.00  0.00    +0.000 C 
BRANCH  24  25
ATOM     25  C   UNL     1       6.854   5.574  15.761  0.00  0.00    +0.000 C 
BRANCH  25  26
ATOM     26  C   UNL     1       6.533   4.888  14.455  0.00  0.00    +0.000 A 
ATOM     27  C   UNL     1       5.313   4.211  14.310  0.00  0.00    +0.000 A 
ATOM     28  C   UNL     1       5.022   3.519  13.135  0.00  0.00    +0.000 A 
ATOM     29  C   UNL     1       5.947   3.498  12.093  0.00  0.00    +0.000 A 
ATOM     30  C   UNL     1       7.158   4.175  12.224  0.00  0.00    +0.000 A 
ATOM     31  C   UNL     1       7.452   4.869  13.400  0.00  0.00    +0.000 A 
ENDBRANCH  25  26
ENDBRANCH  24  25
ENDBRANCH  23  24
ENDBRANCH   4  23
TORSDOF 10
ENDMDL
