MODEL 1
REMARK VINA RESULT:      -8.0      0.000      0.000
REMARK  Name = 
REMARK  4 active torsions:
REMARK  status: ('A' for Active; 'I' for Inactive)
REMARK    1  A    between atoms: C_1  and  C_2
REMARK    2  A    between atoms: C_2  and  O_3
REMARK    3  A    between atoms: O_3  and  C_4
REMARK    4  A    between atoms: C_4  and  C_6
REMARK                            x       y       z     vdW  Elec       q    Type
REMARK                         _______ _______ _______ _____ _____    ______ ____
ROOT
ATOM      1  C   UNL     1       5.801   4.771  15.812  0.00  0.00    +0.000 A 
ATOM      2  N   UNL     1       5.758   3.819  16.826  0.00  0.00    +0.000 NA
ATOM      3  C   UNL     1       4.927   4.357  17.688  0.00  0.00    +0.000 A 
ATOM      4  C   UNL     1       4.525   3.850  18.972  0.00  0.00    +0.000 A 
ATOM      5  N   UNL     1       4.949   2.637  19.445  0.00  0.00    +0.000 N 
ATOM      6  N   UNL     1       3.744   4.577  19.729  0.00  0.00    +0.000 NA
ATOM      7  C   UNL     1       3.281   5.830  19.256  0.00  0.00    +0.000 A 
ATOM      8  C   UNL     1       2.430   6.579  20.068  0.00  0.00    +0.000 A 
ATOM      9  C   UNL     1       1.938   7.814  19.631  0.00  0.00    +0.000 A 
ATOM     10  C   UNL     1       2.304   8.312  18.377  0.00  0.00    +0.000 A 
ATOM     11 CL   UNL     1       1.679   9.826  17.853  0.00  0.00    +0.000 Cl
ATOM     12  C   UNL     1       3.162   7.593  17.548  0.00  0.00    +0.000 A 
ATOM     13  C   UNL     1       3.632   6.358  18.000  0.00  0.00    +0.000 A 
ATOM     14  N   UNL     1       4.485   5.557  17.240  0.00  0.00    +0.000 N 
ATOM     15  N   UNL     1       5.010   5.846  16.036  0.00  0.00    +0.000 NA
ATOM     16  H   UNL     1       5.797   2.279  19.016  0.00  0.00    +0.000 HD
ATOM     17  H   UNL     1       4.900   2.546  20.451  0.00  0.00    +0.000 HD
ENDROOT
BRANCH   1  18
ATOM     18  C   UNL     1       6.716   4.635  14.661  0.00  0.00    +0.000 C 
ATOM     19  O   UNL     1       7.564   5.476  14.372  0.00  0.00    +0.000 OA
BRANCH  18  20
ATOM     20  O   UNL     1       6.453   3.527  13.903  0.00  0.00    +0.000 OA
BRANCH  20  22
ATOM     21  C   UNL     1       5.117   3.294  11.935  0.00  0.00    +0.000 C 
ATOM     22  C   UNL     1       6.460   3.738  12.486  0.00  0.00    +0.000 C 
ENDBRANCH  20  22
ENDBRANCH  18  20
ENDBRANCH   1  18
TORSDOF 3
ENDMDL
MODEL 2
REMARK VINA RESULT:      -7.7      2.703      3.010
REMARK  Name = 
REMARK  4 active torsions:
REMARK  status: ('A' for Active; 'I' for Inactive)
REMARK    1  A    between atoms: C_1  and  C_2
REMARK    2  A    between atoms: C_2  and  O_3
REMARK    3  A    between atoms: O_3  and  C_4
REMARK    4  A    between atoms: C_4  and  C_6
REMARK                            x       y       z     vdW  Elec       q    Type
REMARK                         _______ _______ _______ _____ _____    ______ ____
ROOT
ATOM      1  C   UNL     1       6.479   4.397  15.439  0.00  0.00    +0.000 A 
ATOM      2  N   UNL     1       7.261   4.989  16.427  0.00  0.00    +0.000 NA
ATOM      3  C   UNL     1       6.510   4.870  17.495  0.00  0.00    +0.000 A 
ATOM      4  C   UNL     1       6.773   5.347  18.827  0.00  0.00    +0.000 A 
ATOM      5  N   UNL     1       7.946   5.970  19.161  0.00  0.00    +0.000 N 
ATOM      6  N   UNL     1       5.857   5.203  19.748  0.00  0.00    +0.000 NA
ATOM      7  C   UNL     1       4.641   4.549  19.430  0.00  0.00    +0.000 A 
ATOM      8  C   UNL     1       3.687   4.385  20.434  0.00  0.00    +0.000 A 
ATOM      9  C   UNL     1       2.479   3.731  20.164  0.00  0.00    +0.000 A 
ATOM     10  C   UNL     1       2.215   3.243  18.880  0.00  0.00    +0.000 A 
ATOM     11 CL   UNL     1       0.731   2.432  18.572  0.00  0.00    +0.000 Cl
ATOM     12  C   UNL     1       3.143   3.403  17.853  0.00  0.00    +0.000 A 
ATOM     13  C   UNL     1       4.346   4.050  18.148  0.00  0.00    +0.000 A 
ATOM     14  N   UNL     1       5.344   4.249  17.193  0.00  0.00    +0.000 N 
ATOM     15  N   UNL     1       5.297   3.917  15.891  0.00  0.00    +0.000 NA
ATOM     16  H   UNL     1       8.460   6.370  18.382  0.00  0.00    +0.000 HD
ATOM     17  H   UNL     1       7.882   6.553  19.985  0.00  0.00    +0.000 HD
ENDROOT
BRANCH   1  18
ATOM     18  C   UNL     1       6.887   4.405  14.020  0.00  0.00    +0.000 C 
ATOM     19  O   UNL     1       7.517   5.325  13.505  0.00  0.00    +0.000 OA
BRANCH  18  20
ATOM     20  O   UNL     1       6.406   3.328  13.325  0.00  0.00    +0.000 OA
BRANCH  20  22
ATOM     21  C   UNL     1       4.674   3.257  11.679  0.00  0.00    +0.000 C 
ATOM     22  C   UNL     1       6.139   3.564  11.938  0.00  0.00    +0.000 C 
ENDBRANCH  20  22
ENDBRANCH  18  20
ENDBRANCH   1  18
TORSDOF 3
ENDMDL
MODEL 3
REMARK VINA RESULT:      -7.5      1.265      1.432
REMARK  Name = 
REMARK  4 active torsions:
REMARK  status: ('A' for Active; 'I' for Inactive)
REMARK    1  A    between atoms: C_1  and  C_2
REMARK    2  A    between atoms: C_2  and  O_3
REMARK    3  A    between atoms: O_3  and  C_4
REMARK    4  A    between atoms: C_4  and  C_6
REMARK                            x       y       z     vdW  Elec       q    Type
REMARK                         _______ _______ _______ _____ _____    ______ ____
ROOT
ATOM      1  C   UNL     1       5.273   4.702  16.095  0.00  0.00    +0.000 A 
ATOM      2  N   UNL     1       5.084   3.415  16.590  0.00  0.00    +0.000 NA
ATOM      3  C   UNL     1       4.256   3.611  17.589  0.00  0.00    +0.000 A 
ATOM      4  C   UNL     1       3.735   2.643  18.516  0.00  0.00    +0.000 A 
ATOM      5  N   UNL     1       4.019   1.308  18.416  0.00  0.00    +0.000 N 
ATOM      6  N   UNL     1       2.980   3.050  19.504  0.00  0.00    +0.000 NA
ATOM      7  C   UNL     1       2.660   4.424  19.621  0.00  0.00    +0.000 A 
ATOM      8  C   UNL     1       1.834   4.833  20.667  0.00  0.00    +0.000 A 
ATOM      9  C   UNL     1       1.482   6.181  20.808  0.00  0.00    +0.000 A 
ATOM     10  C   UNL     1       1.964   7.131  19.904  0.00  0.00    +0.000 A 
ATOM     11 CL   UNL     1       1.510   8.780  20.087  0.00  0.00    +0.000 Cl
ATOM     12  C   UNL     1       2.801   6.756  18.855  0.00  0.00    +0.000 A 
ATOM     13  C   UNL     1       3.131   5.405  18.727  0.00  0.00    +0.000 A 
ATOM     14  N   UNL     1       3.952   4.926  17.705  0.00  0.00    +0.000 N 
ATOM     15  N   UNL     1       4.570   5.651  16.756  0.00  0.00    +0.000 NA
ATOM     16  H   UNL     1       4.855   1.083  17.885  0.00  0.00    +0.000 HD
ATOM     17  H   UNL     1       3.903   0.795  19.280  0.00  0.00    +0.000 HD
ENDROOT
BRANCH   1  18
ATOM     18  C   UNL     1       6.238   4.982  15.015  0.00  0.00    +0.000 C 
ATOM     19  O   UNL     1       7.345   5.479  15.211  0.00  0.00    +0.000 OA
BRANCH  18  20
ATOM     20  O   UNL     1       5.731   4.720  13.770  0.00  0.00    +0.000 OA
BRANCH  20  22
ATOM     21  C   UNL     1       5.450   3.159  11.982  0.00  0.00    +0.000 C 
ATOM     22  C   UNL     1       6.403   3.686  13.041  0.00  0.00    +0.000 C 
ENDBRANCH  20  22
ENDBRANCH  18  20
ENDBRANCH   1  18
TORSDOF 3
ENDMDL
MODEL 4
REMARK VINA RESULT:      -7.5      2.584      3.290
REMARK  Name = 
REMARK  4 active torsions:
REMARK  status: ('A' for Active; 'I' for Inactive)
REMARK    1  A    between atoms: C_1  and  C_2
REMARK    2  A    between atoms: C_2  and  O_3
REMARK    3  A    between atoms: O_3  and  C_4
REMARK    4  A    between atoms: C_4  and  C_6
REMARK                            x       y       z     vdW  Elec       q    Type
REMARK                         _______ _______ _______ _____ _____    ______ ____
ROOT
ATOM      1  C   UNL     1       6.367   4.248  14.170  0.00  0.00    +0.000 A 
ATOM      2  N   UNL     1       7.098   5.254  14.796  0.00  0.00    +0.000 NA
ATOM      3  C   UNL     1       6.448   5.421  15.923  0.00  0.00    +0.000 A 
ATOM      4  C   UNL     1       6.710   6.371  16.970  0.00  0.00    +0.000 A 
ATOM      5  N   UNL     1       7.778   7.228  16.929  0.00  0.00    +0.000 N 
ATOM      6  N   UNL     1       5.893   6.440  17.988  0.00  0.00    +0.000 NA
ATOM      7  C   UNL     1       4.789   5.555  18.061  0.00  0.00    +0.000 A 
ATOM      8  C   UNL     1       3.943   5.628  19.167  0.00  0.00    +0.000 A 
ATOM      9  C   UNL     1       2.851   4.761  19.283  0.00  0.00    +0.000 A 
ATOM     10  C   UNL     1       2.593   3.818  18.283  0.00  0.00    +0.000 A 
ATOM     11 CL   UNL     1       1.252   2.753  18.450  0.00  0.00    +0.000 Cl
ATOM     12  C   UNL     1       3.412   3.729  17.160  0.00  0.00    +0.000 A 
ATOM     13  C   UNL     1       4.503   4.596  17.071  0.00  0.00    +0.000 A 
ATOM     14  N   UNL     1       5.389   4.578  15.993  0.00  0.00    +0.000 N 
ATOM     15  N   UNL     1       5.317   3.802  14.897  0.00  0.00    +0.000 NA
ATOM     16  H   UNL     1       8.165   7.391  16.004  0.00  0.00    +0.000 HD
ATOM     17  H   UNL     1       7.668   8.051  17.506  0.00  0.00    +0.000 HD
ENDROOT
BRANCH   1  18
ATOM     18  C   UNL     1       6.677   3.807  12.796  0.00  0.00    +0.000 C 
ATOM     19  O   UNL     1       7.318   4.487  11.998  0.00  0.00    +0.000 OA
BRANCH  18  20
ATOM     20  O   UNL     1       6.091   2.611  12.479  0.00  0.00    +0.000 OA
BRANCH  20  22
ATOM     21  C   UNL     1       4.075   3.277  11.382  0.00  0.00    +0.000 C 
ATOM     22  C   UNL     1       5.412   2.576  11.219  0.00  0.00    +0.000 C 
ENDBRANCH  20  22
ENDBRANCH  18  20
ENDBRANCH   1  18
TORSDOF 3
ENDMDL
MODEL 5
REMARK VINA RESULT:      -7.4      3.818      6.269
REMARK  Name = 
REMARK  4 active torsions:
REMARK  status: ('A' for Active; 'I' for Inactive)
REMARK    1  A    between atoms: C_1  and  C_2
REMARK    2  A    between atoms: C_2  and  O_3
REMARK    3  A    between atoms: O_3  and  C_4
REMARK    4  A    between atoms: C_4  and  C_6
REMARK                            x       y       z     vdW  Elec       q    Type
REMARK                         _______ _______ _______ _____ _____    ______ ____
ROOT
ATOM      1  C   UNL     1       4.476   3.631  18.355  0.00  0.00    +0.000 A 
ATOM      2  N   UNL     1       5.421   4.587  18.715  0.00  0.00    +0.000 NA
ATOM      3  C   UNL     1       5.999   4.863  17.570  0.00  0.00    +0.000 A 
ATOM      4  C   UNL     1       7.098   5.756  17.320  0.00  0.00    +0.000 A 
ATOM      5  N   UNL     1       7.664   6.514  18.310  0.00  0.00    +0.000 N 
ATOM      6  N   UNL     1       7.593   5.835  16.112  0.00  0.00    +0.000 NA
ATOM      7  C   UNL     1       7.016   5.071  15.068  0.00  0.00    +0.000 A 
ATOM      8  C   UNL     1       7.543   5.187  13.782  0.00  0.00    +0.000 A 
ATOM      9  C   UNL     1       6.992   4.461  12.721  0.00  0.00    +0.000 A 
ATOM     10  C   UNL     1       5.910   3.603  12.943  0.00  0.00    +0.000 A 
ATOM     11 CL   UNL     1       5.239   2.729  11.623  0.00  0.00    +0.000 Cl
ATOM     12  C   UNL     1       5.369   3.455  14.218  0.00  0.00    +0.000 A 
ATOM     13  C   UNL     1       5.929   4.198  15.261  0.00  0.00    +0.000 A 
ATOM     14  N   UNL     1       5.452   4.130  16.570  0.00  0.00    +0.000 N 
ATOM     15  N   UNL     1       4.463   3.344  17.033  0.00  0.00    +0.000 NA
ATOM     16  H   UNL     1       7.505   6.179  19.255  0.00  0.00    +0.000 HD
ATOM     17  H   UNL     1       8.608   6.817  18.109  0.00  0.00    +0.000 HD
ENDROOT
BRANCH   1  18
ATOM     18  C   UNL     1       3.652   2.939  19.366  0.00  0.00    +0.000 C 
ATOM     19  O   UNL     1       4.117   2.434  20.384  0.00  0.00    +0.000 OA
BRANCH  18  20
ATOM     20  O   UNL     1       2.337   2.837  18.998  0.00  0.00    +0.000 OA
BRANCH  20  22
ATOM     21  C   UNL     1       1.119   4.245  20.496  0.00  0.00    +0.000 C 
ATOM     22  C   UNL     1       1.586   4.055  19.064  0.00  0.00    +0.000 C 
ENDBRANCH  20  22
ENDBRANCH  18  20
ENDBRANCH   1  18
TORSDOF 3
ENDMDL
MODEL 6
REMARK VINA RESULT:      -7.4      3.657      6.213
REMARK  Name = 
REMARK  4 active torsions:
REMARK  status: ('A' for Active; 'I' for Inactive)
REMARK    1  A    between atoms: C_1  and  C_2
REMARK    2  A    between atoms: C_2  and  O_3
REMARK    3  A    between atoms: O_3  and  C_4
REMARK    4  A    between atoms: C_4  and  C_6
REMARK                            x       y       z     vdW  Elec       q    Type
REMARK                         _______ _______ _______ _____ _____    ______ ____
ROOT
ATOM      1  C   UNL     1       3.897   3.367  18.717  0.00  0.00    +0.000 A 
ATOM      2  N   UNL     1       4.989   4.005  19.298  0.00  0.00    +0.000 NA
ATOM      3  C   UNL     1       5.714   4.336  18.256  0.00  0.00    +0.000 A 
ATOM      4  C   UNL     1       6.997   4.985  18.234  0.00  0.00    +0.000 A 
ATOM      5  N   UNL     1       7.620   5.411  19.376  0.00  0.00    +0.000 N 
ATOM      6  N   UNL     1       7.604   5.158  17.089  0.00  0.00    +0.000 NA
ATOM      7  C   UNL     1       6.974   4.739  15.892  0.00  0.00    +0.000 A 
ATOM      8  C   UNL     1       7.628   4.954  14.679  0.00  0.00    +0.000 A 
ATOM      9  C   UNL     1       7.031   4.567  13.473  0.00  0.00    +0.000 A 
ATOM     10  C   UNL     1       5.775   3.954  13.475  0.00  0.00    +0.000 A 
ATOM     11 CL   UNL     1       5.054   3.498  11.982  0.00  0.00    +0.000 Cl
ATOM     12  C   UNL     1       5.102   3.713  14.671  0.00  0.00    +0.000 A 
ATOM     13  C   UNL     1       5.711   4.117  15.862  0.00  0.00    +0.000 A 
ATOM     14  N   UNL     1       5.115   3.933  17.110  0.00  0.00    +0.000 N 
ATOM     15  N   UNL     1       3.943   3.324  17.365  0.00  0.00    +0.000 NA
ATOM     16  H   UNL     1       7.308   4.962  20.232  0.00  0.00    +0.000 HD
ATOM     17  H   UNL     1       8.622   5.521  19.283  0.00  0.00    +0.000 HD
ENDROOT
BRANCH   1  18
ATOM     18  C   UNL     1       2.856   2.715  19.536  0.00  0.00    +0.000 C 
ATOM     19  O   UNL     1       2.320   1.654  19.226  0.00  0.00    +0.000 OA
BRANCH  18  20
ATOM     20  O   UNL     1       2.487   3.467  20.619  0.00  0.00    +0.000 OA
BRANCH  20  22
ATOM     21  C   UNL     1       1.672   5.714  20.588  0.00  0.00    +0.000 C 
ATOM     22  C   UNL     1       1.299   4.248  20.447  0.00  0.00    +0.000 C 
ENDBRANCH  20  22
ENDBRANCH  18  20
ENDBRANCH   1  18
TORSDOF 3
ENDMDL
MODEL 7
REMARK VINA RESULT:      -7.3      1.551      1.915
REMARK  Name = 
REMARK  4 active torsions:
REMARK  status: ('A' for Active; 'I' for Inactive)
REMARK    1  A    between atoms: C_1  and  C_2
REMARK    2  A    between atoms: C_2  and  O_3
REMARK    3  A    between atoms: O_3  and  C_4
REMARK    4  A    between atoms: C_4  and  C_6
REMARK                            x       y       z     vdW  Elec       q    Type
REMARK                         _______ _______ _______ _____ _____    ______ ____
ROOT
ATOM      1  C   UNL     1       5.852   5.114  16.912  0.00  0.00    +0.000 A 
ATOM      2  N   UNL     1       5.516   3.770  17.044  0.00  0.00    +0.000 NA
ATOM      3  C   UNL     1       4.481   3.811  17.848  0.00  0.00    +0.000 A 
ATOM      4  C   UNL     1       3.727   2.711  18.387  0.00  0.00    +0.000 A 
ATOM      5  N   UNL     1       3.990   1.411  18.050  0.00  0.00    +0.000 N 
ATOM      6  N   UNL     1       2.770   2.954  19.245  0.00  0.00    +0.000 NA
ATOM      7  C   UNL     1       2.470   4.292  19.599  0.00  0.00    +0.000 A 
ATOM      8  C   UNL     1       1.431   4.531  20.497  0.00  0.00    +0.000 A 
ATOM      9  C   UNL     1       1.093   5.840  20.860  0.00  0.00    +0.000 A 
ATOM     10  C   UNL     1       1.802   6.921  20.330  0.00  0.00    +0.000 A 
ATOM     11 CL   UNL     1       1.364   8.523  20.778  0.00  0.00    +0.000 Cl
ATOM     12  C   UNL     1       2.854   6.715  19.439  0.00  0.00    +0.000 A 
ATOM     13  C   UNL     1       3.167   5.401  19.083  0.00  0.00    +0.000 A 
ATOM     14  N   UNL     1       4.193   5.090  18.191  0.00  0.00    +0.000 N 
ATOM     15  N   UNL     1       5.039   5.951  17.597  0.00  0.00    +0.000 NA
ATOM     16  H   UNL     1       4.921   1.239  17.684  0.00  0.00    +0.000 HD
ATOM     17  H   UNL     1       3.657   0.735  18.725  0.00  0.00    +0.000 HD
ENDROOT
BRANCH   1  18
ATOM     18  C   UNL     1       7.055   5.542  16.170  0.00  0.00    +0.000 C 
ATOM     19  O   UNL     1       7.586   6.639  16.323  0.00  0.00    +0.000 OA
BRANCH  18  20
ATOM     20  O   UNL     1       7.451   4.627  15.231  0.00  0.00    +0.000 OA
BRANCH  20  22
ATOM     21  C   UNL     1       6.161   3.746  13.423  0.00  0.00    +0.000 C 
ATOM     22  C   UNL     1       7.027   4.902  13.891  0.00  0.00    +0.000 C 
ENDBRANCH  20  22
ENDBRANCH  18  20
ENDBRANCH   1  18
TORSDOF 3
ENDMDL
MODEL 8
REMARK VINA RESULT:      -7.3      3.929      6.048
REMARK  Name = 
REMARK  4 active torsions:
REMARK  status: ('A' for Active; 'I' for Inactive)
REMARK    1  A    between atoms: C_1  and  C_2
REMARK    2  A    between atoms: C_2  and  O_3
REMARK    3  A    between atoms: O_3  and  C_4
REMARK    4  A    between atoms: C_4  and  C_6
REMARK                            x       y       z     vdW  Elec       q    Type
REMARK                         _______ _______ _______ _____ _____    ______ ____
ROOT
ATOM      1  C   UNL     1       4.186   3.320  19.191  0.00  0.00    +0.000 A 
ATOM      2  N   UNL     1       5.272   4.028  19.698  0.00  0.00    +0.000 NA
ATOM      3  C   UNL     1       5.899   4.408  18.610  0.00  0.00    +0.000 A 
ATOM      4  C   UNL     1       7.132   5.140  18.503  0.00  0.00    +0.000 A 
ATOM      5  N   UNL     1       7.804   5.604  19.602  0.00  0.00    +0.000 N 
ATOM      6  N   UNL     1       7.645   5.355  17.319  0.00  0.00    +0.000 NA
ATOM      7  C   UNL     1       6.961   4.897  16.167  0.00  0.00    +0.000 A 
ATOM      8  C   UNL     1       7.513   5.157  14.913  0.00  0.00    +0.000 A 
ATOM      9  C   UNL     1       6.860   4.735  13.749  0.00  0.00    +0.000 A 
ATOM     10  C   UNL     1       5.650   4.039  13.835  0.00  0.00    +0.000 A 
ATOM     11 CL   UNL     1       4.857   3.540  12.393  0.00  0.00    +0.000 Cl
ATOM     12  C   UNL     1       5.080   3.753  15.073  0.00  0.00    +0.000 A 
ATOM     13  C   UNL     1       5.743   4.194  16.221  0.00  0.00    +0.000 A 
ATOM     14  N   UNL     1       5.248   3.968  17.506  0.00  0.00    +0.000 N 
ATOM     15  N   UNL     1       4.140   3.284  17.839  0.00  0.00    +0.000 NA
ATOM     16  H   UNL     1       7.583   5.133  20.474  0.00  0.00    +0.000 HD
ATOM     17  H   UNL     1       8.787   5.779  19.440  0.00  0.00    +0.000 HD
ENDROOT
BRANCH   1  18
ATOM     18  C   UNL     1       3.250   2.600  20.076  0.00  0.00    +0.000 C 
ATOM     19  O   UNL     1       3.444   2.444  21.279  0.00  0.00    +0.000 OA
BRANCH  18  20
ATOM     20  O   UNL     1       2.198   2.046  19.396  0.00  0.00    +0.000 OA
BRANCH  20  22
ATOM     21  C   UNL     1       0.911   3.840  20.311  0.00  0.00    +0.000 C 
ATOM     22  C   UNL     1       1.118   2.941  19.105  0.00  0.00    +0.000 C 
ENDBRANCH  20  22
ENDBRANCH  18  20
ENDBRANCH   1  18
TORSDOF 3
ENDMDL
MODEL 9
REMARK VINA RESULT:      -7.2      3.755      6.508
REMARK  Name = 
REMARK  4 active torsions:
REMARK  status: ('A' for Active; 'I' for Inactive)
REMARK    1  A    between atoms: C_1  and  C_2
REMARK    2  A    between atoms: C_2  and  O_3
REMARK    3  A    between atoms: O_3  and  C_4
REMARK    4  A    between atoms: C_4  and  C_6
REMARK                            x       y       z     vdW  Elec       q    Type
REMARK                         _______ _______ _______ _____ _____    ______ ____
ROOT
ATOM      1  C   UNL     1       3.832   4.511  17.859  0.00  0.00    +0.000 A 
ATOM      2  N   UNL     1       4.882   5.345  18.232  0.00  0.00    +0.000 NA
ATOM      3  C   UNL     1       5.623   5.373  17.150  0.00  0.00    +0.000 A 
ATOM      4  C   UNL     1       6.881   6.041  16.949  0.00  0.00    +0.000 A 
ATOM      5  N   UNL     1       7.455   6.824  17.914  0.00  0.00    +0.000 N 
ATOM      6  N   UNL     1       7.513   5.881  15.815  0.00  0.00    +0.000 NA
ATOM      7  C   UNL     1       6.933   5.087  14.796  0.00  0.00    +0.000 A 
ATOM      8  C   UNL     1       7.613   4.949  13.586  0.00  0.00    +0.000 A 
ATOM      9  C   UNL     1       7.066   4.186  12.548  0.00  0.00    +0.000 A 
ATOM     10  C   UNL     1       5.835   3.546  12.720  0.00  0.00    +0.000 A 
ATOM     11 CL   UNL     1       5.173   2.622  11.429  0.00  0.00    +0.000 Cl
ATOM     12  C   UNL     1       5.138   3.654  13.922  0.00  0.00    +0.000 A 
ATOM     13  C   UNL     1       5.697   4.430  14.939  0.00  0.00    +0.000 A 
ATOM     14  N   UNL     1       5.073   4.610  16.174  0.00  0.00    +0.000 N 
ATOM     15  N   UNL     1       3.918   4.058  16.587  0.00  0.00    +0.000 NA
ATOM     16  H   UNL     1       7.136   6.645  18.862  0.00  0.00    +0.000 HD
ATOM     17  H   UNL     1       8.454   6.945  17.807  0.00  0.00    +0.000 HD
ENDROOT
BRANCH   1  18
ATOM     18  C   UNL     1       2.794   4.095  18.823  0.00  0.00    +0.000 C 
ATOM     19  O   UNL     1       1.631   3.862  18.503  0.00  0.00    +0.000 OA
BRANCH  18  20
ATOM     20  O   UNL     1       3.243   4.094  20.117  0.00  0.00    +0.000 OA
BRANCH  20  22
ATOM     21  C   UNL     1       1.895   2.932  21.713  0.00  0.00    +0.000 C 
ATOM     22  C   UNL     1       2.234   4.287  21.115  0.00  0.00    +0.000 C 
ENDBRANCH  20  22
ENDBRANCH  18  20
ENDBRANCH   1  18
TORSDOF 3
ENDMDL
