MODEL 1
REMARK VINA RESULT:      -6.1      0.000      0.000
REMARK  Name = 
REMARK  6 active torsions:
REMARK  status: ('A' for Active; 'I' for Inactive)
REMARK    1  A    between atoms: C_1  and  C_2
REMARK    2  A    between atoms: C_6  and  C_7
REMARK    3  A    between atoms: C_8  and  N_9
REMARK    4  A    between atoms: N_9  and  C_10
REMARK    5  A    between atoms: C_11  and  C_13
REMARK    6  A    between atoms: C_13  and  N_14
REMARK                            x       y       z     vdW  Elec       q    Type
REMARK                         _______ _______ _______ _____ _____    ______ ____
ROOT
ATOM      1  C   UNL     1       4.527   3.289  19.694  0.00  0.00    +0.000 C 
ATOM      2  C   UNL     1       4.152   4.629  19.117  0.00  0.00    +0.000 A 
ATOM      3  C   UNL     1       3.021   5.242  19.704  0.00  0.00    +0.000 A 
ATOM      4  C   UNL     1       2.487   6.413  19.189  0.00  0.00    +0.000 A 
ATOM      5  C   UNL     1       3.081   7.003  18.082  0.00  0.00    +0.000 A 
ATOM      6  C   UNL     1       4.236   6.452  17.494  0.00  0.00    +0.000 A 
ATOM      7  C   UNL     1       4.818   7.221  16.334  0.00  0.00    +0.000 C 
ATOM      8  C   UNL     1       4.799   5.250  18.021  0.00  0.00    +0.000 A 
ENDROOT
BRANCH   8   9
ATOM      9  N   UNL     1       5.958   4.665  17.406  0.00  0.00    +0.000 N 
ATOM     10  C   UNL     1       5.751   3.724  16.315  0.00  0.00    +0.000 C 
ATOM     11  C   UNL     1       7.294   4.862  17.770  0.00  0.00    +0.000 C 
ATOM     12  O   UNL     1       8.207   4.199  17.251  0.00  0.00    +0.000 OA
BRANCH  11  13
ATOM     13  C   UNL     1       7.670   5.943  18.797  0.00  0.00    +0.000 C 
BRANCH  13  14
ATOM     14  N   UNL     1       7.811   5.353  20.142  0.00  0.00    +0.000 NA
ATOM     15  H   UNL     1       8.775   5.010  20.219  0.00  0.00    +0.000 HD
ATOM     16  H   UNL     1       7.220   4.524  20.195  0.00  0.00    +0.000 HD
ENDBRANCH  13  14
ENDBRANCH  11  13
ENDBRANCH   8   9
TORSDOF 3
ENDMDL
MODEL 2
REMARK VINA RESULT:      -6.0      0.086      2.348
REMARK  Name = 
REMARK  6 active torsions:
REMARK  status: ('A' for Active; 'I' for Inactive)
REMARK    1  A    between atoms: C_1  and  C_2
REMARK    2  A    between atoms: C_6  and  C_7
REMARK    3  A    between atoms: C_8  and  N_9
REMARK    4  A    between atoms: N_9  and  C_10
REMARK    5  A    between atoms: C_11  and  C_13
REMARK    6  A    between atoms: C_13  and  N_14
REMARK                            x       y       z     vdW  Elec       q    Type
REMARK                         _______ _______ _______ _____ _____    ______ ____
ROOT
ATOM      1  C   UNL     1       4.842   7.325  16.331  0.00  0.00    +0.000 C 
ATOM      2  C   UNL     1       4.222   6.502  17.430  0.00  0.00    +0.000 A 
ATOM      3  C   UNL     1       3.068   7.063  18.024  0.00  0.00    +0.000 A 
ATOM      4  C   UNL     1       2.471   6.479  19.131  0.00  0.00    +0.000 A 
ATOM      5  C   UNL     1       3.008   5.314  19.659  0.00  0.00    +0.000 A 
ATOM      6  C   UNL     1       4.129   4.696  19.071  0.00  0.00    +0.000 A 
ATOM      7  C   UNL     1       4.580   3.403  19.705  0.00  0.00    +0.000 C 
ATOM      8  C   UNL     1       4.748   5.284  17.926  0.00  0.00    +0.000 A 
ENDROOT
BRANCH   8   9
ATOM      9  N   UNL     1       5.911   4.677  17.342  0.00  0.00    +0.000 N 
ATOM     10  C   UNL     1       5.714   3.723  16.260  0.00  0.00    +0.000 C 
ATOM     11  C   UNL     1       7.242   4.864  17.728  0.00  0.00    +0.000 C 
ATOM     12  O   UNL     1       8.157   4.183  17.236  0.00  0.00    +0.000 OA
BRANCH  11  13
ATOM     13  C   UNL     1       7.611   5.955  18.747  0.00  0.00    +0.000 C 
BRANCH  13  14
ATOM     14  N   UNL     1       7.790   5.371  20.090  0.00  0.00    +0.000 NA
ATOM     15  H   UNL     1       7.449   6.063  20.766  0.00  0.00    +0.000 HD
ATOM     16  H   UNL     1       8.789   5.279  20.272  0.00  0.00    +0.000 HD
ENDBRANCH  13  14
ENDBRANCH  11  13
ENDBRANCH   8   9
TORSDOF 3
ENDMDL
MODEL 3
REMARK VINA RESULT:      -5.8      0.925      1.226
REMARK  Name = 
REMARK  6 active torsions:
REMARK  status: ('A' for Active; 'I' for Inactive)
REMARK    1  A    between atoms: C_1  and  C_2
REMARK    2  A    between atoms: C_6  and  C_7
REMARK    3  A    between atoms: C_8  and  N_9
REMARK    4  A    between atoms: N_9  and  C_10
REMARK    5  A    between atoms: C_11  and  C_13
REMARK    6  A    between atoms: C_13  and  N_14
REMARK                            x       y       z     vdW  Elec       q    Type
REMARK                         _______ _______ _______ _____ _____    ______ ____
ROOT
ATOM      1  C   UNL     1       4.301   2.397  19.811  0.00  0.00    +0.000 C 
ATOM      2  C   UNL     1       3.714   3.778  19.674  0.00  0.00    +0.000 A 
ATOM      3  C   UNL     1       2.612   4.050  20.515  0.00  0.00    +0.000 A 
ATOM      4  C   UNL     1       1.894   5.231  20.404  0.00  0.00    +0.000 A 
ATOM      5  C   UNL     1       2.274   6.172  19.457  0.00  0.00    +0.000 A 
ATOM      6  C   UNL     1       3.394   5.963  18.630  0.00  0.00    +0.000 A 
ATOM      7  C   UNL     1       3.737   7.087  17.684  0.00  0.00    +0.000 C 
ATOM      8  C   UNL     1       4.145   4.753  18.741  0.00  0.00    +0.000 A 
ENDROOT
BRANCH   8   9
ATOM      9  N   UNL     1       5.269   4.519  17.878  0.00  0.00    +0.000 N 
ATOM     10  C   UNL     1       5.028   3.855  16.605  0.00  0.00    +0.000 C 
ATOM     11  C   UNL     1       6.610   4.819  18.140  0.00  0.00    +0.000 C 
ATOM     12  O   UNL     1       7.515   4.450  17.375  0.00  0.00    +0.000 OA
BRANCH  11  13
ATOM     13  C   UNL     1       6.992   5.658  19.371  0.00  0.00    +0.000 C 
BRANCH  13  14
ATOM     14  N   UNL     1       8.375   5.361  19.792  0.00  0.00    +0.000 NA
ATOM     15  H   UNL     1       8.994   5.949  19.225  0.00  0.00    +0.000 HD
ATOM     16  H   UNL     1       8.593   4.400  19.529  0.00  0.00    +0.000 HD
ENDBRANCH  13  14
ENDBRANCH  11  13
ENDBRANCH   8   9
TORSDOF 3
ENDMDL
MODEL 4
REMARK VINA RESULT:      -5.8      0.995      2.635
REMARK  Name = 
REMARK  6 active torsions:
REMARK  status: ('A' for Active; 'I' for Inactive)
REMARK    1  A    between atoms: C_1  and  C_2
REMARK    2  A    between atoms: C_6  and  C_7
REMARK    3  A    between atoms: C_8  and  N_9
REMARK    4  A    between atoms: N_9  and  C_10
REMARK    5  A    between atoms: C_11  and  C_13
REMARK    6  A    between atoms: C_13  and  N_14
REMARK                            x       y       z     vdW  Elec       q    Type
REMARK                         _______ _______ _______ _____ _____    ______ ____
ROOT
ATOM      1  C   UNL     1       3.615   7.092  17.824  0.00  0.00    +0.000 C 
ATOM      2  C   UNL     1       3.279   5.903  18.685  0.00  0.00    +0.000 A 
ATOM      3  C   UNL     1       2.162   6.072  19.535  0.00  0.00    +0.000 A 
ATOM      4  C   UNL     1       1.818   5.110  20.473  0.00  0.00    +0.000 A 
ATOM      5  C   UNL     1       2.576   3.952  20.571  0.00  0.00    +0.000 A 
ATOM      6  C   UNL     1       3.669   3.722  19.712  0.00  0.00    +0.000 A 
ATOM      7  C   UNL     1       4.375   2.399  19.881  0.00  0.00    +0.000 C 
ATOM      8  C   UNL     1       4.029   4.702  18.738  0.00  0.00    +0.000 A 
ENDROOT
BRANCH   8   9
ATOM      9  N   UNL     1       5.162   4.489  17.882  0.00  0.00    +0.000 N 
ATOM     10  C   UNL     1       4.932   3.868  16.585  0.00  0.00    +0.000 C 
ATOM     11  C   UNL     1       6.500   4.773  18.170  0.00  0.00    +0.000 C 
ATOM     12  O   UNL     1       7.413   4.423  17.404  0.00  0.00    +0.000 OA
BRANCH  11  13
ATOM     13  C   UNL     1       6.872   5.570  19.432  0.00  0.00    +0.000 C 
BRANCH  13  14
ATOM     14  N   UNL     1       8.291   5.359  19.779  0.00  0.00    +0.000 NA
ATOM     15  H   UNL     1       8.693   4.763  19.047  0.00  0.00    +0.000 HD
ATOM     16  H   UNL     1       8.335   4.808  20.636  0.00  0.00    +0.000 HD
ENDBRANCH  13  14
ENDBRANCH  11  13
ENDBRANCH   8   9
TORSDOF 3
ENDMDL
MODEL 5
REMARK VINA RESULT:      -5.8      1.176      1.193
REMARK  Name = 
REMARK  6 active torsions:
REMARK  status: ('A' for Active; 'I' for Inactive)
REMARK    1  A    between atoms: C_1  and  C_2
REMARK    2  A    between atoms: C_6  and  C_7
REMARK    3  A    between atoms: C_8  and  N_9
REMARK    4  A    between atoms: N_9  and  C_10
REMARK    5  A    between atoms: C_11  and  C_13
REMARK    6  A    between atoms: C_13  and  N_14
REMARK                            x       y       z     vdW  Elec       q    Type
REMARK                         _______ _______ _______ _____ _____    ______ ____
ROOT
ATOM      1  C   UNL     1       4.144   2.031  18.162  0.00  0.00    +0.000 C 
ATOM      2  C   UNL     1       3.655   3.455  18.169  0.00  0.00    +0.000 A 
ATOM      3  C   UNL     1       2.344   3.639  18.665  0.00  0.00    +0.000 A 
ATOM      4  C   UNL     1       1.719   4.876  18.610  0.00  0.00    +0.000 A 
ATOM      5  C   UNL     1       2.397   5.958  18.069  0.00  0.00    +0.000 A 
ATOM      6  C   UNL     1       3.722   5.831  17.606  0.00  0.00    +0.000 A 
ATOM      7  C   UNL     1       4.368   7.095  17.096  0.00  0.00    +0.000 C 
ATOM      8  C   UNL     1       4.378   4.564  17.665  0.00  0.00    +0.000 A 
ENDROOT
BRANCH   8   9
ATOM      9  N   UNL     1       5.716   4.420  17.164  0.00  0.00    +0.000 N 
ATOM     10  C   UNL     1       5.890   3.899  15.816  0.00  0.00    +0.000 C 
ATOM     11  C   UNL     1       6.906   4.685  17.851  0.00  0.00    +0.000 C 
ATOM     12  O   UNL     1       8.010   4.396  17.362  0.00  0.00    +0.000 OA
BRANCH  11  13
ATOM     13  C   UNL     1       6.874   5.384  19.220  0.00  0.00    +0.000 C 
BRANCH  13  14
ATOM     14  N   UNL     1       8.220   5.395  19.827  0.00  0.00    +0.000 NA
ATOM     15  H   UNL     1       8.295   4.552  20.406  0.00  0.00    +0.000 HD
ATOM     16  H   UNL     1       8.274   6.179  20.477  0.00  0.00    +0.000 HD
ENDBRANCH  13  14
ENDBRANCH  11  13
ENDBRANCH   8   9
TORSDOF 3
ENDMDL
MODEL 6
REMARK VINA RESULT:      -5.5      1.286      2.356
REMARK  Name = 
REMARK  6 active torsions:
REMARK  status: ('A' for Active; 'I' for Inactive)
REMARK    1  A    between atoms: C_1  and  C_2
REMARK    2  A    between atoms: C_6  and  C_7
REMARK    3  A    between atoms: C_8  and  N_9
REMARK    4  A    between atoms: N_9  and  C_10
REMARK    5  A    between atoms: C_11  and  C_13
REMARK    6  A    between atoms: C_13  and  N_14
REMARK                            x       y       z     vdW  Elec       q    Type
REMARK                         _______ _______ _______ _____ _____    ______ ____
ROOT
ATOM      1  C   UNL     1       4.557   2.452  19.543  0.00  0.00    +0.000 C 
ATOM      2  C   UNL     1       3.851   3.699  19.079  0.00  0.00    +0.000 A 
ATOM      3  C   UNL     1       2.450   3.701  19.262  0.00  0.00    +0.000 A 
ATOM      4  C   UNL     1       1.659   4.726  18.765  0.00  0.00    +0.000 A 
ATOM      5  C   UNL     1       2.256   5.778  18.086  0.00  0.00    +0.000 A 
ATOM      6  C   UNL     1       3.654   5.841  17.921  0.00  0.00    +0.000 A 
ATOM      7  C   UNL     1       4.182   7.065  17.216  0.00  0.00    +0.000 C 
ATOM      8  C   UNL     1       4.479   4.794  18.435  0.00  0.00    +0.000 A 
ENDROOT
BRANCH   8   9
ATOM      9  N   UNL     1       5.901   4.834  18.242  0.00  0.00    +0.000 N 
ATOM     10  C   UNL     1       6.723   5.369  19.317  0.00  0.00    +0.000 C 
ATOM     11  C   UNL     1       6.606   4.452  17.096  0.00  0.00    +0.000 C 
ATOM     12  O   UNL     1       7.827   4.656  16.992  0.00  0.00    +0.000 OA
BRANCH  11  13
ATOM     13  C   UNL     1       5.888   3.727  15.946  0.00  0.00    +0.000 C 
BRANCH  13  14
ATOM     14  N   UNL     1       6.467   4.115  14.645  0.00  0.00    +0.000 NA
ATOM     15  H   UNL     1       6.444   5.140  14.601  0.00  0.00    +0.000 HD
ATOM     16  H   UNL     1       5.844   3.794  13.905  0.00  0.00    +0.000 HD
ENDBRANCH  13  14
ENDBRANCH  11  13
ENDBRANCH   8   9
TORSDOF 3
ENDMDL
MODEL 7
REMARK VINA RESULT:      -5.5      1.738      2.524
REMARK  Name = 
REMARK  6 active torsions:
REMARK  status: ('A' for Active; 'I' for Inactive)
REMARK    1  A    between atoms: C_1  and  C_2
REMARK    2  A    between atoms: C_6  and  C_7
REMARK    3  A    between atoms: C_8  and  N_9
REMARK    4  A    between atoms: N_9  and  C_10
REMARK    5  A    between atoms: C_11  and  C_13
REMARK    6  A    between atoms: C_13  and  N_14
REMARK                            x       y       z     vdW  Elec       q    Type
REMARK                         _______ _______ _______ _____ _____    ______ ____
ROOT
ATOM      1  C   UNL     1       5.106   3.336  16.083  0.00  0.00    +0.000 C 
ATOM      2  C   UNL     1       4.026   3.904  16.966  0.00  0.00    +0.000 A 
ATOM      3  C   UNL     1       2.921   3.052  17.190  0.00  0.00    +0.000 A 
ATOM      4  C   UNL     1       1.799   3.491  17.875  0.00  0.00    +0.000 A 
ATOM      5  C   UNL     1       1.763   4.790  18.361  0.00  0.00    +0.000 A 
ATOM      6  C   UNL     1       2.860   5.659  18.201  0.00  0.00    +0.000 A 
ATOM      7  C   UNL     1       2.719   7.024  18.827  0.00  0.00    +0.000 C 
ATOM      8  C   UNL     1       4.025   5.215  17.504  0.00  0.00    +0.000 A 
ENDROOT
BRANCH   8   9
ATOM      9  N   UNL     1       5.134   6.106  17.308  0.00  0.00    +0.000 N 
ATOM     10  C   UNL     1       5.078   7.032  16.186  0.00  0.00    +0.000 C 
ATOM     11  C   UNL     1       6.312   6.162  18.060  0.00  0.00    +0.000 C 
ATOM     12  O   UNL     1       7.261   6.885  17.717  0.00  0.00    +0.000 OA
BRANCH  11  13
ATOM     13  C   UNL     1       6.442   5.356  19.363  0.00  0.00    +0.000 C 
BRANCH  13  14
ATOM     14  N   UNL     1       7.759   5.590  19.988  0.00  0.00    +0.000 NA
ATOM     15  H   UNL     1       8.330   4.758  19.806  0.00  0.00    +0.000 HD
ATOM     16  H   UNL     1       7.635   5.622  21.000  0.00  0.00    +0.000 HD
ENDBRANCH  13  14
ENDBRANCH  11  13
ENDBRANCH   8   9
TORSDOF 3
ENDMDL
MODEL 8
REMARK VINA RESULT:      -5.5      1.315      3.318
REMARK  Name = 
REMARK  6 active torsions:
REMARK  status: ('A' for Active; 'I' for Inactive)
REMARK    1  A    between atoms: C_1  and  C_2
REMARK    2  A    between atoms: C_6  and  C_7
REMARK    3  A    between atoms: C_8  and  N_9
REMARK    4  A    between atoms: N_9  and  C_10
REMARK    5  A    between atoms: C_11  and  C_13
REMARK    6  A    between atoms: C_13  and  N_14
REMARK                            x       y       z     vdW  Elec       q    Type
REMARK                         _______ _______ _______ _____ _____    ______ ____
ROOT
ATOM      1  C   UNL     1       4.047   7.086  17.281  0.00  0.00    +0.000 C 
ATOM      2  C   UNL     1       3.567   5.793  17.885  0.00  0.00    +0.000 A 
ATOM      3  C   UNL     1       2.166   5.687  18.045  0.00  0.00    +0.000 A 
ATOM      4  C   UNL     1       1.595   4.609  18.704  0.00  0.00    +0.000 A 
ATOM      5  C   UNL     1       2.413   3.607  19.206  0.00  0.00    +0.000 A 
ATOM      6  C   UNL     1       3.810   3.648  19.028  0.00  0.00    +0.000 A 
ATOM      7  C   UNL     1       4.581   2.469  19.568  0.00  0.00    +0.000 C 
ATOM      8  C   UNL     1       4.408   4.750  18.344  0.00  0.00    +0.000 A 
ENDROOT
BRANCH   8   9
ATOM      9  N   UNL     1       5.835   4.815  18.188  0.00  0.00    +0.000 N 
ATOM     10  C   UNL     1       6.620   5.348  19.292  0.00  0.00    +0.000 C 
ATOM     11  C   UNL     1       6.575   4.460  17.056  0.00  0.00    +0.000 C 
ATOM     12  O   UNL     1       7.795   4.684  16.987  0.00  0.00    +0.000 OA
BRANCH  11  13
ATOM     13  C   UNL     1       5.898   3.739  15.878  0.00  0.00    +0.000 C 
BRANCH  13  14
ATOM     14  N   UNL     1       5.924   4.585  14.669  0.00  0.00    +0.000 NA
ATOM     15  H   UNL     1       5.348   5.410  14.868  0.00  0.00    +0.000 HD
ATOM     16  H   UNL     1       5.444   4.089  13.918  0.00  0.00    +0.000 HD
ENDBRANCH  13  14
ENDBRANCH  11  13
ENDBRANCH   8   9
TORSDOF 3
ENDMDL
MODEL 9
REMARK VINA RESULT:      -5.4      1.709      2.709
REMARK  Name = 
REMARK  6 active torsions:
REMARK  status: ('A' for Active; 'I' for Inactive)
REMARK    1  A    between atoms: C_1  and  C_2
REMARK    2  A    between atoms: C_6  and  C_7
REMARK    3  A    between atoms: C_8  and  N_9
REMARK    4  A    between atoms: N_9  and  C_10
REMARK    5  A    between atoms: C_11  and  C_13
REMARK    6  A    between atoms: C_13  and  N_14
REMARK                            x       y       z     vdW  Elec       q    Type
REMARK                         _______ _______ _______ _____ _____    ______ ____
ROOT
ATOM      1  C   UNL     1       2.790   7.138  18.633  0.00  0.00    +0.000 C 
ATOM      2  C   UNL     1       2.899   5.758  18.039  0.00  0.00    +0.000 A 
ATOM      3  C   UNL     1       1.773   4.927  18.236  0.00  0.00    +0.000 A 
ATOM      4  C   UNL     1       1.786   3.594  17.858  0.00  0.00    +0.000 A 
ATOM      5  C   UNL     1       2.922   3.066  17.261  0.00  0.00    +0.000 A 
ATOM      6  C   UNL     1       4.050   3.869  17.003  0.00  0.00    +0.000 A 
ATOM      7  C   UNL     1       5.198   3.191  16.297  0.00  0.00    +0.000 C 
ATOM      8  C   UNL     1       4.045   5.246  17.382  0.00  0.00    +0.000 A 
ENDROOT
BRANCH   8   9
ATOM      9  N   UNL     1       5.204   6.063  17.152  0.00  0.00    +0.000 N 
ATOM     10  C   UNL     1       5.237   6.882  15.949  0.00  0.00    +0.000 C 
ATOM     11  C   UNL     1       6.355   6.134  17.944  0.00  0.00    +0.000 C 
ATOM     12  O   UNL     1       7.352   6.777  17.576  0.00  0.00    +0.000 OA
BRANCH  11  13
ATOM     13  C   UNL     1       6.396   5.448  19.320  0.00  0.00    +0.000 C 
BRANCH  13  14
ATOM     14  N   UNL     1       7.735   5.582  19.926  0.00  0.00    +0.000 NA
ATOM     15  H   UNL     1       7.763   6.496  20.391  0.00  0.00    +0.000 HD
ATOM     16  H   UNL     1       8.425   5.633  19.177  0.00  0.00    +0.000 HD
ENDBRANCH  13  14
ENDBRANCH  11  13
ENDBRANCH   8   9
TORSDOF 3
ENDMDL
