MODEL 1
REMARK VINA RESULT:      -8.6      0.000      0.000
REMARK  Name = 
REMARK  8 active torsions:
REMARK  status: ('A' for Active; 'I' for Inactive)
REMARK    1  A    between atoms: C_1  and  O_2
REMARK    2  A    between atoms: O_2  and  C_3
REMARK    3  A    between atoms: N_11  and  C_12
REMARK    4  A    between atoms: C_15  and  C_16
REMARK    5  A    between atoms: C_16  and  N_17
REMARK    6  A    between atoms: C_19  and  C_20
REMARK    7  A    between atoms: C_32  and  O_33
REMARK    8  A    between atoms: O_33  and  C_34
REMARK                            x       y       z     vdW  Elec       q    Type
REMARK                         _______ _______ _______ _____ _____    ______ ____
ROOT
ATOM      1  C   UNL     1       1.786   8.455  19.595  0.00  0.00    +0.000 A 
ATOM      2  C   UNL     1       1.597   7.362  20.452  0.00  0.00    +0.000 A 
ATOM      3  C   UNL     1       2.085   6.101  20.128  0.00  0.00    +0.000 A 
ATOM      4  C   UNL     1       2.752   5.899  18.916  0.00  0.00    +0.000 A 
ATOM      5  C   UNL     1       2.819   6.954  17.995  0.00  0.00    +0.000 A 
ATOM      6  C   UNL     1       2.332   8.222  18.331  0.00  0.00    +0.000 A 
ENDROOT
BRANCH   1  15
ATOM      7  C   UNL     1       0.515  14.694  19.179  0.00  0.00    +0.000 A 
ATOM      8  C   UNL     1      -0.493  13.956  18.541  0.00  0.00    +0.000 A 
ATOM      9  C   UNL     1      -0.546  12.573  18.599  0.00  0.00    +0.000 A 
ATOM     10  N   UNL     1      -1.508  11.929  17.931  0.00  0.00    +0.000 NA
ATOM     11  C   UNL     1      -1.476  10.597  17.996  0.00  0.00    +0.000 A 
ATOM     12 CL   UNL     1      -2.679   9.759  17.125  0.00  0.00    +0.000 Cl
ATOM     13  N   UNL     1      -0.586   9.844  18.641  0.00  0.00    +0.000 NA
ATOM     14  C   UNL     1       0.376  10.503  19.310  0.00  0.00    +0.000 A 
ATOM     15  N   UNL     1       1.378   9.749  19.979  0.00  0.00    +0.000 N 
ATOM     16  C   UNL     1       0.437  11.906  19.342  0.00  0.00    +0.000 A 
ATOM     17  C   UNL     1       1.432  12.642  20.025  0.00  0.00    +0.000 A 
ATOM     18  C   UNL     1       1.479  14.032  19.947  0.00  0.00    +0.000 A 
ATOM     19  H   UNL     1       1.270   9.854  20.984  0.00  0.00    +0.000 HD
BRANCH   7  21
ATOM     20  C   UNL     1      -0.792  16.656  19.420  0.00  0.00    +0.000 C 
ATOM     21  O   UNL     1       0.421  16.049  18.984  0.00  0.00    +0.000 OA
ENDBRANCH   7  21
BRANCH  18  22
ATOM     22  O   UNL     1       2.380  14.773  20.658  0.00  0.00    +0.000 OA
ATOM     23  C   UNL     1       3.528  14.079  21.135  0.00  0.00    +0.000 C 
ENDBRANCH  18  22
ENDBRANCH   1  15
BRANCH   4  24
ATOM     24  C   UNL     1       3.440   4.590  18.639  0.00  0.00    +0.000 C 
BRANCH  24  25
ATOM     25  N   UNL     1       4.549   4.724  17.720  0.00  0.00    +0.000 N 
ATOM     26  C   UNL     1       4.496   4.693  16.356  0.00  0.00    +0.000 A 
ATOM     27  C   UNL     1       5.815   4.603  15.978  0.00  0.00    +0.000 A 
ATOM     28  N   UNL     1       6.606   4.592  17.098  0.00  0.00    +0.000 NA
ATOM     29  N   UNL     1       5.819   4.672  18.163  0.00  0.00    +0.000 NA
BRANCH  27  30
ATOM     30  C   UNL     1       6.299   4.443  14.622  0.00  0.00    +0.000 A 
ATOM     31  C   UNL     1       7.386   5.190  14.146  0.00  0.00    +0.000 A 
ATOM     32  C   UNL     1       7.799   5.073  12.818  0.00  0.00    +0.000 A 
ATOM     33  C   UNL     1       7.132   4.205  11.954  0.00  0.00    +0.000 A 
ATOM     34  C   UNL     1       6.063   3.442  12.421  0.00  0.00    +0.000 A 
ATOM     35  C   UNL     1       5.651   3.555  13.751  0.00  0.00    +0.000 A 
ENDBRANCH  27  30
ENDBRANCH  24  25
ENDBRANCH   4  24
TORSDOF 6
ENDMDL
MODEL 2
REMARK VINA RESULT:      -8.6      2.967      4.043
REMARK  Name = 
REMARK  8 active torsions:
REMARK  status: ('A' for Active; 'I' for Inactive)
REMARK    1  A    between atoms: C_1  and  O_2
REMARK    2  A    between atoms: O_2  and  C_3
REMARK    3  A    between atoms: N_11  and  C_12
REMARK    4  A    between atoms: C_15  and  C_16
REMARK    5  A    between atoms: C_16  and  N_17
REMARK    6  A    between atoms: C_19  and  C_20
REMARK    7  A    between atoms: C_32  and  O_33
REMARK    8  A    between atoms: O_33  and  C_34
REMARK                            x       y       z     vdW  Elec       q    Type
REMARK                         _______ _______ _______ _____ _____    ______ ____
ROOT
ATOM      1  C   UNL     1       1.498   8.695  18.104  0.00  0.00    +0.000 A 
ATOM      2  C   UNL     1       2.668   8.482  17.364  0.00  0.00    +0.000 A 
ATOM      3  C   UNL     1       3.607   7.533  17.755  0.00  0.00    +0.000 A 
ATOM      4  C   UNL     1       3.405   6.791  18.923  0.00  0.00    +0.000 A 
ATOM      5  C   UNL     1       2.309   7.099  19.741  0.00  0.00    +0.000 A 
ATOM      6  C   UNL     1       1.366   8.050  19.337  0.00  0.00    +0.000 A 
ENDROOT
BRANCH   1  15
ATOM      7  C   UNL     1      -4.212  11.462  17.442  0.00  0.00    +0.000 A 
ATOM      8  C   UNL     1      -3.627  11.855  18.654  0.00  0.00    +0.000 A 
ATOM      9  C   UNL     1      -2.327  11.517  18.992  0.00  0.00    +0.000 A 
ATOM     10  N   UNL     1      -1.846  11.885  20.184  0.00  0.00    +0.000 NA
ATOM     11  C   UNL     1      -0.602  11.492  20.460  0.00  0.00    +0.000 A 
ATOM     12 CL   UNL     1       0.016  11.928  21.989  0.00  0.00    +0.000 Cl
ATOM     13  N   UNL     1       0.202  10.764  19.687  0.00  0.00    +0.000 NA
ATOM     14  C   UNL     1      -0.292  10.400  18.492  0.00  0.00    +0.000 A 
ATOM     15  N   UNL     1       0.507   9.586  17.644  0.00  0.00    +0.000 N 
ATOM     16  C   UNL     1      -1.578  10.774  18.070  0.00  0.00    +0.000 A 
ATOM     17  C   UNL     1      -2.143  10.410  16.826  0.00  0.00    +0.000 A 
ATOM     18  C   UNL     1      -3.457  10.748  16.507  0.00  0.00    +0.000 A 
ATOM     19  H   UNL     1       0.796  10.119  16.829  0.00  0.00    +0.000 HD
BRANCH   7  21
ATOM     20  C   UNL     1      -6.462  11.219  18.147  0.00  0.00    +0.000 C 
ATOM     21  O   UNL     1      -5.516  11.863  17.297  0.00  0.00    +0.000 OA
ENDBRANCH   7  21
BRANCH  18  22
ATOM     22  O   UNL     1      -4.002  10.478  15.284  0.00  0.00    +0.000 OA
ATOM     23  C   UNL     1      -3.087  10.134  14.249  0.00  0.00    +0.000 C 
ENDBRANCH  18  22
ENDBRANCH   1  15
BRANCH   4  24
ATOM     24  C   UNL     1       4.316   5.641  19.255  0.00  0.00    +0.000 C 
BRANCH  24  25
ATOM     25  N   UNL     1       4.692   4.870  18.091  0.00  0.00    +0.000 N 
ATOM     26  C   UNL     1       5.581   5.227  17.119  0.00  0.00    +0.000 A 
ATOM     27  C   UNL     1       5.384   4.289  16.132  0.00  0.00    +0.000 A 
ATOM     28  N   UNL     1       4.411   3.410  16.532  0.00  0.00    +0.000 NA
ATOM     29  N   UNL     1       3.995   3.772  17.739  0.00  0.00    +0.000 NA
BRANCH  27  30
ATOM     30  C   UNL     1       6.024   4.280  14.832  0.00  0.00    +0.000 A 
ATOM     31  C   UNL     1       7.187   5.025  14.591  0.00  0.00    +0.000 A 
ATOM     32  C   UNL     1       7.755   5.058  13.316  0.00  0.00    +0.000 A 
ATOM     33  C   UNL     1       7.168   4.345  12.272  0.00  0.00    +0.000 A 
ATOM     34  C   UNL     1       6.022   3.586  12.505  0.00  0.00    +0.000 A 
ATOM     35  C   UNL     1       5.455   3.548  13.781  0.00  0.00    +0.000 A 
ENDBRANCH  27  30
ENDBRANCH  24  25
ENDBRANCH   4  24
TORSDOF 6
ENDMDL
MODEL 3
REMARK VINA RESULT:      -8.4      0.688      1.073
REMARK  Name = 
REMARK  8 active torsions:
REMARK  status: ('A' for Active; 'I' for Inactive)
REMARK    1  A    between atoms: C_1  and  O_2
REMARK    2  A    between atoms: O_2  and  C_3
REMARK    3  A    between atoms: N_11  and  C_12
REMARK    4  A    between atoms: C_15  and  C_16
REMARK    5  A    between atoms: C_16  and  N_17
REMARK    6  A    between atoms: C_19  and  C_20
REMARK    7  A    between atoms: C_32  and  O_33
REMARK    8  A    between atoms: O_33  and  C_34
REMARK                            x       y       z     vdW  Elec       q    Type
REMARK                         _______ _______ _______ _____ _____    ______ ____
ROOT
ATOM      1  C   UNL     1       1.654   8.292  19.898  0.00  0.00    +0.000 A 
ATOM      2  C   UNL     1       2.298   8.255  18.654  0.00  0.00    +0.000 A 
ATOM      3  C   UNL     1       2.786   7.062  18.131  0.00  0.00    +0.000 A 
ATOM      4  C   UNL     1       2.663   5.877  18.862  0.00  0.00    +0.000 A 
ATOM      5  C   UNL     1       2.149   5.933  20.164  0.00  0.00    +0.000 A 
ATOM      6  C   UNL     1       1.653   7.135  20.681  0.00  0.00    +0.000 A 
ENDROOT
BRANCH   1  15
ATOM      7  C   UNL     1       0.058  14.463  20.181  0.00  0.00    +0.000 A 
ATOM      8  C   UNL     1      -0.719  13.811  19.212  0.00  0.00    +0.000 A 
ATOM      9  C   UNL     1      -0.682  12.438  19.035  0.00  0.00    +0.000 A 
ATOM     10  N   UNL     1      -1.413  11.886  18.062  0.00  0.00    +0.000 NA
ATOM     11  C   UNL     1      -1.299  10.564  17.922  0.00  0.00    +0.000 A 
ATOM     12 CL   UNL     1      -2.204   9.847  16.666  0.00  0.00    +0.000 Cl
ATOM     13  N   UNL     1      -0.529   9.743  18.634  0.00  0.00    +0.000 NA
ATOM     14  C   UNL     1       0.201  10.310  19.610  0.00  0.00    +0.000 A 
ATOM     15  N   UNL     1       1.073   9.486  20.372  0.00  0.00    +0.000 N 
ATOM     16  C   UNL     1       0.149  11.687  19.877  0.00  0.00    +0.000 A 
ATOM     17  C   UNL     1       0.902  12.329  20.887  0.00  0.00    +0.000 A 
ATOM     18  C   UNL     1       0.864  13.713  21.043  0.00  0.00    +0.000 A 
ATOM     19  H   UNL     1       0.729   9.414  21.325  0.00  0.00    +0.000 HD
BRANCH   7  21
ATOM     20  C   UNL     1      -1.288  16.321  20.776  0.00  0.00    +0.000 C 
ATOM     21  O   UNL     1      -0.088  15.827  20.186  0.00  0.00    +0.000 OA
ENDBRANCH   7  21
BRANCH  18  22
ATOM     22  O   UNL     1       1.519  14.351  22.058  0.00  0.00    +0.000 OA
ATOM     23  C   UNL     1       2.878  14.696  21.810  0.00  0.00    +0.000 C 
ENDBRANCH  18  22
ENDBRANCH   1  15
BRANCH   4  24
ATOM     24  C   UNL     1       3.020   4.559  18.230  0.00  0.00    +0.000 C 
BRANCH  24  25
ATOM     25  N   UNL     1       4.218   4.631  17.424  0.00  0.00    +0.000 N 
ATOM     26  C   UNL     1       4.291   4.699  16.063  0.00  0.00    +0.000 A 
ATOM     27  C   UNL     1       5.624   4.488  15.793  0.00  0.00    +0.000 A 
ATOM     28  N   UNL     1       6.300   4.313  16.973  0.00  0.00    +0.000 NA
ATOM     29  N   UNL     1       5.429   4.407  17.970  0.00  0.00    +0.000 NA
BRANCH  27  30
ATOM     30  C   UNL     1       6.214   4.368  14.476  0.00  0.00    +0.000 A 
ATOM     31  C   UNL     1       7.333   5.130  14.110  0.00  0.00    +0.000 A 
ATOM     32  C   UNL     1       7.850   5.052  12.816  0.00  0.00    +0.000 A 
ATOM     33  C   UNL     1       7.257   4.209  11.877  0.00  0.00    +0.000 A 
ATOM     34  C   UNL     1       6.157   3.431  12.236  0.00  0.00    +0.000 A 
ATOM     35  C   UNL     1       5.641   3.505  13.532  0.00  0.00    +0.000 A 
ENDBRANCH  27  30
ENDBRANCH  24  25
ENDBRANCH   4  24
TORSDOF 6
ENDMDL
MODEL 4
REMARK VINA RESULT:      -8.4      2.855      3.977
REMARK  Name = 
REMARK  8 active torsions:
REMARK  status: ('A' for Active; 'I' for Inactive)
REMARK    1  A    between atoms: C_1  and  O_2
REMARK    2  A    between atoms: O_2  and  C_3
REMARK    3  A    between atoms: N_11  and  C_12
REMARK    4  A    between atoms: C_15  and  C_16
REMARK    5  A    between atoms: C_16  and  N_17
REMARK    6  A    between atoms: C_19  and  C_20
REMARK    7  A    between atoms: C_32  and  O_33
REMARK    8  A    between atoms: O_33  and  C_34
REMARK                            x       y       z     vdW  Elec       q    Type
REMARK                         _______ _______ _______ _____ _____    ______ ____
ROOT
ATOM      1  C   UNL     1       1.755   8.298  17.919  0.00  0.00    +0.000 A 
ATOM      2  C   UNL     1       3.100   8.492  17.576  0.00  0.00    +0.000 A 
ATOM      3  C   UNL     1       4.073   7.560  17.921  0.00  0.00    +0.000 A 
ATOM      4  C   UNL     1       3.722   6.420  18.648  0.00  0.00    +0.000 A 
ATOM      5  C   UNL     1       2.407   6.291  19.116  0.00  0.00    +0.000 A 
ATOM      6  C   UNL     1       1.432   7.229  18.759  0.00  0.00    +0.000 A 
ENDROOT
BRANCH   1  15
ATOM      7  C   UNL     1      -3.863  11.301  17.570  0.00  0.00    +0.000 A 
ATOM      8  C   UNL     1      -3.137  11.770  18.674  0.00  0.00    +0.000 A 
ATOM      9  C   UNL     1      -1.825  11.393  18.911  0.00  0.00    +0.000 A 
ATOM     10  N   UNL     1      -1.207  11.840  20.008  0.00  0.00    +0.000 NA
ATOM     11  C   UNL     1       0.040  11.406  20.195  0.00  0.00    +0.000 A 
ATOM     12 CL   UNL     1       0.834  11.945  21.606  0.00  0.00    +0.000 Cl
ATOM     13  N   UNL     1       0.726  10.569  19.419  0.00  0.00    +0.000 NA
ATOM     14  C   UNL     1       0.094  10.126  18.319  0.00  0.00    +0.000 A 
ATOM     15  N   UNL     1       0.763   9.196  17.477  0.00  0.00    +0.000 N 
ATOM     16  C   UNL     1      -1.211  10.530  17.994  0.00  0.00    +0.000 A 
ATOM     17  C   UNL     1      -1.918  10.087  16.853  0.00  0.00    +0.000 A 
ATOM     18  C   UNL     1      -3.242  10.465  16.636  0.00  0.00    +0.000 A 
ATOM     19  H   UNL     1       0.988   9.638  16.591  0.00  0.00    +0.000 HD
BRANCH   7  21
ATOM     20  C   UNL     1      -6.129  10.942  18.165  0.00  0.00    +0.000 C 
ATOM     21  O   UNL     1      -5.155  11.758  17.518  0.00  0.00    +0.000 OA
ENDBRANCH   7  21
BRANCH  18  22
ATOM     22  O   UNL     1      -3.924  10.116  15.505  0.00  0.00    +0.000 OA
ATOM     23  C   UNL     1      -3.172  10.103  14.296  0.00  0.00    +0.000 C 
ENDBRANCH  18  22
ENDBRANCH   1  15
BRANCH   4  24
ATOM     24  C   UNL     1       4.728   5.322  18.866  0.00  0.00    +0.000 C 
BRANCH  24  25
ATOM     25  N   UNL     1       5.656   5.187  17.765  0.00  0.00    +0.000 N 
ATOM     26  C   UNL     1       5.359   5.199  16.433  0.00  0.00    +0.000 A 
ATOM     27  C   UNL     1       6.525   4.781  15.832  0.00  0.00    +0.000 A 
ATOM     28  N   UNL     1       7.469   4.544  16.798  0.00  0.00    +0.000 NA
ATOM     29  N   UNL     1       6.928   4.800  17.981  0.00  0.00    +0.000 NA
BRANCH  27  30
ATOM     30  C   UNL     1       6.706   4.531  14.418  0.00  0.00    +0.000 A 
ATOM     31  C   UNL     1       7.644   5.255  13.667  0.00  0.00    +0.000 A 
ATOM     32  C   UNL     1       7.762   5.049  12.292  0.00  0.00    +0.000 A 
ATOM     33  C   UNL     1       6.947   4.114  11.654  0.00  0.00    +0.000 A 
ATOM     34  C   UNL     1       6.026   3.374  12.393  0.00  0.00    +0.000 A 
ATOM     35  C   UNL     1       5.909   3.576  13.770  0.00  0.00    +0.000 A 
ENDBRANCH  27  30
ENDBRANCH  24  25
ENDBRANCH   4  24
TORSDOF 6
ENDMDL
MODEL 5
REMARK VINA RESULT:      -8.1      2.575      3.599
REMARK  Name = 
REMARK  8 active torsions:
REMARK  status: ('A' for Active; 'I' for Inactive)
REMARK    1  A    between atoms: C_1  and  O_2
REMARK    2  A    between atoms: O_2  and  C_3
REMARK    3  A    between atoms: N_11  and  C_12
REMARK    4  A    between atoms: C_15  and  C_16
REMARK    5  A    between atoms: C_16  and  N_17
REMARK    6  A    between atoms: C_19  and  C_20
REMARK    7  A    between atoms: C_32  and  O_33
REMARK    8  A    between atoms: O_33  and  C_34
REMARK                            x       y       z     vdW  Elec       q    Type
REMARK                         _______ _______ _______ _____ _____    ______ ____
ROOT
ATOM      1  C   UNL     1       1.631   8.579  18.365  0.00  0.00    +0.000 A 
ATOM      2  C   UNL     1       2.699   8.431  17.470  0.00  0.00    +0.000 A 
ATOM      3  C   UNL     1       3.663   7.445  17.656  0.00  0.00    +0.000 A 
ATOM      4  C   UNL     1       3.593   6.599  18.767  0.00  0.00    +0.000 A 
ATOM      5  C   UNL     1       2.610   6.835  19.738  0.00  0.00    +0.000 A 
ATOM      6  C   UNL     1       1.639   7.823  19.540  0.00  0.00    +0.000 A 
ENDROOT
BRANCH   1  15
ATOM      7  C   UNL     1      -3.393  12.369  19.410  0.00  0.00    +0.000 A 
ATOM      8  C   UNL     1      -2.238  12.943  19.959  0.00  0.00    +0.000 A 
ATOM      9  C   UNL     1      -0.977  12.404  19.758  0.00  0.00    +0.000 A 
ATOM     10  N   UNL     1       0.077  12.976  20.349  0.00  0.00    +0.000 NA
ATOM     11  C   UNL     1       1.254  12.382  20.146  0.00  0.00    +0.000 A 
ATOM     12 CL   UNL     1       2.606  13.082  20.916  0.00  0.00    +0.000 Cl
ATOM     13  N   UNL     1       1.488  11.280  19.436  0.00  0.00    +0.000 NA
ATOM     14  C   UNL     1       0.420  10.715  18.847  0.00  0.00    +0.000 A 
ATOM     15  N   UNL     1       0.605   9.512  18.112  0.00  0.00    +0.000 N 
ATOM     16  C   UNL     1      -0.870  11.258  18.960  0.00  0.00    +0.000 A 
ATOM     17  C   UNL     1      -2.022  10.697  18.365  0.00  0.00    +0.000 A 
ATOM     18  C   UNL     1      -3.285  11.244  18.587  0.00  0.00    +0.000 A 
ATOM     19  H   UNL     1       0.460   9.690  17.123  0.00  0.00    +0.000 HD
BRANCH   7  21
ATOM     20  C   UNL     1      -4.957  12.918  21.104  0.00  0.00    +0.000 C 
ATOM     21  O   UNL     1      -4.552  13.024  19.742  0.00  0.00    +0.000 OA
ENDBRANCH   7  21
BRANCH  18  22
ATOM     22  O   UNL     1      -4.405  10.770  17.964  0.00  0.00    +0.000 OA
ATOM     23  C   UNL     1      -4.597  11.184  16.615  0.00  0.00    +0.000 C 
ENDBRANCH  18  22
ENDBRANCH   1  15
BRANCH   4  24
ATOM     24  C   UNL     1       4.520   5.420  18.879  0.00  0.00    +0.000 C 
BRANCH  24  25
ATOM     25  N   UNL     1       5.473   5.352  17.793  0.00  0.00    +0.000 N 
ATOM     26  C   UNL     1       5.197   5.238  16.462  0.00  0.00    +0.000 A 
ATOM     27  C   UNL     1       6.419   4.957  15.895  0.00  0.00    +0.000 A 
ATOM     28  N   UNL     1       7.374   4.919  16.878  0.00  0.00    +0.000 NA
ATOM     29  N   UNL     1       6.784   5.168  18.040  0.00  0.00    +0.000 NA
BRANCH  27  30
ATOM     30  C   UNL     1       6.655   4.648  14.500  0.00  0.00    +0.000 A 
ATOM     31  C   UNL     1       7.620   5.341  13.757  0.00  0.00    +0.000 A 
ATOM     32  C   UNL     1       7.791   5.077  12.397  0.00  0.00    +0.000 A 
ATOM     33  C   UNL     1       7.002   4.116  11.768  0.00  0.00    +0.000 A 
ATOM     34  C   UNL     1       6.053   3.405  12.502  0.00  0.00    +0.000 A 
ATOM     35  C   UNL     1       5.884   3.665  13.863  0.00  0.00    +0.000 A 
ENDBRANCH  27  30
ENDBRANCH  24  25
ENDBRANCH   4  24
TORSDOF 6
ENDMDL
MODEL 6
REMARK VINA RESULT:      -8.0      2.460      3.099
REMARK  Name = 
REMARK  8 active torsions:
REMARK  status: ('A' for Active; 'I' for Inactive)
REMARK    1  A    between atoms: C_1  and  O_2
REMARK    2  A    between atoms: O_2  and  C_3
REMARK    3  A    between atoms: N_11  and  C_12
REMARK    4  A    between atoms: C_15  and  C_16
REMARK    5  A    between atoms: C_16  and  N_17
REMARK    6  A    between atoms: C_19  and  C_20
REMARK    7  A    between atoms: C_32  and  O_33
REMARK    8  A    between atoms: O_33  and  C_34
REMARK                            x       y       z     vdW  Elec       q    Type
REMARK                         _______ _______ _______ _____ _____    ______ ____
ROOT
ATOM      1  C   UNL     1       1.158   9.101  19.048  0.00  0.00    +0.000 A 
ATOM      2  C   UNL     1       1.936   8.906  17.899  0.00  0.00    +0.000 A 
ATOM      3  C   UNL     1       2.807   7.826  17.794  0.00  0.00    +0.000 A 
ATOM      4  C   UNL     1       2.940   6.929  18.858  0.00  0.00    +0.000 A 
ATOM      5  C   UNL     1       2.273   7.200  20.061  0.00  0.00    +0.000 A 
ATOM      6  C   UNL     1       1.393   8.284  20.156  0.00  0.00    +0.000 A 
ENDROOT
BRANCH   1  15
ATOM      7  C   UNL     1      -1.978  14.230  21.184  0.00  0.00    +0.000 A 
ATOM      8  C   UNL     1      -0.762  14.619  20.605  0.00  0.00    +0.000 A 
ATOM      9  C   UNL     1       0.057  13.725  19.935  0.00  0.00    +0.000 A 
ATOM     10  N   UNL     1       1.225  14.153  19.446  0.00  0.00    +0.000 NA
ATOM     11  C   UNL     1       1.982  13.232  18.848  0.00  0.00    +0.000 A 
ATOM     12 CL   UNL     1       3.490  13.755  18.243  0.00  0.00    +0.000 Cl
ATOM     13  N   UNL     1       1.708  11.937  18.700  0.00  0.00    +0.000 NA
ATOM     14  C   UNL     1       0.530  11.520  19.196  0.00  0.00    +0.000 A 
ATOM     15  N   UNL     1       0.205  10.139  19.104  0.00  0.00    +0.000 N 
ATOM     16  C   UNL     1      -0.369  12.396  19.823  0.00  0.00    +0.000 A 
ATOM     17  C   UNL     1      -1.614  12.002  20.365  0.00  0.00    +0.000 A 
ATOM     18  C   UNL     1      -2.421  12.911  21.047  0.00  0.00    +0.000 A 
ATOM     19  H   UNL     1      -0.565  10.011  18.454  0.00  0.00    +0.000 HD
BRANCH   7  21
ATOM     20  C   UNL     1      -3.259  16.215  20.993  0.00  0.00    +0.000 C 
ATOM     21  O   UNL     1      -2.637  15.245  21.832  0.00  0.00    +0.000 OA
ENDBRANCH   7  21
BRANCH  18  22
ATOM     22  O   UNL     1      -3.662  12.578  21.512  0.00  0.00    +0.000 OA
ATOM     23  C   UNL     1      -4.736  12.707  20.587  0.00  0.00    +0.000 C 
ENDBRANCH  18  22
ENDBRANCH   1  15
BRANCH   4  24
ATOM     24  C   UNL     1       3.736   5.664  18.686  0.00  0.00    +0.000 C 
BRANCH  24  25
ATOM     25  N   UNL     1       4.700   5.752  17.612  0.00  0.00    +0.000 N 
ATOM     26  C   UNL     1       4.592   5.214  16.362  0.00  0.00    +0.000 A 
ATOM     27  C   UNL     1       5.854   5.356  15.832  0.00  0.00    +0.000 A 
ATOM     28  N   UNL     1       6.663   5.970  16.753  0.00  0.00    +0.000 NA
ATOM     29  N   UNL     1       5.945   6.213  17.841  0.00  0.00    +0.000 NA
BRANCH  27  30
ATOM     30  C   UNL     1       6.295   4.852  14.548  0.00  0.00    +0.000 A 
ATOM     31  C   UNL     1       7.446   5.357  13.926  0.00  0.00    +0.000 A 
ATOM     32  C   UNL     1       7.822   4.908  12.659  0.00  0.00    +0.000 A 
ATOM     33  C   UNL     1       7.054   3.947  12.003  0.00  0.00    +0.000 A 
ATOM     34  C   UNL     1       5.919   3.423  12.620  0.00  0.00    +0.000 A 
ATOM     35  C   UNL     1       5.543   3.868  13.889  0.00  0.00    +0.000 A 
ENDBRANCH  27  30
ENDBRANCH  24  25
ENDBRANCH   4  24
TORSDOF 6
ENDMDL
MODEL 7
REMARK VINA RESULT:      -8.0      2.648      3.585
REMARK  Name = 
REMARK  8 active torsions:
REMARK  status: ('A' for Active; 'I' for Inactive)
REMARK    1  A    between atoms: C_1  and  O_2
REMARK    2  A    between atoms: O_2  and  C_3
REMARK    3  A    between atoms: N_11  and  C_12
REMARK    4  A    between atoms: C_15  and  C_16
REMARK    5  A    between atoms: C_16  and  N_17
REMARK    6  A    between atoms: C_19  and  C_20
REMARK    7  A    between atoms: C_32  and  O_33
REMARK    8  A    between atoms: O_33  and  C_34
REMARK                            x       y       z     vdW  Elec       q    Type
REMARK                         _______ _______ _______ _____ _____    ______ ____
ROOT
ATOM      1  C   UNL     1       1.262   9.272  18.741  0.00  0.00    +0.000 A 
ATOM      2  C   UNL     1       2.190   9.065  17.713  0.00  0.00    +0.000 A 
ATOM      3  C   UNL     1       3.052   7.973  17.729  0.00  0.00    +0.000 A 
ATOM      4  C   UNL     1       3.021   7.074  18.799  0.00  0.00    +0.000 A 
ATOM      5  C   UNL     1       2.195   7.354  19.896  0.00  0.00    +0.000 A 
ATOM      6  C   UNL     1       1.326   8.450  19.870  0.00  0.00    +0.000 A 
ENDROOT
BRANCH   1  15
ATOM      7  C   UNL     1      -3.024  13.609  20.618  0.00  0.00    +0.000 A 
ATOM      8  C   UNL     1      -1.732  14.035  20.957  0.00  0.00    +0.000 A 
ATOM      9  C   UNL     1      -0.597  13.355  20.544  0.00  0.00    +0.000 A 
ATOM     10  N   UNL     1       0.603  13.790  20.941  0.00  0.00    +0.000 NA
ATOM     11  C   UNL     1       1.649  13.066  20.542  0.00  0.00    +0.000 A 
ATOM     12 CL   UNL     1       3.187  13.590  21.063  0.00  0.00    +0.000 Cl
ATOM     13  N   UNL     1       1.626  11.955  19.807  0.00  0.00    +0.000 NA
ATOM     14  C   UNL     1       0.413  11.528  19.415  0.00  0.00    +0.000 A 
ATOM     15  N   UNL     1       0.326  10.323  18.665  0.00  0.00    +0.000 N 
ATOM     16  C   UNL     1      -0.765  12.217  19.745  0.00  0.00    +0.000 A 
ATOM     17  C   UNL     1      -2.061  11.804  19.361  0.00  0.00    +0.000 A 
ATOM     18  C   UNL     1      -3.192  12.492  19.795  0.00  0.00    +0.000 A 
ATOM     19  H   UNL     1       0.035  10.532  17.715  0.00  0.00    +0.000 HD
BRANCH   7  21
ATOM     20  C   UNL     1      -4.060  14.480  22.564  0.00  0.00    +0.000 C 
ATOM     21  O   UNL     1      -4.023  14.390  21.142  0.00  0.00    +0.000 OA
ENDBRANCH   7  21
BRANCH  18  22
ATOM     22  O   UNL     1      -4.451  12.162  19.377  0.00  0.00    +0.000 OA
ATOM     23  C   UNL     1      -4.534  11.210  18.321  0.00  0.00    +0.000 C 
ENDBRANCH  18  22
ENDBRANCH   1  15
BRANCH   4  24
ATOM     24  C   UNL     1       3.814   5.797  18.737  0.00  0.00    +0.000 C 
BRANCH  24  25
ATOM     25  N   UNL     1       4.808   5.806  17.687  0.00  0.00    +0.000 N 
ATOM     26  C   UNL     1       4.639   5.415  16.390  0.00  0.00    +0.000 A 
ATOM     27  C   UNL     1       5.920   5.373  15.889  0.00  0.00    +0.000 A 
ATOM     28  N   UNL     1       6.802   5.740  16.873  0.00  0.00    +0.000 NA
ATOM     29  N   UNL     1       6.109   6.009  17.973  0.00  0.00    +0.000 NA
BRANCH  27  30
ATOM     30  C   UNL     1       6.298   4.918  14.567  0.00  0.00    +0.000 A 
ATOM     31  C   UNL     1       5.571   3.916  13.909  0.00  0.00    +0.000 A 
ATOM     32  C   UNL     1       5.986   3.442  12.663  0.00  0.00    +0.000 A 
ATOM     33  C   UNL     1       7.128   3.968  12.062  0.00  0.00    +0.000 A 
ATOM     34  C   UNL     1       7.848   4.979  12.697  0.00  0.00    +0.000 A 
ATOM     35  C   UNL     1       7.432   5.457  13.942  0.00  0.00    +0.000 A 
ENDBRANCH  27  30
ENDBRANCH  24  25
ENDBRANCH   4  24
TORSDOF 6
ENDMDL
MODEL 8
REMARK VINA RESULT:      -8.0      2.626      2.975
REMARK  Name = 
REMARK  8 active torsions:
REMARK  status: ('A' for Active; 'I' for Inactive)
REMARK    1  A    between atoms: C_1  and  O_2
REMARK    2  A    between atoms: O_2  and  C_3
REMARK    3  A    between atoms: N_11  and  C_12
REMARK    4  A    between atoms: C_15  and  C_16
REMARK    5  A    between atoms: C_16  and  N_17
REMARK    6  A    between atoms: C_19  and  C_20
REMARK    7  A    between atoms: C_32  and  O_33
REMARK    8  A    between atoms: O_33  and  C_34
REMARK                            x       y       z     vdW  Elec       q    Type
REMARK                         _______ _______ _______ _____ _____    ______ ____
ROOT
ATOM      1  C   UNL     1       1.128   9.050  19.145  0.00  0.00    +0.000 A 
ATOM      2  C   UNL     1       1.356   8.159  20.202  0.00  0.00    +0.000 A 
ATOM      3  C   UNL     1       2.282   7.128  20.088  0.00  0.00    +0.000 A 
ATOM      4  C   UNL     1       2.984   6.948  18.893  0.00  0.00    +0.000 A 
ATOM      5  C   UNL     1       2.658   7.746  17.788  0.00  0.00    +0.000 A 
ATOM      6  C   UNL     1       1.730   8.786  17.912  0.00  0.00    +0.000 A 
ENDROOT
BRANCH   1  15
ATOM      7  C   UNL     1      -1.406  14.348  21.638  0.00  0.00    +0.000 A 
ATOM      8  C   UNL     1      -0.227  14.660  20.947  0.00  0.00    +0.000 A 
ATOM      9  C   UNL     1       0.457  13.723  20.189  0.00  0.00    +0.000 A 
ATOM     10  N   UNL     1       1.600  14.076  19.593  0.00  0.00    +0.000 NA
ATOM     11  C   UNL     1       2.227  13.115  18.913  0.00  0.00    +0.000 A 
ATOM     12 CL   UNL     1       3.703  13.540  18.170  0.00  0.00    +0.000 Cl
ATOM     13  N   UNL     1       1.846  11.846  18.777  0.00  0.00    +0.000 NA
ATOM     14  C   UNL     1       0.695  11.504  19.381  0.00  0.00    +0.000 A 
ATOM     15  N   UNL     1       0.263  10.151  19.306  0.00  0.00    +0.000 N 
ATOM     16  C   UNL     1      -0.074  12.430  20.104  0.00  0.00    +0.000 A 
ATOM     17  C   UNL     1      -1.286  12.116  20.760  0.00  0.00    +0.000 A 
ATOM     18  C   UNL     1      -1.955  13.066  21.529  0.00  0.00    +0.000 A 
ATOM     19  H   UNL     1      -0.574  10.091  18.732  0.00  0.00    +0.000 HD
BRANCH   7  21
ATOM     20  C   UNL     1      -1.364  15.593  23.654  0.00  0.00    +0.000 C 
ATOM     21  O   UNL     1      -1.923  15.395  22.358  0.00  0.00    +0.000 OA
ENDBRANCH   7  21
BRANCH  18  22
ATOM     22  O   UNL     1      -3.166  12.814  22.109  0.00  0.00    +0.000 OA
ATOM     23  C   UNL     1      -3.132  12.265  23.423  0.00  0.00    +0.000 C 
ENDBRANCH  18  22
ENDBRANCH   1  15
BRANCH   4  24
ATOM     24  C   UNL     1       4.114   5.957  18.821  0.00  0.00    +0.000 C 
BRANCH  24  25
ATOM     25  N   UNL     1       4.869   6.058  17.591  0.00  0.00    +0.000 N 
ATOM     26  C   UNL     1       4.753   5.264  16.487  0.00  0.00    +0.000 A 
ATOM     27  C   UNL     1       5.846   5.602  15.722  0.00  0.00    +0.000 A 
ATOM     28  N   UNL     1       6.566   6.574  16.369  0.00  0.00    +0.000 NA
ATOM     29  N   UNL     1       5.955   6.850  17.514  0.00  0.00    +0.000 NA
BRANCH  27  30
ATOM     30  C   UNL     1       6.240   4.970  14.480  0.00  0.00    +0.000 A 
ATOM     31  C   UNL     1       7.404   5.360  13.805  0.00  0.00    +0.000 A 
ATOM     32  C   UNL     1       7.736   4.787  12.576  0.00  0.00    +0.000 A 
ATOM     33  C   UNL     1       6.910   3.816  12.013  0.00  0.00    +0.000 A 
ATOM     34  C   UNL     1       5.760   3.405  12.685  0.00  0.00    +0.000 A 
ATOM     35  C   UNL     1       5.428   3.975  13.917  0.00  0.00    +0.000 A 
ENDBRANCH  27  30
ENDBRANCH  24  25
ENDBRANCH   4  24
TORSDOF 6
ENDMDL
MODEL 9
REMARK VINA RESULT:      -7.9      3.868     10.179
REMARK  Name = 
REMARK  8 active torsions:
REMARK  status: ('A' for Active; 'I' for Inactive)
REMARK    1  A    between atoms: C_1  and  O_2
REMARK    2  A    between atoms: O_2  and  C_3
REMARK    3  A    between atoms: N_11  and  C_12
REMARK    4  A    between atoms: C_15  and  C_16
REMARK    5  A    between atoms: C_16  and  N_17
REMARK    6  A    between atoms: C_19  and  C_20
REMARK    7  A    between atoms: C_32  and  O_33
REMARK    8  A    between atoms: O_33  and  C_34
REMARK                            x       y       z     vdW  Elec       q    Type
REMARK                         _______ _______ _______ _____ _____    ______ ____
ROOT
ATOM      1  C   UNL     1       1.559   8.838  18.728  0.00  0.00    +0.000 A 
ATOM      2  C   UNL     1       0.581   9.608  18.084  0.00  0.00    +0.000 A 
ATOM      3  C   UNL     1      -0.313  10.389  18.809  0.00  0.00    +0.000 A 
ATOM      4  C   UNL     1      -0.264  10.394  20.206  0.00  0.00    +0.000 A 
ATOM      5  C   UNL     1       0.617   9.518  20.857  0.00  0.00    +0.000 A 
ATOM      6  C   UNL     1       1.518   8.740  20.121  0.00  0.00    +0.000 A 
ENDROOT
BRANCH   1  15
ATOM      7  C   UNL     1       6.605   5.148  17.452  0.00  0.00    +0.000 A 
ATOM      8  C   UNL     1       5.524   4.355  17.863  0.00  0.00    +0.000 A 
ATOM      9  C   UNL     1       4.258   4.880  18.069  0.00  0.00    +0.000 A 
ATOM     10  N   UNL     1       3.283   4.077  18.504  0.00  0.00    +0.000 NA
ATOM     11  C   UNL     1       2.101   4.655  18.720  0.00  0.00    +0.000 A 
ATOM     12 CL   UNL     1       0.852   3.650  19.304  0.00  0.00    +0.000 Cl
ATOM     13  N   UNL     1       1.794   5.942  18.564  0.00  0.00    +0.000 NA
ATOM     14  C   UNL     1       2.783   6.739  18.125  0.00  0.00    +0.000 A 
ATOM     15  N   UNL     1       2.523   8.130  17.981  0.00  0.00    +0.000 N 
ATOM     16  C   UNL     1       4.065   6.248  17.834  0.00  0.00    +0.000 A 
ATOM     17  C   UNL     1       5.138   7.047  17.378  0.00  0.00    +0.000 A 
ATOM     18  C   UNL     1       6.408   6.507  17.187  0.00  0.00    +0.000 A 
ATOM     19  H   UNL     1       2.530   8.379  16.997  0.00  0.00    +0.000 HD
BRANCH   7  21
ATOM     20  C   UNL     1       8.599   4.409  18.500  0.00  0.00    +0.000 C 
ATOM     21  O   UNL     1       7.786   4.460  17.331  0.00  0.00    +0.000 OA
ENDBRANCH   7  21
BRANCH  18  22
ATOM     22  O   UNL     1       7.442   7.237  16.673  0.00  0.00    +0.000 OA
ATOM     23  C   UNL     1       7.974   8.254  17.516  0.00  0.00    +0.000 C 
ENDBRANCH  18  22
ENDBRANCH   1  15
BRANCH   4  24
ATOM     24  C   UNL     1      -1.098  11.370  20.990  0.00  0.00    +0.000 C 
BRANCH  24  25
ATOM     25  N   UNL     1      -0.605  12.726  20.900  0.00  0.00    +0.000 N 
ATOM     26  C   UNL     1      -0.812  13.612  19.882  0.00  0.00    +0.000 A 
ATOM     27  C   UNL     1       0.064  14.637  20.155  0.00  0.00    +0.000 A 
ATOM     28  N   UNL     1       0.750  14.350  21.306  0.00  0.00    +0.000 NA
ATOM     29  N   UNL     1       0.329  13.176  21.759  0.00  0.00    +0.000 NA
BRANCH  27  30
ATOM     30  C   UNL     1       0.304  15.792  19.314  0.00  0.00    +0.000 A 
ATOM     31  C   UNL     1      -0.752  16.607  18.882  0.00  0.00    +0.000 A 
ATOM     32  C   UNL     1      -0.512  17.678  18.019  0.00  0.00    +0.000 A 
ATOM     33  C   UNL     1       0.784  17.947  17.584  0.00  0.00    +0.000 A 
ATOM     34  C   UNL     1       1.845  17.156  18.023  0.00  0.00    +0.000 A 
ATOM     35  C   UNL     1       1.608  16.086  18.890  0.00  0.00    +0.000 A 
ENDBRANCH  27  30
ENDBRANCH  24  25
ENDBRANCH   4  24
TORSDOF 6
ENDMDL
