MODEL 1
REMARK VINA RESULT:      -7.0      0.000      0.000
REMARK  Name = 
REMARK  8 active torsions:
REMARK  status: ('A' for Active; 'I' for Inactive)
REMARK    1  A    between atoms: C_1  and  O_2
REMARK    2  A    between atoms: O_2  and  C_3
REMARK    3  A    between atoms: C_3  and  C_4
REMARK    4  A    between atoms: C_4  and  C_5
REMARK    5  A    between atoms: C_5  and  N_6
REMARK    6  A    between atoms: N_6  and  S_7
REMARK    7  A    between atoms: S_7  and  C_10
REMARK    8  A    between atoms: C_19  and  C_20
REMARK                            x       y       z     vdW  Elec       q    Type
REMARK                         _______ _______ _______ _____ _____    ______ ____
ROOT
ATOM      1  C   UNL     1       2.943   3.394  19.453  0.00  0.00    +0.000 A 
ATOM      2  C   UNL     1       2.238   3.152  18.267  0.00  0.00    +0.000 A 
ATOM      3  C   UNL     1       2.888   3.283  17.037  0.00  0.00    +0.000 A 
ATOM      4  C   UNL     1       4.231   3.664  16.997  0.00  0.00    +0.000 A 
ATOM      5  C   UNL     1       4.937   3.867  18.189  0.00  0.00    +0.000 A 
ATOM      6  C   UNL     1       4.299   3.749  19.420  0.00  0.00    +0.000 A 
ATOM      7  N   UNL     1       6.305   4.148  18.144  0.00  0.00    +0.000 N 
ATOM      8  C   UNL     1       6.949   4.341  16.947  0.00  0.00    +0.000 C 
ATOM      9  O   UNL     1       8.172   4.423  16.889  0.00  0.00    +0.000 OA
ATOM     10  C   UNL     1       5.991   4.580  15.768  0.00  0.00    +0.000 C 
ATOM     11  C   UNL     1       6.705   4.401  14.434  0.00  0.00    +0.000 C 
ATOM     12  O   UNL     1       4.814   3.769  15.760  0.00  0.00    +0.000 OA
ATOM     13  H   UNL     1       6.880   4.120  18.975  0.00  0.00    +0.000 HD
ENDROOT
BRANCH   1  14
ATOM     14  S   UNL     1       2.104   3.384  21.022  0.00  0.00    +0.000 S 
ATOM     15  O   UNL     1       2.870   2.580  21.946  0.00  0.00    +0.000 OA
ATOM     16  O   UNL     1       0.715   3.110  20.728  0.00  0.00    +0.000 OA
BRANCH  14  17
ATOM     17  N   UNL     1       2.192   5.008  21.509  0.00  0.00    +0.000 NA
ATOM     18  H   UNL     1       2.086   5.100  22.518  0.00  0.00    +0.000 HD
BRANCH  17  19
ATOM     19  C   UNL     1       1.365   5.960  20.742  0.00  0.00    +0.000 C 
BRANCH  19  20
ATOM     20  C   UNL     1       2.267   7.018  20.107  0.00  0.00    +0.000 C 
BRANCH  20  21
ATOM     21  C   UNL     1       2.318   6.842  18.593  0.00  0.00    +0.000 C 
BRANCH  21  23
ATOM     22  C   UNL     1       4.195   7.325  17.249  0.00  0.00    +0.000 C 
ATOM     23  O   UNL     1       3.151   7.863  18.049  0.00  0.00    +0.000 OA
ENDBRANCH  21  23
ENDBRANCH  20  21
ENDBRANCH  19  20
ENDBRANCH  17  19
ENDBRANCH  14  17
ENDBRANCH   1  14
TORSDOF 6
ENDMDL
MODEL 2
REMARK VINA RESULT:      -6.9      2.748      6.567
REMARK  Name = 
REMARK  8 active torsions:
REMARK  status: ('A' for Active; 'I' for Inactive)
REMARK    1  A    between atoms: C_1  and  O_2
REMARK    2  A    between atoms: O_2  and  C_3
REMARK    3  A    between atoms: C_3  and  C_4
REMARK    4  A    between atoms: C_4  and  C_5
REMARK    5  A    between atoms: C_5  and  N_6
REMARK    6  A    between atoms: N_6  and  S_7
REMARK    7  A    between atoms: S_7  and  C_10
REMARK    8  A    between atoms: C_19  and  C_20
REMARK                            x       y       z     vdW  Elec       q    Type
REMARK                         _______ _______ _______ _____ _____    ______ ____
ROOT
ATOM      1  C   UNL     1       5.693   5.324  17.370  0.00  0.00    +0.000 A 
ATOM      2  C   UNL     1       4.513   6.040  17.130  0.00  0.00    +0.000 A 
ATOM      3  C   UNL     1       3.354   5.721  17.842  0.00  0.00    +0.000 A 
ATOM      4  C   UNL     1       3.376   4.686  18.779  0.00  0.00    +0.000 A 
ATOM      5  C   UNL     1       4.570   4.001  19.038  0.00  0.00    +0.000 A 
ATOM      6  C   UNL     1       5.728   4.303  18.330  0.00  0.00    +0.000 A 
ATOM      7  N   UNL     1       4.608   3.036  20.049  0.00  0.00    +0.000 N 
ATOM      8  C   UNL     1       3.468   2.665  20.717  0.00  0.00    +0.000 C 
ATOM      9  O   UNL     1       3.519   1.946  21.710  0.00  0.00    +0.000 OA
ATOM     10  C   UNL     1       2.174   3.114  20.018  0.00  0.00    +0.000 C 
ATOM     11  C   UNL     1       0.982   3.032  20.962  0.00  0.00    +0.000 C 
ATOM     12  O   UNL     1       2.208   4.425  19.449  0.00  0.00    +0.000 OA
ATOM     13  H   UNL     1       5.482   2.657  20.385  0.00  0.00    +0.000 HD
ENDROOT
BRANCH   1  14
ATOM     14  S   UNL     1       7.140   5.604  16.373  0.00  0.00    +0.000 S 
ATOM     15  O   UNL     1       8.000   4.448  16.479  0.00  0.00    +0.000 OA
ATOM     16  O   UNL     1       7.596   6.938  16.701  0.00  0.00    +0.000 OA
BRANCH  14  17
ATOM     17  N   UNL     1       6.509   5.674  14.800  0.00  0.00    +0.000 NA
ATOM     18  H   UNL     1       5.491   5.634  14.805  0.00  0.00    +0.000 HD
BRANCH  17  19
ATOM     19  C   UNL     1       7.128   4.769  13.812  0.00  0.00    +0.000 C 
BRANCH  19  20
ATOM     20  C   UNL     1       6.117   3.699  13.401  0.00  0.00    +0.000 C 
BRANCH  20  21
ATOM     21  C   UNL     1       6.264   3.359  11.923  0.00  0.00    +0.000 C 
BRANCH  21  23
ATOM     22  C   UNL     1       6.320   1.129  11.155  0.00  0.00    +0.000 C 
ATOM     23  O   UNL     1       5.506   2.182  11.653  0.00  0.00    +0.000 OA
ENDBRANCH  21  23
ENDBRANCH  20  21
ENDBRANCH  19  20
ENDBRANCH  17  19
ENDBRANCH  14  17
ENDBRANCH   1  14
TORSDOF 6
ENDMDL
MODEL 3
REMARK VINA RESULT:      -6.9      3.072      6.930
REMARK  Name = 
REMARK  8 active torsions:
REMARK  status: ('A' for Active; 'I' for Inactive)
REMARK    1  A    between atoms: C_1  and  O_2
REMARK    2  A    between atoms: O_2  and  C_3
REMARK    3  A    between atoms: C_3  and  C_4
REMARK    4  A    between atoms: C_4  and  C_5
REMARK    5  A    between atoms: C_5  and  N_6
REMARK    6  A    between atoms: N_6  and  S_7
REMARK    7  A    between atoms: S_7  and  C_10
REMARK    8  A    between atoms: C_19  and  C_20
REMARK                            x       y       z     vdW  Elec       q    Type
REMARK                         _______ _______ _______ _____ _____    ______ ____
ROOT
ATOM      1  C   UNL     1       5.577   4.328  16.808  0.00  0.00    +0.000 A 
ATOM      2  C   UNL     1       6.086   4.536  18.096  0.00  0.00    +0.000 A 
ATOM      3  C   UNL     1       5.284   4.269  19.208  0.00  0.00    +0.000 A 
ATOM      4  C   UNL     1       3.979   3.807  19.029  0.00  0.00    +0.000 A 
ATOM      5  C   UNL     1       3.491   3.567  17.738  0.00  0.00    +0.000 A 
ATOM      6  C   UNL     1       4.276   3.838  16.622  0.00  0.00    +0.000 A 
ATOM      7  N   UNL     1       2.221   3.008  17.572  0.00  0.00    +0.000 N 
ATOM      8  C   UNL     1       1.394   2.795  18.646  0.00  0.00    +0.000 C 
ATOM      9  O   UNL     1       0.353   2.158  18.530  0.00  0.00    +0.000 OA
ATOM     10  C   UNL     1       1.836   3.541  19.916  0.00  0.00    +0.000 C 
ATOM     11  C   UNL     1       1.142   2.984  21.152  0.00  0.00    +0.000 C 
ATOM     12  O   UNL     1       3.245   3.557  20.160  0.00  0.00    +0.000 OA
ATOM     13  H   UNL     1       1.912   2.655  16.677  0.00  0.00    +0.000 HD
ENDROOT
BRANCH   1  14
ATOM     14  S   UNL     1       6.518   4.804  15.374  0.00  0.00    +0.000 S 
ATOM     15  O   UNL     1       7.919   4.805  15.725  0.00  0.00    +0.000 OA
ATOM     16  O   UNL     1       5.856   5.973  14.836  0.00  0.00    +0.000 OA
BRANCH  14  17
ATOM     17  N   UNL     1       6.227   3.532  14.290  0.00  0.00    +0.000 NA
ATOM     18  H   UNL     1       6.706   2.680  14.578  0.00  0.00    +0.000 HD
BRANCH  17  19
ATOM     19  C   UNL     1       6.400   3.847  12.859  0.00  0.00    +0.000 C 
BRANCH  19  20
ATOM     20  C   UNL     1       5.050   3.749  12.149  0.00  0.00    +0.000 C 
BRANCH  20  21
ATOM     21  C   UNL     1       4.928   2.425  11.404  0.00  0.00    +0.000 C 
BRANCH  21  23
ATOM     22  C   UNL     1       6.074   0.404  10.994  0.00  0.00    +0.000 C 
ATOM     23  O   UNL     1       6.067   1.626  11.719  0.00  0.00    +0.000 OA
ENDBRANCH  21  23
ENDBRANCH  20  21
ENDBRANCH  19  20
ENDBRANCH  17  19
ENDBRANCH  14  17
ENDBRANCH   1  14
TORSDOF 6
ENDMDL
MODEL 4
REMARK VINA RESULT:      -6.9      2.732      6.360
REMARK  Name = 
REMARK  8 active torsions:
REMARK  status: ('A' for Active; 'I' for Inactive)
REMARK    1  A    between atoms: C_1  and  O_2
REMARK    2  A    between atoms: O_2  and  C_3
REMARK    3  A    between atoms: C_3  and  C_4
REMARK    4  A    between atoms: C_4  and  C_5
REMARK    5  A    between atoms: C_5  and  N_6
REMARK    6  A    between atoms: N_6  and  S_7
REMARK    7  A    between atoms: S_7  and  C_10
REMARK    8  A    between atoms: C_19  and  C_20
REMARK                            x       y       z     vdW  Elec       q    Type
REMARK                         _______ _______ _______ _____ _____    ______ ____
ROOT
ATOM      1  C   UNL     1       5.233   5.801  17.458  0.00  0.00    +0.000 A 
ATOM      2  C   UNL     1       4.024   6.441  17.758  0.00  0.00    +0.000 A 
ATOM      3  C   UNL     1       3.164   5.886  18.708  0.00  0.00    +0.000 A 
ATOM      4  C   UNL     1       3.508   4.692  19.345  0.00  0.00    +0.000 A 
ATOM      5  C   UNL     1       4.737   4.078  19.066  0.00  0.00    +0.000 A 
ATOM      6  C   UNL     1       5.598   4.617  18.115  0.00  0.00    +0.000 A 
ATOM      7  N   UNL     1       5.120   2.941  19.781  0.00  0.00    +0.000 N 
ATOM      8  C   UNL     1       4.265   2.344  20.674  0.00  0.00    +0.000 C 
ATOM      9  O   UNL     1       4.649   1.451  21.422  0.00  0.00    +0.000 OA
ATOM     10  C   UNL     1       2.805   2.806  20.527  0.00  0.00    +0.000 C 
ATOM     11  C   UNL     1       1.984   2.432  21.753  0.00  0.00    +0.000 C 
ATOM     12  O   UNL     1       2.626   4.201  20.272  0.00  0.00    +0.000 OA
ATOM     13  H   UNL     1       6.064   2.582  19.738  0.00  0.00    +0.000 HD
ENDROOT
BRANCH   1  14
ATOM     14  S   UNL     1       6.274   6.400  16.145  0.00  0.00    +0.000 S 
ATOM     15  O   UNL     1       7.290   7.251  16.719  0.00  0.00    +0.000 OA
ATOM     16  O   UNL     1       5.378   6.860  15.107  0.00  0.00    +0.000 OA
BRANCH  14  17
ATOM     17  N   UNL     1       7.009   4.984  15.567  0.00  0.00    +0.000 NA
ATOM     18  H   UNL     1       7.889   4.798  16.047  0.00  0.00    +0.000 HD
BRANCH  17  19
ATOM     19  C   UNL     1       7.101   4.854  14.101  0.00  0.00    +0.000 C 
BRANCH  19  20
ATOM     20  C   UNL     1       6.147   3.757  13.627  0.00  0.00    +0.000 C 
BRANCH  20  21
ATOM     21  C   UNL     1       6.468   3.348  12.194  0.00  0.00    +0.000 C 
BRANCH  21  23
ATOM     22  C   UNL     1       4.232   3.283  11.444  0.00  0.00    +0.000 C 
ATOM     23  O   UNL     1       5.406   2.528  11.711  0.00  0.00    +0.000 OA
ENDBRANCH  21  23
ENDBRANCH  20  21
ENDBRANCH  19  20
ENDBRANCH  17  19
ENDBRANCH  14  17
ENDBRANCH   1  14
TORSDOF 6
ENDMDL
MODEL 5
REMARK VINA RESULT:      -6.8      1.039      1.330
REMARK  Name = 
REMARK  8 active torsions:
REMARK  status: ('A' for Active; 'I' for Inactive)
REMARK    1  A    between atoms: C_1  and  O_2
REMARK    2  A    between atoms: O_2  and  C_3
REMARK    3  A    between atoms: C_3  and  C_4
REMARK    4  A    between atoms: C_4  and  C_5
REMARK    5  A    between atoms: C_5  and  N_6
REMARK    6  A    between atoms: N_6  and  S_7
REMARK    7  A    between atoms: S_7  and  C_10
REMARK    8  A    between atoms: C_19  and  C_20
REMARK                            x       y       z     vdW  Elec       q    Type
REMARK                         _______ _______ _______ _____ _____    ______ ____
ROOT
ATOM      1  C   UNL     1       2.954   3.432  19.420  0.00  0.00    +0.000 A 
ATOM      2  C   UNL     1       2.223   3.374  18.227  0.00  0.00    +0.000 A 
ATOM      3  C   UNL     1       2.873   3.585  17.008  0.00  0.00    +0.000 A 
ATOM      4  C   UNL     1       4.241   3.863  16.987  0.00  0.00    +0.000 A 
ATOM      5  C   UNL     1       4.970   3.883  18.183  0.00  0.00    +0.000 A 
ATOM      6  C   UNL     1       4.334   3.683  19.404  0.00  0.00    +0.000 A 
ATOM      7  N   UNL     1       6.355   4.060  18.145  0.00  0.00    +0.000 N 
ATOM      8  C   UNL     1       7.003   4.329  16.966  0.00  0.00    +0.000 C 
ATOM      9  O   UNL     1       8.228   4.322  16.897  0.00  0.00    +0.000 OA
ATOM     10  C   UNL     1       6.058   4.766  15.834  0.00  0.00    +0.000 C 
ATOM     11  C   UNL     1       6.745   4.676  14.478  0.00  0.00    +0.000 C 
ATOM     12  O   UNL     1       4.821   4.054  15.759  0.00  0.00    +0.000 OA
ATOM     13  H   UNL     1       6.932   3.899  18.960  0.00  0.00    +0.000 HD
ENDROOT
BRANCH   1  14
ATOM     14  S   UNL     1       2.129   3.321  20.993  0.00  0.00    +0.000 S 
ATOM     15  O   UNL     1       2.960   2.555  21.893  0.00  0.00    +0.000 OA
ATOM     16  O   UNL     1       0.762   2.948  20.698  0.00  0.00    +0.000 OA
BRANCH  14  17
ATOM     17  N   UNL     1       2.095   4.933  21.520  0.00  0.00    +0.000 NA
ATOM     18  H   UNL     1       1.878   4.996  22.514  0.00  0.00    +0.000 HD
BRANCH  17  19
ATOM     19  C   UNL     1       1.316   5.871  20.688  0.00  0.00    +0.000 C 
BRANCH  19  20
ATOM     20  C   UNL     1       2.197   7.059  20.300  0.00  0.00    +0.000 C 
BRANCH  20  21
ATOM     21  C   UNL     1       1.440   8.370  20.480  0.00  0.00    +0.000 C 
BRANCH  21  23
ATOM     22  C   UNL     1       0.992  10.388  19.343  0.00  0.00    +0.000 C 
ATOM     23  O   UNL     1       1.366   9.023  19.215  0.00  0.00    +0.000 OA
ENDBRANCH  21  23
ENDBRANCH  20  21
ENDBRANCH  19  20
ENDBRANCH  17  19
ENDBRANCH  14  17
ENDBRANCH   1  14
TORSDOF 6
ENDMDL
MODEL 6
REMARK VINA RESULT:      -6.7      3.328      5.835
REMARK  Name = 
REMARK  8 active torsions:
REMARK  status: ('A' for Active; 'I' for Inactive)
REMARK    1  A    between atoms: C_1  and  O_2
REMARK    2  A    between atoms: O_2  and  C_3
REMARK    3  A    between atoms: C_3  and  C_4
REMARK    4  A    between atoms: C_4  and  C_5
REMARK    5  A    between atoms: C_5  and  N_6
REMARK    6  A    between atoms: N_6  and  S_7
REMARK    7  A    between atoms: S_7  and  C_10
REMARK    8  A    between atoms: C_19  and  C_20
REMARK                            x       y       z     vdW  Elec       q    Type
REMARK                         _______ _______ _______ _____ _____    ______ ____
ROOT
ATOM      1  C   UNL     1       4.921   5.340  17.041  0.00  0.00    +0.000 A 
ATOM      2  C   UNL     1       3.760   6.048  17.377  0.00  0.00    +0.000 A 
ATOM      3  C   UNL     1       2.978   5.622  18.454  0.00  0.00    +0.000 A 
ATOM      4  C   UNL     1       3.351   4.490  19.180  0.00  0.00    +0.000 A 
ATOM      5  C   UNL     1       4.534   3.811  18.860  0.00  0.00    +0.000 A 
ATOM      6  C   UNL     1       5.317   4.219  17.785  0.00  0.00    +0.000 A 
ATOM      7  N   UNL     1       4.954   2.741  19.655  0.00  0.00    +0.000 N 
ATOM      8  C   UNL     1       4.171   2.268  20.679  0.00  0.00    +0.000 C 
ATOM      9  O   UNL     1       4.601   1.446  21.480  0.00  0.00    +0.000 OA
ATOM     10  C   UNL     1       2.715   2.760  20.613  0.00  0.00    +0.000 C 
ATOM     11  C   UNL     1       2.001   2.543  21.940  0.00  0.00    +0.000 C 
ATOM     12  O   UNL     1       2.546   4.127  20.229  0.00  0.00    +0.000 OA
ATOM     13  H   UNL     1       5.882   2.349  19.567  0.00  0.00    +0.000 HD
ENDROOT
BRANCH   1  14
ATOM     14  S   UNL     1       5.851   5.766  15.585  0.00  0.00    +0.000 S 
ATOM     15  O   UNL     1       5.280   6.961  15.010  0.00  0.00    +0.000 OA
ATOM     16  O   UNL     1       5.994   4.538  14.833  0.00  0.00    +0.000 OA
BRANCH  14  17
ATOM     17  N   UNL     1       7.384   6.139  16.210  0.00  0.00    +0.000 NA
ATOM     18  H   UNL     1       8.028   5.355  16.110  0.00  0.00    +0.000 HD
BRANCH  17  19
ATOM     19  C   UNL     1       7.406   6.748  17.554  0.00  0.00    +0.000 C 
BRANCH  19  20
ATOM     20  C   UNL     1       7.618   8.257  17.424  0.00  0.00    +0.000 C 
BRANCH  20  21
ATOM     21  C   UNL     1       8.526   8.770  18.536  0.00  0.00    +0.000 C 
BRANCH  21  23
ATOM     22  C   UNL     1       9.723  10.690  19.204  0.00  0.00    +0.000 C 
ATOM     23  O   UNL     1       8.701  10.174  18.362  0.00  0.00    +0.000 OA
ENDBRANCH  21  23
ENDBRANCH  20  21
ENDBRANCH  19  20
ENDBRANCH  17  19
ENDBRANCH  14  17
ENDBRANCH   1  14
TORSDOF 6
ENDMDL
MODEL 7
REMARK VINA RESULT:      -6.6      3.401      6.141
REMARK  Name = 
REMARK  8 active torsions:
REMARK  status: ('A' for Active; 'I' for Inactive)
REMARK    1  A    between atoms: C_1  and  O_2
REMARK    2  A    between atoms: O_2  and  C_3
REMARK    3  A    between atoms: C_3  and  C_4
REMARK    4  A    between atoms: C_4  and  C_5
REMARK    5  A    between atoms: C_5  and  N_6
REMARK    6  A    between atoms: N_6  and  S_7
REMARK    7  A    between atoms: S_7  and  C_10
REMARK    8  A    between atoms: C_19  and  C_20
REMARK                            x       y       z     vdW  Elec       q    Type
REMARK                         _______ _______ _______ _____ _____    ______ ____
ROOT
ATOM      1  C   UNL     1       5.420   4.767  17.121  0.00  0.00    +0.000 A 
ATOM      2  C   UNL     1       6.003   4.744  18.394  0.00  0.00    +0.000 A 
ATOM      3  C   UNL     1       5.266   4.273  19.483  0.00  0.00    +0.000 A 
ATOM      4  C   UNL     1       3.951   3.839  19.299  0.00  0.00    +0.000 A 
ATOM      5  C   UNL     1       3.390   3.832  18.016  0.00  0.00    +0.000 A 
ATOM      6  C   UNL     1       4.110   4.306  16.924  0.00  0.00    +0.000 A 
ATOM      7  N   UNL     1       2.112   3.301  17.823  0.00  0.00    +0.000 N 
ATOM      8  C   UNL     1       1.348   2.890  18.887  0.00  0.00    +0.000 C 
ATOM      9  O   UNL     1       0.300   2.275  18.717  0.00  0.00    +0.000 OA
ATOM     10  C   UNL     1       1.863   3.399  20.244  0.00  0.00    +0.000 C 
ATOM     11  C   UNL     1       1.240   2.621  21.396  0.00  0.00    +0.000 C 
ATOM     12  O   UNL     1       3.283   3.383  20.406  0.00  0.00    +0.000 OA
ATOM     13  H   UNL     1       1.751   3.112  16.898  0.00  0.00    +0.000 HD
ENDROOT
BRANCH   1  14
ATOM     14  S   UNL     1       6.278   5.502  15.746  0.00  0.00    +0.000 S 
ATOM     15  O   UNL     1       5.370   6.396  15.065  0.00  0.00    +0.000 OA
ATOM     16  O   UNL     1       6.944   4.413  15.066  0.00  0.00    +0.000 OA
BRANCH  14  17
ATOM     17  N   UNL     1       7.487   6.422  16.500  0.00  0.00    +0.000 NA
ATOM     18  H   UNL     1       8.133   5.832  17.024  0.00  0.00    +0.000 HD
BRANCH  17  19
ATOM     19  C   UNL     1       7.027   7.603  17.257  0.00  0.00    +0.000 C 
BRANCH  19  20
ATOM     20  C   UNL     1       8.207   8.213  18.013  0.00  0.00    +0.000 C 
BRANCH  20  21
ATOM     21  C   UNL     1       8.164   9.735  17.940  0.00  0.00    +0.000 C 
BRANCH  21  23
ATOM     22  C   UNL     1       9.333  10.612  19.791  0.00  0.00    +0.000 C 
ATOM     23  O   UNL     1       9.405  10.244  18.421  0.00  0.00    +0.000 OA
ENDBRANCH  21  23
ENDBRANCH  20  21
ENDBRANCH  19  20
ENDBRANCH  17  19
ENDBRANCH  14  17
ENDBRANCH   1  14
TORSDOF 6
ENDMDL
MODEL 8
REMARK VINA RESULT:      -6.5      3.039      6.779
REMARK  Name = 
REMARK  8 active torsions:
REMARK  status: ('A' for Active; 'I' for Inactive)
REMARK    1  A    between atoms: C_1  and  O_2
REMARK    2  A    between atoms: O_2  and  C_3
REMARK    3  A    between atoms: C_3  and  C_4
REMARK    4  A    between atoms: C_4  and  C_5
REMARK    5  A    between atoms: C_5  and  N_6
REMARK    6  A    between atoms: N_6  and  S_7
REMARK    7  A    between atoms: S_7  and  C_10
REMARK    8  A    between atoms: C_19  and  C_20
REMARK                            x       y       z     vdW  Elec       q    Type
REMARK                         _______ _______ _______ _____ _____    ______ ____
ROOT
ATOM      1  C   UNL     1       5.216   4.793  16.849  0.00  0.00    +0.000 A 
ATOM      2  C   UNL     1       5.845   4.891  18.097  0.00  0.00    +0.000 A 
ATOM      3  C   UNL     1       5.173   4.465  19.245  0.00  0.00    +0.000 A 
ATOM      4  C   UNL     1       3.877   3.955  19.144  0.00  0.00    +0.000 A 
ATOM      5  C   UNL     1       3.271   3.827  17.888  0.00  0.00    +0.000 A 
ATOM      6  C   UNL     1       3.926   4.255  16.738  0.00  0.00    +0.000 A 
ATOM      7  N   UNL     1       2.015   3.221  17.785  0.00  0.00    +0.000 N 
ATOM      8  C   UNL     1       1.312   2.852  18.904  0.00  0.00    +0.000 C 
ATOM      9  O   UNL     1       0.293   2.176  18.820  0.00  0.00    +0.000 OA
ATOM     10  C   UNL     1       1.849   3.483  20.200  0.00  0.00    +0.000 C 
ATOM     11  C   UNL     1       1.309   2.762  21.428  0.00  0.00    +0.000 C 
ATOM     12  O   UNL     1       3.273   3.548  20.306  0.00  0.00    +0.000 OA
ATOM     13  H   UNL     1       1.632   2.948  16.890  0.00  0.00    +0.000 HD
ENDROOT
BRANCH   1  14
ATOM     14  S   UNL     1       5.985   5.467  15.393  0.00  0.00    +0.000 S 
ATOM     15  O   UNL     1       7.417   5.414  15.565  0.00  0.00    +0.000 OA
ATOM     16  O   UNL     1       5.285   6.702  15.111  0.00  0.00    +0.000 OA
BRANCH  14  17
ATOM     17  N   UNL     1       5.538   4.364  14.183  0.00  0.00    +0.000 NA
ATOM     18  H   UNL     1       5.124   3.522  14.581  0.00  0.00    +0.000 HD
BRANCH  17  19
ATOM     19  C   UNL     1       6.555   4.086  13.151  0.00  0.00    +0.000 C 
BRANCH  19  20
ATOM     20  C   UNL     1       6.199   2.790  12.422  0.00  0.00    +0.000 C 
BRANCH  20  21
ATOM     21  C   UNL     1       5.407   3.089  11.154  0.00  0.00    +0.000 C 
BRANCH  21  23
ATOM     22  C   UNL     1       3.216   3.476  10.369  0.00  0.00    +0.000 C 
ATOM     23  O   UNL     1       4.037   3.265  11.509  0.00  0.00    +0.000 OA
ENDBRANCH  21  23
ENDBRANCH  20  21
ENDBRANCH  19  20
ENDBRANCH  17  19
ENDBRANCH  14  17
ENDBRANCH   1  14
TORSDOF 6
ENDMDL
MODEL 9
REMARK VINA RESULT:      -6.5      2.476      6.023
REMARK  Name = 
REMARK  8 active torsions:
REMARK  status: ('A' for Active; 'I' for Inactive)
REMARK    1  A    between atoms: C_1  and  O_2
REMARK    2  A    between atoms: O_2  and  C_3
REMARK    3  A    between atoms: C_3  and  C_4
REMARK    4  A    between atoms: C_4  and  C_5
REMARK    5  A    between atoms: C_5  and  N_6
REMARK    6  A    between atoms: N_6  and  S_7
REMARK    7  A    between atoms: S_7  and  C_10
REMARK    8  A    between atoms: C_19  and  C_20
REMARK                            x       y       z     vdW  Elec       q    Type
REMARK                         _______ _______ _______ _____ _____    ______ ____
ROOT
ATOM      1  C   UNL     1       3.773   5.658  18.460  0.00  0.00    +0.000 A 
ATOM      2  C   UNL     1       3.744   6.587  17.412  0.00  0.00    +0.000 A 
ATOM      3  C   UNL     1       3.027   7.777  17.562  0.00  0.00    +0.000 A 
ATOM      4  C   UNL     1       2.337   8.028  18.750  0.00  0.00    +0.000 A 
ATOM      5  C   UNL     1       2.403   7.110  19.806  0.00  0.00    +0.000 A 
ATOM      6  C   UNL     1       3.105   5.918  19.666  0.00  0.00    +0.000 A 
ATOM      7  N   UNL     1       1.795   7.416  21.027  0.00  0.00    +0.000 N 
ATOM      8  C   UNL     1       1.035   8.550  21.176  0.00  0.00    +0.000 C 
ATOM      9  O   UNL     1       0.638   8.908  22.279  0.00  0.00    +0.000 OA
ATOM     10  C   UNL     1       0.638   9.201  19.840  0.00  0.00    +0.000 C 
ATOM     11  C   UNL     1       0.149  10.628  20.048  0.00  0.00    +0.000 C 
ATOM     12  O   UNL     1       1.658   9.216  18.838  0.00  0.00    +0.000 OA
ATOM     13  H   UNL     1       1.973   6.870  21.858  0.00  0.00    +0.000 HD
ENDROOT
BRANCH   1  14
ATOM     14  S   UNL     1       4.547   4.071  18.242  0.00  0.00    +0.000 S 
ATOM     15  O   UNL     1       5.656   3.972  19.161  0.00  0.00    +0.000 OA
ATOM     16  O   UNL     1       4.709   3.902  16.814  0.00  0.00    +0.000 OA
BRANCH  14  17
ATOM     17  N   UNL     1       3.335   2.987  18.729  0.00  0.00    +0.000 NA
ATOM     18  H   UNL     1       3.730   2.095  19.025  0.00  0.00    +0.000 HD
BRANCH  17  19
ATOM     19  C   UNL     1       2.185   2.846  17.815  0.00  0.00    +0.000 C 
BRANCH  19  20
ATOM     20  C   UNL     1       0.963   2.378  18.605  0.00  0.00    +0.000 C 
BRANCH  20  21
ATOM     21  C   UNL     1       0.857   3.130  19.927  0.00  0.00    +0.000 C 
BRANCH  21  23
ATOM     22  C   UNL     1       2.101   3.181  21.931  0.00  0.00    +0.000 C 
ATOM     23  O   UNL     1       1.507   2.360  20.936  0.00  0.00    +0.000 OA
ENDBRANCH  21  23
ENDBRANCH  20  21
ENDBRANCH  19  20
ENDBRANCH  17  19
ENDBRANCH  14  17
ENDBRANCH   1  14
TORSDOF 6
ENDMDL
