MODEL 1
REMARK VINA RESULT:     -10.4      0.000      0.000
REMARK  Name = 
REMARK  6 active torsions:
REMARK  status: ('A' for Active; 'I' for Inactive)
REMARK    1  A    between atoms: C_1  and  S_2
REMARK    2  A    between atoms: S_2  and  C_5
REMARK    3  A    between atoms: C_9  and  C_10
REMARK    4  A    between atoms: C_13  and  C_14
REMARK    5  A    between atoms: C_16  and  C_17
REMARK    6  A    between atoms: N_22  and  C_23
REMARK                            x       y       z     vdW  Elec       q    Type
REMARK                         _______ _______ _______ _____ _____    ______ ____
ROOT
ATOM      1  C   UNL     1       0.957   9.349  19.106  0.00  0.00    +0.000 A 
ATOM      2  C   UNL     1       1.570   9.270  17.844  0.00  0.00    +0.000 A 
ATOM      3  C   UNL     1       2.493   8.262  17.543  0.00  0.00    +0.000 A 
ATOM      4  C   UNL     1       2.865   7.324  18.511  0.00  0.00    +0.000 A 
ATOM      5  C   UNL     1       2.300   7.430  19.784  0.00  0.00    +0.000 A 
ATOM      6  C   UNL     1       1.330   8.391  20.059  0.00  0.00    +0.000 A 
ENDROOT
BRANCH   1  11
ATOM      7  C   UNL     1      -1.320  11.654  21.082  0.00  0.00    +0.000 A 
ATOM      8  C   UNL     1      -2.022  12.310  20.076  0.00  0.00    +0.000 A 
ATOM      9  C   UNL     1      -1.727  12.025  18.746  0.00  0.00    +0.000 A 
ATOM     10  C   UNL     1      -0.757  11.070  18.432  0.00  0.00    +0.000 A 
ATOM     11  C   UNL     1      -0.040  10.391  19.434  0.00  0.00    +0.000 A 
ATOM     12  C   UNL     1      -0.330  10.716  20.769  0.00  0.00    +0.000 A 
BRANCH   7  14
ATOM     13  C   UNL     1      -1.087  13.540  23.111  0.00  0.00    +0.000 C 
ATOM     14  S   UNL     1      -1.738  11.925  22.783  0.00  0.00    +0.000 S 
ATOM     15  O   UNL     1      -0.996  10.968  23.579  0.00  0.00    +0.000 OA
ATOM     16  O   UNL     1      -3.186  11.996  22.867  0.00  0.00    +0.000 OA
ENDBRANCH   7  14
ENDBRANCH   1  11
BRANCH   4  17
ATOM     17  C   UNL     1       3.842   6.276  18.198  0.00  0.00    +0.000 A 
ATOM     18  C   UNL     1       4.948   6.371  17.371  0.00  0.00    +0.000 A 
ATOM     19  C   UNL     1       5.662   5.165  17.522  0.00  0.00    +0.000 A 
ATOM     20  N   UNL     1       5.040   4.351  18.387  0.00  0.00    +0.000 NA
ATOM     21  N   UNL     1       3.903   4.993  18.754  0.00  0.00    +0.000 N 
BRANCH  21  22
ATOM     22  C   UNL     1       2.920   4.300  19.520  0.00  0.00    +0.000 A 
ATOM     23  C   UNL     1       3.223   3.925  20.845  0.00  0.00    +0.000 A 
ATOM     24  C   UNL     1       2.309   3.200  21.610  0.00  0.00    +0.000 A 
ATOM     25  C   UNL     1       1.064   2.879  21.082  0.00  0.00    +0.000 A 
ATOM     26  C   UNL     1       0.741   3.267  19.781  0.00  0.00    +0.000 A 
ATOM     27  C   UNL     1       1.663   3.968  18.989  0.00  0.00    +0.000 A 
ATOM     28 CL   UNL     1       1.202   4.209  17.339  0.00  0.00    +0.000 Cl
ENDBRANCH  21  22
BRANCH  19  29
ATOM     29  C   UNL     1       6.949   4.793  16.839  0.00  0.00    +0.000 C 
ATOM     30  F   UNL     1       7.878   4.347  17.731  0.00  0.00    +0.000 F 
ATOM     31  F   UNL     1       6.792   3.800  15.924  0.00  0.00    +0.000 F 
ATOM     32  F   UNL     1       7.517   5.848  16.196  0.00  0.00    +0.000 F 
ENDBRANCH  19  29
ENDBRANCH   4  17
TORSDOF 5
ENDMDL
MODEL 2
REMARK VINA RESULT:     -10.3      0.633      1.017
REMARK  Name = 
REMARK  6 active torsions:
REMARK  status: ('A' for Active; 'I' for Inactive)
REMARK    1  A    between atoms: C_1  and  S_2
REMARK    2  A    between atoms: S_2  and  C_5
REMARK    3  A    between atoms: C_9  and  C_10
REMARK    4  A    between atoms: C_13  and  C_14
REMARK    5  A    between atoms: C_16  and  C_17
REMARK    6  A    between atoms: N_22  and  C_23
REMARK                            x       y       z     vdW  Elec       q    Type
REMARK                         _______ _______ _______ _____ _____    ______ ____
ROOT
ATOM      1  C   UNL     1       0.952   9.289  19.098  0.00  0.00    +0.000 A 
ATOM      2  C   UNL     1       1.552   9.205  17.831  0.00  0.00    +0.000 A 
ATOM      3  C   UNL     1       2.481   8.202  17.528  0.00  0.00    +0.000 A 
ATOM      4  C   UNL     1       2.871   7.275  18.499  0.00  0.00    +0.000 A 
ATOM      5  C   UNL     1       2.320   7.387  19.777  0.00  0.00    +0.000 A 
ATOM      6  C   UNL     1       1.344   8.342  20.055  0.00  0.00    +0.000 A 
ENDROOT
BRANCH   1  11
ATOM      7  C   UNL     1      -1.194  11.717  21.073  0.00  0.00    +0.000 A 
ATOM      8  C   UNL     1      -2.037  12.231  20.092  0.00  0.00    +0.000 A 
ATOM      9  C   UNL     1      -1.881  11.811  18.774  0.00  0.00    +0.000 A 
ATOM     10  C   UNL     1      -0.908  10.862  18.452  0.00  0.00    +0.000 A 
ATOM     11  C   UNL     1      -0.050  10.325  19.428  0.00  0.00    +0.000 A 
ATOM     12  C   UNL     1      -0.202  10.786  20.746  0.00  0.00    +0.000 A 
BRANCH   7  14
ATOM     13  C   UNL     1      -3.185  12.360  22.902  0.00  0.00    +0.000 C 
ATOM     14  S   UNL     1      -1.429  12.161  22.772  0.00  0.00    +0.000 S 
ATOM     15  O   UNL     1      -0.811  13.455  22.980  0.00  0.00    +0.000 OA
ATOM     16  O   UNL     1      -1.042  11.016  23.577  0.00  0.00    +0.000 OA
ENDBRANCH   7  14
ENDBRANCH   1  11
BRANCH   4  17
ATOM     17  C   UNL     1       3.854   6.234  18.183  0.00  0.00    +0.000 A 
ATOM     18  C   UNL     1       4.960   6.336  17.357  0.00  0.00    +0.000 A 
ATOM     19  C   UNL     1       5.680   5.134  17.505  0.00  0.00    +0.000 A 
ATOM     20  N   UNL     1       5.063   4.315  18.369  0.00  0.00    +0.000 NA
ATOM     21  N   UNL     1       3.921   4.949  18.736  0.00  0.00    +0.000 N 
BRANCH  21  22
ATOM     22  C   UNL     1       2.942   4.249  19.500  0.00  0.00    +0.000 A 
ATOM     23  C   UNL     1       3.253   3.857  20.818  0.00  0.00    +0.000 A 
ATOM     24  C   UNL     1       2.341   3.125  21.580  0.00  0.00    +0.000 A 
ATOM     25  C   UNL     1       1.093   2.814  21.056  0.00  0.00    +0.000 A 
ATOM     26  C   UNL     1       0.763   3.218  19.762  0.00  0.00    +0.000 A 
ATOM     27  C   UNL     1       1.681   3.927  18.973  0.00  0.00    +0.000 A 
ATOM     28 CL   UNL     1       1.210   4.189  17.328  0.00  0.00    +0.000 Cl
ENDBRANCH  21  22
BRANCH  19  29
ATOM     29  C   UNL     1       6.970   4.770  16.822  0.00  0.00    +0.000 C 
ATOM     30  F   UNL     1       6.788   3.779  15.904  0.00  0.00    +0.000 F 
ATOM     31  F   UNL     1       7.523   5.814  16.151  0.00  0.00    +0.000 F 
ATOM     32  F   UNL     1       7.905   4.310  17.695  0.00  0.00    +0.000 F 
ENDBRANCH  19  29
ENDBRANCH   4  17
TORSDOF 5
ENDMDL
MODEL 3
REMARK VINA RESULT:     -10.3      0.635      1.322
REMARK  Name = 
REMARK  6 active torsions:
REMARK  status: ('A' for Active; 'I' for Inactive)
REMARK    1  A    between atoms: C_1  and  S_2
REMARK    2  A    between atoms: S_2  and  C_5
REMARK    3  A    between atoms: C_9  and  C_10
REMARK    4  A    between atoms: C_13  and  C_14
REMARK    5  A    between atoms: C_16  and  C_17
REMARK    6  A    between atoms: N_22  and  C_23
REMARK                            x       y       z     vdW  Elec       q    Type
REMARK                         _______ _______ _______ _____ _____    ______ ____
ROOT
ATOM      1  C   UNL     1       0.969   9.277  19.132  0.00  0.00    +0.000 A 
ATOM      2  C   UNL     1       1.378   8.336  20.092  0.00  0.00    +0.000 A 
ATOM      3  C   UNL     1       2.332   7.355  19.793  0.00  0.00    +0.000 A 
ATOM      4  C   UNL     1       2.875   7.258  18.509  0.00  0.00    +0.000 A 
ATOM      5  C   UNL     1       2.432   8.155  17.534  0.00  0.00    +0.000 A 
ATOM      6  C   UNL     1       1.536   9.174  17.854  0.00  0.00    +0.000 A 
ENDROOT
BRANCH   1  11
ATOM      7  C   UNL     1      -1.162  11.764  21.049  0.00  0.00    +0.000 A 
ATOM      8  C   UNL     1      -1.975  12.289  20.049  0.00  0.00    +0.000 A 
ATOM      9  C   UNL     1      -1.803  11.856  18.738  0.00  0.00    +0.000 A 
ATOM     10  C   UNL     1      -0.844  10.884  18.440  0.00  0.00    +0.000 A 
ATOM     11  C   UNL     1      -0.017  10.336  19.437  0.00  0.00    +0.000 A 
ATOM     12  C   UNL     1      -0.183  10.810  20.748  0.00  0.00    +0.000 A 
BRANCH   7  14
ATOM     13  C   UNL     1      -3.170  12.479  22.832  0.00  0.00    +0.000 C 
ATOM     14  S   UNL     1      -1.419  12.226  22.740  0.00  0.00    +0.000 S 
ATOM     15  O   UNL     1      -0.766  13.502  22.955  0.00  0.00    +0.000 OA
ATOM     16  O   UNL     1      -1.085  11.074  23.559  0.00  0.00    +0.000 OA
ENDBRANCH   7  14
ENDBRANCH   1  11
BRANCH   4  17
ATOM     17  C   UNL     1       3.864   6.222  18.194  0.00  0.00    +0.000 A 
ATOM     18  C   UNL     1       4.970   6.331  17.369  0.00  0.00    +0.000 A 
ATOM     19  C   UNL     1       5.696   5.131  17.517  0.00  0.00    +0.000 A 
ATOM     20  N   UNL     1       5.081   4.308  18.379  0.00  0.00    +0.000 NA
ATOM     21  N   UNL     1       3.936   4.937  18.746  0.00  0.00    +0.000 N 
BRANCH  21  22
ATOM     22  C   UNL     1       2.959   4.232  19.507  0.00  0.00    +0.000 A 
ATOM     23  C   UNL     1       3.264   3.852  20.830  0.00  0.00    +0.000 A 
ATOM     24  C   UNL     1       2.355   3.115  21.591  0.00  0.00    +0.000 A 
ATOM     25  C   UNL     1       1.115   2.786  21.060  0.00  0.00    +0.000 A 
ATOM     26  C   UNL     1       0.790   3.178  19.760  0.00  0.00    +0.000 A 
ATOM     27  C   UNL     1       1.706   3.891  18.973  0.00  0.00    +0.000 A 
ATOM     28 CL   UNL     1       1.245   4.136  17.323  0.00  0.00    +0.000 Cl
ENDBRANCH  21  22
BRANCH  19  29
ATOM     29  C   UNL     1       6.989   4.775  16.836  0.00  0.00    +0.000 C 
ATOM     30  F   UNL     1       7.520   5.844  16.179  0.00  0.00    +0.000 F 
ATOM     31  F   UNL     1       7.942   4.349  17.705  0.00  0.00    +0.000 F 
ATOM     32  F   UNL     1       6.828   3.799  15.902  0.00  0.00    +0.000 F 
ENDBRANCH  19  29
ENDBRANCH   4  17
TORSDOF 5
ENDMDL
MODEL 4
REMARK VINA RESULT:     -10.3      0.109      1.092
REMARK  Name = 
REMARK  6 active torsions:
REMARK  status: ('A' for Active; 'I' for Inactive)
REMARK    1  A    between atoms: C_1  and  S_2
REMARK    2  A    between atoms: S_2  and  C_5
REMARK    3  A    between atoms: C_9  and  C_10
REMARK    4  A    between atoms: C_13  and  C_14
REMARK    5  A    between atoms: C_16  and  C_17
REMARK    6  A    between atoms: N_22  and  C_23
REMARK                            x       y       z     vdW  Elec       q    Type
REMARK                         _______ _______ _______ _____ _____    ______ ____
ROOT
ATOM      1  C   UNL     1       0.933   9.329  19.132  0.00  0.00    +0.000 A 
ATOM      2  C   UNL     1       1.327   8.392  20.102  0.00  0.00    +0.000 A 
ATOM      3  C   UNL     1       2.289   7.414  19.824  0.00  0.00    +0.000 A 
ATOM      4  C   UNL     1       2.858   7.315  18.550  0.00  0.00    +0.000 A 
ATOM      5  C   UNL     1       2.430   8.208  17.565  0.00  0.00    +0.000 A 
ATOM      6  C   UNL     1       1.525   9.224  17.865  0.00  0.00    +0.000 A 
ENDROOT
BRANCH   1  11
ATOM      7  C   UNL     1      -1.334  11.725  21.007  0.00  0.00    +0.000 A 
ATOM      8  C   UNL     1      -2.042  12.332  19.973  0.00  0.00    +0.000 A 
ATOM      9  C   UNL     1      -1.752  11.985  18.657  0.00  0.00    +0.000 A 
ATOM     10  C   UNL     1      -0.783  11.016  18.385  0.00  0.00    +0.000 A 
ATOM     11  C   UNL     1      -0.062  10.385  19.415  0.00  0.00    +0.000 A 
ATOM     12  C   UNL     1      -0.346  10.773  20.734  0.00  0.00    +0.000 A 
BRANCH   7  14
ATOM     13  C   UNL     1      -1.010  13.666  22.970  0.00  0.00    +0.000 C 
ATOM     14  S   UNL     1      -1.745  12.078  22.694  0.00  0.00    +0.000 S 
ATOM     15  O   UNL     1      -1.058  11.111  23.528  0.00  0.00    +0.000 OA
ATOM     16  O   UNL     1      -3.188  12.228  22.767  0.00  0.00    +0.000 OA
ENDBRANCH   7  14
ENDBRANCH   1  11
BRANCH   4  17
ATOM     17  C   UNL     1       3.856   6.281  18.257  0.00  0.00    +0.000 A 
ATOM     18  C   UNL     1       4.978   6.392  17.454  0.00  0.00    +0.000 A 
ATOM     19  C   UNL     1       5.705   5.196  17.619  0.00  0.00    +0.000 A 
ATOM     20  N   UNL     1       5.075   4.372  18.470  0.00  0.00    +0.000 NA
ATOM     21  N   UNL     1       3.922   4.998  18.813  0.00  0.00    +0.000 N 
BRANCH  21  22
ATOM     22  C   UNL     1       2.932   4.291  19.557  0.00  0.00    +0.000 A 
ATOM     23  C   UNL     1       3.211   3.919  20.888  0.00  0.00    +0.000 A 
ATOM     24  C   UNL     1       2.289   3.181  21.632  0.00  0.00    +0.000 A 
ATOM     25  C   UNL     1       1.062   2.843  21.076  0.00  0.00    +0.000 A 
ATOM     26  C   UNL     1       0.763   3.226  19.768  0.00  0.00    +0.000 A 
ATOM     27  C   UNL     1       1.692   3.941  18.997  0.00  0.00    +0.000 A 
ATOM     28 CL   UNL     1       1.266   4.175  17.336  0.00  0.00    +0.000 Cl
ENDBRANCH  21  22
BRANCH  19  29
ATOM     29  C   UNL     1       7.011   4.842  16.964  0.00  0.00    +0.000 C 
ATOM     30  F   UNL     1       6.843   3.913  15.981  0.00  0.00    +0.000 F 
ATOM     31  F   UNL     1       7.614   5.911  16.380  0.00  0.00    +0.000 F 
ATOM     32  F   UNL     1       7.901   4.307  17.841  0.00  0.00    +0.000 F 
ENDBRANCH  19  29
ENDBRANCH   4  17
TORSDOF 5
ENDMDL
MODEL 5
REMARK VINA RESULT:      -9.8      1.184      1.496
REMARK  Name = 
REMARK  6 active torsions:
REMARK  status: ('A' for Active; 'I' for Inactive)
REMARK    1  A    between atoms: C_1  and  S_2
REMARK    2  A    between atoms: S_2  and  C_5
REMARK    3  A    between atoms: C_9  and  C_10
REMARK    4  A    between atoms: C_13  and  C_14
REMARK    5  A    between atoms: C_16  and  C_17
REMARK    6  A    between atoms: N_22  and  C_23
REMARK                            x       y       z     vdW  Elec       q    Type
REMARK                         _______ _______ _______ _____ _____    ______ ____
ROOT
ATOM      1  C   UNL     1       1.025   9.432  19.039  0.00  0.00    +0.000 A 
ATOM      2  C   UNL     1       1.704   9.360  17.812  0.00  0.00    +0.000 A 
ATOM      3  C   UNL     1       2.621   8.337  17.544  0.00  0.00    +0.000 A 
ATOM      4  C   UNL     1       2.920   7.376  18.513  0.00  0.00    +0.000 A 
ATOM      5  C   UNL     1       2.289   7.474  19.756  0.00  0.00    +0.000 A 
ATOM      6  C   UNL     1       1.325   8.451  19.994  0.00  0.00    +0.000 A 
ENDROOT
BRANCH   1  11
ATOM      7  C   UNL     1      -0.604  12.529  20.508  0.00  0.00    +0.000 A 
ATOM      8  C   UNL     1      -1.890  12.465  19.980  0.00  0.00    +0.000 A 
ATOM      9  C   UNL     1      -2.217  11.427  19.113  0.00  0.00    +0.000 A 
ATOM     10  C   UNL     1      -1.270  10.448  18.803  0.00  0.00    +0.000 A 
ATOM     11  C   UNL     1       0.033  10.490  19.331  0.00  0.00    +0.000 A 
ATOM     12  C   UNL     1       0.353  11.563  20.178  0.00  0.00    +0.000 A 
BRANCH   7  14
ATOM     13  C   UNL     1      -1.125  13.327  23.119  0.00  0.00    +0.000 C 
ATOM     14  S   UNL     1      -0.187  13.784  21.687  0.00  0.00    +0.000 S 
ATOM     15  O   UNL     1      -0.703  15.045  21.192  0.00  0.00    +0.000 OA
ATOM     16  O   UNL     1       1.223  13.632  22.002  0.00  0.00    +0.000 OA
ENDBRANCH   7  14
ENDBRANCH   1  11
BRANCH   4  17
ATOM     17  C   UNL     1       3.891   6.312  18.235  0.00  0.00    +0.000 A 
ATOM     18  C   UNL     1       5.018   6.384  17.435  0.00  0.00    +0.000 A 
ATOM     19  C   UNL     1       5.712   5.171  17.616  0.00  0.00    +0.000 A 
ATOM     20  N   UNL     1       5.059   4.375  18.475  0.00  0.00    +0.000 NA
ATOM     21  N   UNL     1       3.921   5.035  18.806  0.00  0.00    +0.000 N 
BRANCH  21  22
ATOM     22  C   UNL     1       2.911   4.363  19.555  0.00  0.00    +0.000 A 
ATOM     23  C   UNL     1       3.165   4.026  20.900  0.00  0.00    +0.000 A 
ATOM     24  C   UNL     1       2.223   3.322  21.652  0.00  0.00    +0.000 A 
ATOM     25  C   UNL     1       0.999   2.985  21.088  0.00  0.00    +0.000 A 
ATOM     26  C   UNL     1       0.724   3.335  19.765  0.00  0.00    +0.000 A 
ATOM     27  C   UNL     1       1.674   4.014  18.988  0.00  0.00    +0.000 A 
ATOM     28 CL   UNL     1       1.275   4.207  17.315  0.00  0.00    +0.000 Cl
ENDBRANCH  21  22
BRANCH  19  29
ATOM     29  C   UNL     1       7.011   4.775  16.969  0.00  0.00    +0.000 C 
ATOM     30  F   UNL     1       7.584   5.824  16.315  0.00  0.00    +0.000 F 
ATOM     31  F   UNL     1       7.933   4.335  17.865  0.00  0.00    +0.000 F 
ATOM     32  F   UNL     1       6.848   3.794  16.042  0.00  0.00    +0.000 F 
ENDBRANCH  19  29
ENDBRANCH   4  17
TORSDOF 5
ENDMDL
MODEL 6
REMARK VINA RESULT:      -9.7      1.888      2.540
REMARK  Name = 
REMARK  6 active torsions:
REMARK  status: ('A' for Active; 'I' for Inactive)
REMARK    1  A    between atoms: C_1  and  S_2
REMARK    2  A    between atoms: S_2  and  C_5
REMARK    3  A    between atoms: C_9  and  C_10
REMARK    4  A    between atoms: C_13  and  C_14
REMARK    5  A    between atoms: C_16  and  C_17
REMARK    6  A    between atoms: N_22  and  C_23
REMARK                            x       y       z     vdW  Elec       q    Type
REMARK                         _______ _______ _______ _____ _____    ______ ____
ROOT
ATOM      1  C   UNL     1       0.819   9.346  19.027  0.00  0.00    +0.000 A 
ATOM      2  C   UNL     1       1.229   8.465  20.042  0.00  0.00    +0.000 A 
ATOM      3  C   UNL     1       2.229   7.511  19.820  0.00  0.00    +0.000 A 
ATOM      4  C   UNL     1       2.821   7.378  18.561  0.00  0.00    +0.000 A 
ATOM      5  C   UNL     1       2.379   8.213  17.532  0.00  0.00    +0.000 A 
ATOM      6  C   UNL     1       1.434   9.208  17.775  0.00  0.00    +0.000 A 
ENDROOT
BRANCH   1  11
ATOM      7  C   UNL     1      -2.427  11.296  18.779  0.00  0.00    +0.000 A 
ATOM      8  C   UNL     1      -2.170  12.401  19.585  0.00  0.00    +0.000 A 
ATOM      9  C   UNL     1      -0.946  12.492  20.242  0.00  0.00    +0.000 A 
ATOM     10  C   UNL     1       0.020  11.498  20.066  0.00  0.00    +0.000 A 
ATOM     11  C   UNL     1      -0.217  10.377  19.250  0.00  0.00    +0.000 A 
ATOM     12  C   UNL     1      -1.470  10.287  18.622  0.00  0.00    +0.000 A 
BRANCH   7  14
ATOM     13  C   UNL     1      -3.394  11.301  16.173  0.00  0.00    +0.000 C 
ATOM     14  S   UNL     1      -3.937  11.199  17.856  0.00  0.00    +0.000 S 
ATOM     15  O   UNL     1      -4.714  12.385  18.154  0.00  0.00    +0.000 OA
ATOM     16  O   UNL     1      -4.492   9.875  18.074  0.00  0.00    +0.000 OA
ENDBRANCH   7  14
ENDBRANCH   1  11
BRANCH   4  17
ATOM     17  C   UNL     1       3.859   6.369  18.327  0.00  0.00    +0.000 A 
ATOM     18  C   UNL     1       5.011   6.500  17.571  0.00  0.00    +0.000 A 
ATOM     19  C   UNL     1       5.763   5.327  17.786  0.00  0.00    +0.000 A 
ATOM     20  N   UNL     1       5.121   4.499  18.622  0.00  0.00    +0.000 NA
ATOM     21  N   UNL     1       3.936   5.096  18.906  0.00  0.00    +0.000 N 
BRANCH  21  22
ATOM     22  C   UNL     1       2.935   4.373  19.618  0.00  0.00    +0.000 A 
ATOM     23  C   UNL     1       3.172   4.017  20.961  0.00  0.00    +0.000 A 
ATOM     24  C   UNL     1       2.240   3.263  21.677  0.00  0.00    +0.000 A 
ATOM     25  C   UNL     1       1.043   2.894  21.078  0.00  0.00    +0.000 A 
ATOM     26  C   UNL     1       0.784   3.261  19.757  0.00  0.00    +0.000 A 
ATOM     27  C   UNL     1       1.725   3.991  19.015  0.00  0.00    +0.000 A 
ATOM     28 CL   UNL     1       1.356   4.204  17.338  0.00  0.00    +0.000 Cl
ENDBRANCH  21  22
BRANCH  19  29
ATOM     29  C   UNL     1       7.106   5.000  17.193  0.00  0.00    +0.000 C 
ATOM     30  F   UNL     1       7.977   4.554  18.142  0.00  0.00    +0.000 F 
ATOM     31  F   UNL     1       7.042   4.027  16.247  0.00  0.00    +0.000 F 
ATOM     32  F   UNL     1       7.694   6.083  16.619  0.00  0.00    +0.000 F 
ENDBRANCH  19  29
ENDBRANCH   4  17
TORSDOF 5
ENDMDL
MODEL 7
REMARK VINA RESULT:      -9.7      1.300      1.669
REMARK  Name = 
REMARK  6 active torsions:
REMARK  status: ('A' for Active; 'I' for Inactive)
REMARK    1  A    between atoms: C_1  and  S_2
REMARK    2  A    between atoms: S_2  and  C_5
REMARK    3  A    between atoms: C_9  and  C_10
REMARK    4  A    between atoms: C_13  and  C_14
REMARK    5  A    between atoms: C_16  and  C_17
REMARK    6  A    between atoms: N_22  and  C_23
REMARK                            x       y       z     vdW  Elec       q    Type
REMARK                         _______ _______ _______ _____ _____    ______ ____
ROOT
ATOM      1  C   UNL     1       1.051   9.459  19.103  0.00  0.00    +0.000 A 
ATOM      2  C   UNL     1       1.362   8.458  20.037  0.00  0.00    +0.000 A 
ATOM      3  C   UNL     1       2.286   7.447  19.744  0.00  0.00    +0.000 A 
ATOM      4  C   UNL     1       2.898   7.383  18.489  0.00  0.00    +0.000 A 
ATOM      5  C   UNL     1       2.551   8.343  17.536  0.00  0.00    +0.000 A 
ATOM      6  C   UNL     1       1.685   9.387  17.854  0.00  0.00    +0.000 A 
ENDROOT
BRANCH   1  11
ATOM      7  C   UNL     1      -0.425  12.663  20.501  0.00  0.00    +0.000 A 
ATOM      8  C   UNL     1      -1.747  12.591  20.073  0.00  0.00    +0.000 A 
ATOM      9  C   UNL     1      -2.150  11.511  19.293  0.00  0.00    +0.000 A 
ATOM     10  C   UNL     1      -1.241  10.499  18.974  0.00  0.00    +0.000 A 
ATOM     11  C   UNL     1       0.098  10.549  19.403  0.00  0.00    +0.000 A 
ATOM     12  C   UNL     1       0.493  11.663  20.160  0.00  0.00    +0.000 A 
BRANCH   7  14
ATOM     13  C   UNL     1      -0.946  13.780  22.993  0.00  0.00    +0.000 C 
ATOM     14  S   UNL     1       0.094  13.976  21.572  0.00  0.00    +0.000 S 
ATOM     15  O   UNL     1      -0.249  15.230  20.931  0.00  0.00    +0.000 OA
ATOM     16  O   UNL     1       1.462  13.696  21.969  0.00  0.00    +0.000 OA
ENDBRANCH   7  14
ENDBRANCH   1  11
BRANCH   4  17
ATOM     17  C   UNL     1       3.855   6.316  18.180  0.00  0.00    +0.000 A 
ATOM     18  C   UNL     1       4.960   6.386  17.349  0.00  0.00    +0.000 A 
ATOM     19  C   UNL     1       5.653   5.168  17.505  0.00  0.00    +0.000 A 
ATOM     20  N   UNL     1       5.019   4.371  18.378  0.00  0.00    +0.000 NA
ATOM     21  N   UNL     1       3.894   5.035  18.744  0.00  0.00    +0.000 N 
BRANCH  21  22
ATOM     22  C   UNL     1       2.901   4.365  19.517  0.00  0.00    +0.000 A 
ATOM     23  C   UNL     1       3.185   4.034  20.857  0.00  0.00    +0.000 A 
ATOM     24  C   UNL     1       2.260   3.332  21.632  0.00  0.00    +0.000 A 
ATOM     25  C   UNL     1       1.025   2.990  21.095  0.00  0.00    +0.000 A 
ATOM     26  C   UNL     1       0.722   3.333  19.777  0.00  0.00    +0.000 A 
ATOM     27  C   UNL     1       1.654   4.011  18.977  0.00  0.00    +0.000 A 
ATOM     28 CL   UNL     1       1.219   4.195  17.312  0.00  0.00    +0.000 Cl
ENDBRANCH  21  22
BRANCH  19  29
ATOM     29  C   UNL     1       6.931   4.769  16.821  0.00  0.00    +0.000 C 
ATOM     30  F   UNL     1       7.858   4.320  17.714  0.00  0.00    +0.000 F 
ATOM     31  F   UNL     1       6.756   3.768  15.919  0.00  0.00    +0.000 F 
ATOM     32  F   UNL     1       7.512   5.808  16.164  0.00  0.00    +0.000 F 
ENDBRANCH  19  29
ENDBRANCH   4  17
TORSDOF 5
ENDMDL
MODEL 8
REMARK VINA RESULT:      -9.7      1.854      2.458
REMARK  Name = 
REMARK  6 active torsions:
REMARK  status: ('A' for Active; 'I' for Inactive)
REMARK    1  A    between atoms: C_1  and  S_2
REMARK    2  A    between atoms: S_2  and  C_5
REMARK    3  A    between atoms: C_9  and  C_10
REMARK    4  A    between atoms: C_13  and  C_14
REMARK    5  A    between atoms: C_16  and  C_17
REMARK    6  A    between atoms: N_22  and  C_23
REMARK                            x       y       z     vdW  Elec       q    Type
REMARK                         _______ _______ _______ _____ _____    ______ ____
ROOT
ATOM      1  C   UNL     1       0.850   9.383  19.026  0.00  0.00    +0.000 A 
ATOM      2  C   UNL     1       1.508   9.278  17.789  0.00  0.00    +0.000 A 
ATOM      3  C   UNL     1       2.474   8.292  17.557  0.00  0.00    +0.000 A 
ATOM      4  C   UNL     1       2.844   7.404  18.571  0.00  0.00    +0.000 A 
ATOM      5  C   UNL     1       2.234   7.538  19.820  0.00  0.00    +0.000 A 
ATOM      6  C   UNL     1       1.223   8.474  20.026  0.00  0.00    +0.000 A 
ENDROOT
BRANCH   1  11
ATOM      7  C   UNL     1      -2.418  11.305  18.861  0.00  0.00    +0.000 A 
ATOM      8  C   UNL     1      -2.158  12.399  19.681  0.00  0.00    +0.000 A 
ATOM      9  C   UNL     1      -0.925  12.492  20.319  0.00  0.00    +0.000 A 
ATOM     10  C   UNL     1       0.047  11.510  20.111  0.00  0.00    +0.000 A 
ATOM     11  C   UNL     1      -0.192  10.400  19.281  0.00  0.00    +0.000 A 
ATOM     12  C   UNL     1      -1.454  10.308  18.673  0.00  0.00    +0.000 A 
BRANCH   7  14
ATOM     13  C   UNL     1      -3.426  11.327  16.271  0.00  0.00    +0.000 C 
ATOM     14  S   UNL     1      -3.941  11.207  17.962  0.00  0.00    +0.000 S 
ATOM     15  O   UNL     1      -4.720  12.387  18.282  0.00  0.00    +0.000 OA
ATOM     16  O   UNL     1      -4.486   9.879  18.176  0.00  0.00    +0.000 OA
ENDBRANCH   7  14
ENDBRANCH   1  11
BRANCH   4  17
ATOM     17  C   UNL     1       3.866   6.380  18.330  0.00  0.00    +0.000 A 
ATOM     18  C   UNL     1       5.020   6.499  17.575  0.00  0.00    +0.000 A 
ATOM     19  C   UNL     1       5.754   5.313  17.781  0.00  0.00    +0.000 A 
ATOM     20  N   UNL     1       5.099   4.489  18.612  0.00  0.00    +0.000 NA
ATOM     21  N   UNL     1       3.924   5.103  18.899  0.00  0.00    +0.000 N 
BRANCH  21  22
ATOM     22  C   UNL     1       2.911   4.390  19.607  0.00  0.00    +0.000 A 
ATOM     23  C   UNL     1       3.089   4.130  20.981  0.00  0.00    +0.000 A 
ATOM     24  C   UNL     1       2.147   3.390  21.697  0.00  0.00    +0.000 A 
ATOM     25  C   UNL     1       0.996   2.939  21.064  0.00  0.00    +0.000 A 
ATOM     26  C   UNL     1       0.795   3.211  19.710  0.00  0.00    +0.000 A 
ATOM     27  C   UNL     1       1.749   3.925  18.971  0.00  0.00    +0.000 A 
ATOM     28 CL   UNL     1       1.461   4.016  17.266  0.00  0.00    +0.000 Cl
ENDBRANCH  21  22
BRANCH  19  29
ATOM     29  C   UNL     1       7.091   4.970  17.185  0.00  0.00    +0.000 C 
ATOM     30  F   UNL     1       6.977   4.028  16.207  0.00  0.00    +0.000 F 
ATOM     31  F   UNL     1       7.704   6.040  16.615  0.00  0.00    +0.000 F 
ATOM     32  F   UNL     1       7.950   4.456  18.105  0.00  0.00    +0.000 F 
ENDBRANCH  19  29
ENDBRANCH   4  17
TORSDOF 5
ENDMDL
MODEL 9
REMARK VINA RESULT:      -9.6      1.608      1.946
REMARK  Name = 
REMARK  6 active torsions:
REMARK  status: ('A' for Active; 'I' for Inactive)
REMARK    1  A    between atoms: C_1  and  S_2
REMARK    2  A    between atoms: S_2  and  C_5
REMARK    3  A    between atoms: C_9  and  C_10
REMARK    4  A    between atoms: C_13  and  C_14
REMARK    5  A    between atoms: C_16  and  C_17
REMARK    6  A    between atoms: N_22  and  C_23
REMARK                            x       y       z     vdW  Elec       q    Type
REMARK                         _______ _______ _______ _____ _____    ______ ____
ROOT
ATOM      1  C   UNL     1       1.236   9.430  19.125  0.00  0.00    +0.000 A 
ATOM      2  C   UNL     1       1.517   8.386  20.020  0.00  0.00    +0.000 A 
ATOM      3  C   UNL     1       2.387   7.344  19.677  0.00  0.00    +0.000 A 
ATOM      4  C   UNL     1       2.971   7.292  18.408  0.00  0.00    +0.000 A 
ATOM      5  C   UNL     1       2.652   8.298  17.493  0.00  0.00    +0.000 A 
ATOM      6  C   UNL     1       1.842   9.370  17.862  0.00  0.00    +0.000 A 
ENDROOT
BRANCH   1  11
ATOM      7  C   UNL     1       0.002  12.777  20.422  0.00  0.00    +0.000 A 
ATOM      8  C   UNL     1      -1.375  12.667  20.257  0.00  0.00    +0.000 A 
ATOM      9  C   UNL     1      -1.901  11.513  19.687  0.00  0.00    +0.000 A 
ATOM     10  C   UNL     1      -1.054  10.466  19.314  0.00  0.00    +0.000 A 
ATOM     11  C   UNL     1       0.340  10.553  19.478  0.00  0.00    +0.000 A 
ATOM     12  C   UNL     1       0.854  11.740  20.025  0.00  0.00    +0.000 A 
BRANCH   7  14
ATOM     13  C   UNL     1       2.439  13.973  21.020  0.00  0.00    +0.000 C 
ATOM     14  S   UNL     1       0.694  14.194  21.229  0.00  0.00    +0.000 S 
ATOM     15  O   UNL     1       0.391  14.089  22.643  0.00  0.00    +0.000 OA
ATOM     16  O   UNL     1       0.292  15.365  20.469  0.00  0.00    +0.000 OA
ENDBRANCH   7  14
ENDBRANCH   1  11
BRANCH   4  17
ATOM     17  C   UNL     1       3.872   6.193  18.046  0.00  0.00    +0.000 A 
ATOM     18  C   UNL     1       4.934   6.227  17.159  0.00  0.00    +0.000 A 
ATOM     19  C   UNL     1       5.589   4.984  17.275  0.00  0.00    +0.000 A 
ATOM     20  N   UNL     1       4.972   4.206  18.176  0.00  0.00    +0.000 NA
ATOM     21  N   UNL     1       3.893   4.908  18.602  0.00  0.00    +0.000 N 
BRANCH  21  22
ATOM     22  C   UNL     1       2.917   4.271  19.424  0.00  0.00    +0.000 A 
ATOM     23  C   UNL     1       3.257   3.925  20.748  0.00  0.00    +0.000 A 
ATOM     24  C   UNL     1       2.348   3.253  21.567  0.00  0.00    +0.000 A 
ATOM     25  C   UNL     1       1.077   2.957  21.093  0.00  0.00    +0.000 A 
ATOM     26  C   UNL     1       0.719   3.316  19.793  0.00  0.00    +0.000 A 
ATOM     27  C   UNL     1       1.633   3.963  18.948  0.00  0.00    +0.000 A 
ATOM     28 CL   UNL     1       1.120   4.169  17.307  0.00  0.00    +0.000 Cl
ENDBRANCH  21  22
BRANCH  19  29
ATOM     29  C   UNL     1       6.815   4.542  16.524  0.00  0.00    +0.000 C 
ATOM     30  F   UNL     1       7.311   5.543  15.743  0.00  0.00    +0.000 F 
ATOM     31  F   UNL     1       7.827   4.162  17.346  0.00  0.00    +0.000 F 
ATOM     32  F   UNL     1       6.561   3.500  15.688  0.00  0.00    +0.000 F 
ENDBRANCH  19  29
ENDBRANCH   4  17
TORSDOF 5
ENDMDL
