MODEL 1
REMARK VINA RESULT:      -8.1      0.000      0.000
REMARK  Name = 
REMARK  11 active torsions:
REMARK  status: ('A' for Active; 'I' for Inactive)
REMARK    1  A    between atoms: C_2  and  C_3
REMARK    2  A    between atoms: C_3  and  C_4
REMARK    3  A    between atoms: C_6  and  C_7
REMARK    4  A    between atoms: C_8  and  C_9
REMARK    5  A    between atoms: C_9  and  C_11
REMARK    6  A    between atoms: C_16  and  N_17
REMARK    7  A    between atoms: N_17  and  C_18
REMARK    8  A    between atoms: N_17  and  C_19
REMARK    9  A    between atoms: C_23  and  O_24
REMARK   10  A    between atoms: O_24  and  C_25
REMARK   11  A    between atoms: C_27  and  O_28
REMARK                            x       y       z     vdW  Elec       q    Type
REMARK                         _______ _______ _______ _____ _____    ______ ____
ROOT
ATOM      1  C   UNL     1       2.967   7.385  17.979  0.00  0.00    +0.000 C 
ATOM      2  C   UNL     1       1.840   8.108  17.851  0.00  0.00    +0.000 C 
ENDROOT
BRANCH   1   5
ATOM      3  C   UNL     1       1.974   3.805  18.786  0.00  0.00    +0.000 A 
ATOM      4  C   UNL     1       2.069   5.216  18.782  0.00  0.00    +0.000 A 
ATOM      5  C   UNL     1       3.010   5.905  17.980  0.00  0.00    +0.000 A 
ATOM      6  C   UNL     1       3.903   5.139  17.203  0.00  0.00    +0.000 A 
ATOM      7  C   UNL     1       3.841   3.734  17.253  0.00  0.00    +0.000 A 
ATOM      8  C   UNL     1       2.887   3.080  18.024  0.00  0.00    +0.000 A 
BRANCH   6   9
ATOM      9  O   UNL     1       4.908   5.533  16.362  0.00  0.00    +0.000 OA
ATOM     10  C   UNL     1       5.847   4.598  15.864  0.00  0.00    +0.000 C 
ENDBRANCH   6   9
BRANCH   8  11
ATOM     11  O   UNL     1       2.826   1.714  18.021  0.00  0.00    +0.000 OA
ATOM     12  H   UNL     1       2.053   1.433  18.539  0.00  0.00    +0.000 HD
ENDBRANCH   8  11
BRANCH   3  13
ATOM     13  C   UNL     1       0.881   3.098  19.560  0.00  0.00    +0.000 C 
BRANCH  13  15
ATOM     14  C   UNL     1       2.144   3.338  21.716  0.00  0.00    +0.000 C 
ATOM     15  C   UNL     1       1.289   2.663  20.937  0.00  0.00    +0.000 C 
ENDBRANCH  13  15
ENDBRANCH   3  13
ENDBRANCH   1   5
BRANCH   2  16
ATOM     16  C   UNL     1       1.846   9.607  18.075  0.00  0.00    +0.000 C 
ATOM     17  O   UNL     1       2.451  10.324  17.285  0.00  0.00    +0.000 OA
BRANCH  16  18
ATOM     18  C   UNL     1       1.196  10.162  19.334  0.00  0.00    +0.000 A 
ATOM     19  C   UNL     1       1.014   9.197  20.364  0.00  0.00    +0.000 A 
ATOM     20  C   UNL     1       0.445   9.569  21.558  0.00  0.00    +0.000 A 
ATOM     21  C   UNL     1       0.095  10.855  21.802  0.00  0.00    +0.000 A 
ATOM     22  C   UNL     1       0.284  11.841  20.856  0.00  0.00    +0.000 A 
ATOM     23  C   UNL     1       0.841  11.544  19.578  0.00  0.00    +0.000 A 
ATOM     24  O   UNL     1      -0.449  11.026  23.038  0.00  0.00    +0.000 OA
ATOM     25  C   UNL     1      -0.438   9.668  23.524  0.00  0.00    +0.000 C 
ATOM     26  O   UNL     1       0.164   8.740  22.598  0.00  0.00    +0.000 OA
BRANCH  23  27
ATOM     27  N   UNL     1       0.902  12.617  18.673  0.00  0.00    +0.000 N 
ATOM     28  C   UNL     1      -0.310  13.258  18.138  0.00  0.00    +0.000 C 
ATOM     29  C   UNL     1       2.109  13.395  18.422  0.00  0.00    +0.000 C 
ENDBRANCH  23  27
ENDBRANCH  16  18
ENDBRANCH   2  16
TORSDOF 8
ENDMDL
MODEL 2
REMARK VINA RESULT:      -8.0      3.060      7.762
REMARK  Name = 
REMARK  11 active torsions:
REMARK  status: ('A' for Active; 'I' for Inactive)
REMARK    1  A    between atoms: C_2  and  C_3
REMARK    2  A    between atoms: C_3  and  C_4
REMARK    3  A    between atoms: C_6  and  C_7
REMARK    4  A    between atoms: C_8  and  C_9
REMARK    5  A    between atoms: C_9  and  C_11
REMARK    6  A    between atoms: C_16  and  N_17
REMARK    7  A    between atoms: N_17  and  C_18
REMARK    8  A    between atoms: N_17  and  C_19
REMARK    9  A    between atoms: C_23  and  O_24
REMARK   10  A    between atoms: O_24  and  C_25
REMARK   11  A    between atoms: C_27  and  O_28
REMARK                            x       y       z     vdW  Elec       q    Type
REMARK                         _______ _______ _______ _____ _____    ______ ____
ROOT
ATOM      1  C   UNL     1       2.162   9.183  18.321  0.00  0.00    +0.000 C 
ATOM      2  C   UNL     1       2.084   7.876  18.013  0.00  0.00    +0.000 C 
ENDROOT
BRANCH   1   5
ATOM      3  C   UNL     1      -1.393  10.417  17.781  0.00  0.00    +0.000 A 
ATOM      4  C   UNL     1      -0.221   9.626  17.790  0.00  0.00    +0.000 A 
ATOM      5  C   UNL     1       1.017  10.119  18.270  0.00  0.00    +0.000 A 
ATOM      6  C   UNL     1       1.070  11.460  18.705  0.00  0.00    +0.000 A 
ATOM      7  C   UNL     1      -0.086  12.259  18.642  0.00  0.00    +0.000 A 
ATOM      8  C   UNL     1      -1.297  11.743  18.196  0.00  0.00    +0.000 A 
BRANCH   6   9
ATOM      9  O   UNL     1       2.119  12.191  19.193  0.00  0.00    +0.000 OA
ATOM     10  C   UNL     1       2.638  13.289  18.468  0.00  0.00    +0.000 C 
ENDBRANCH   6   9
BRANCH   8  11
ATOM     11  O   UNL     1      -2.413  12.534  18.185  0.00  0.00    +0.000 OA
ATOM     12  H   UNL     1      -2.338  13.192  18.896  0.00  0.00    +0.000 HD
ENDBRANCH   8  11
BRANCH   3  13
ATOM     13  C   UNL     1      -2.728   9.828  17.377  0.00  0.00    +0.000 C 
BRANCH  13  15
ATOM     14  C   UNL     1      -3.168  10.712  15.068  0.00  0.00    +0.000 C 
ATOM     15  C   UNL     1      -2.911   9.688  15.893  0.00  0.00    +0.000 C 
ENDBRANCH  13  15
ENDBRANCH   3  13
ENDBRANCH   1   5
BRANCH   2  16
ATOM     16  C   UNL     1       3.335   7.031  17.879  0.00  0.00    +0.000 C 
ATOM     17  O   UNL     1       4.192   7.363  17.067  0.00  0.00    +0.000 OA
BRANCH  16  18
ATOM     18  C   UNL     1       3.436   5.738  18.675  0.00  0.00    +0.000 A 
ATOM     19  C   UNL     1       2.269   5.432  19.430  0.00  0.00    +0.000 A 
ATOM     20  C   UNL     1       2.224   4.288  20.188  0.00  0.00    +0.000 A 
ATOM     21  C   UNL     1       3.253   3.406  20.195  0.00  0.00    +0.000 A 
ATOM     22  C   UNL     1       4.394   3.630  19.453  0.00  0.00    +0.000 A 
ATOM     23  C   UNL     1       4.542   4.805  18.659  0.00  0.00    +0.000 A 
ATOM     24  O   UNL     1       3.022   2.334  21.002  0.00  0.00    +0.000 OA
ATOM     25  C   UNL     1       1.728   2.680  21.539  0.00  0.00    +0.000 C 
ATOM     26  O   UNL     1       1.199   3.908  20.995  0.00  0.00    +0.000 OA
BRANCH  23  27
ATOM     27  N   UNL     1       5.783   4.958  18.019  0.00  0.00    +0.000 N 
ATOM     28  C   UNL     1       6.001   4.538  16.625  0.00  0.00    +0.000 C 
ATOM     29  C   UNL     1       6.855   5.808  18.525  0.00  0.00    +0.000 C 
ENDBRANCH  23  27
ENDBRANCH  16  18
ENDBRANCH   2  16
TORSDOF 8
ENDMDL
MODEL 3
REMARK VINA RESULT:      -8.0      0.987      1.145
REMARK  Name = 
REMARK  11 active torsions:
REMARK  status: ('A' for Active; 'I' for Inactive)
REMARK    1  A    between atoms: C_2  and  C_3
REMARK    2  A    between atoms: C_3  and  C_4
REMARK    3  A    between atoms: C_6  and  C_7
REMARK    4  A    between atoms: C_8  and  C_9
REMARK    5  A    between atoms: C_9  and  C_11
REMARK    6  A    between atoms: C_16  and  N_17
REMARK    7  A    between atoms: N_17  and  C_18
REMARK    8  A    between atoms: N_17  and  C_19
REMARK    9  A    between atoms: C_23  and  O_24
REMARK   10  A    between atoms: O_24  and  C_25
REMARK   11  A    between atoms: C_27  and  O_28
REMARK                            x       y       z     vdW  Elec       q    Type
REMARK                         _______ _______ _______ _____ _____    ______ ____
ROOT
ATOM      1  C   UNL     1       3.109   7.578  17.934  0.00  0.00    +0.000 C 
ATOM      2  C   UNL     1       1.891   8.123  17.767  0.00  0.00    +0.000 C 
ENDROOT
BRANCH   1   5
ATOM      3  C   UNL     1       2.500   3.832  18.162  0.00  0.00    +0.000 A 
ATOM      4  C   UNL     1       2.363   5.235  18.270  0.00  0.00    +0.000 A 
ATOM      5  C   UNL     1       3.386   6.126  17.864  0.00  0.00    +0.000 A 
ATOM      6  C   UNL     1       4.591   5.572  17.383  0.00  0.00    +0.000 A 
ATOM      7  C   UNL     1       4.742   4.174  17.329  0.00  0.00    +0.000 A 
ATOM      8  C   UNL     1       3.712   3.321  17.704  0.00  0.00    +0.000 A 
BRANCH   6   9
ATOM      9  O   UNL     1       5.734   6.184  16.945  0.00  0.00    +0.000 OA
ATOM     10  C   UNL     1       6.777   5.435  16.351  0.00  0.00    +0.000 C 
ENDBRANCH   6   9
BRANCH   8  11
ATOM     11  O   UNL     1       3.875   1.967  17.602  0.00  0.00    +0.000 OA
ATOM     12  H   UNL     1       4.567   1.783  16.944  0.00  0.00    +0.000 HD
ENDBRANCH   8  11
BRANCH   3  13
ATOM     13  C   UNL     1       1.346   2.908  18.489  0.00  0.00    +0.000 C 
BRANCH  13  15
ATOM     14  C   UNL     1       1.329   3.193  20.984  0.00  0.00    +0.000 C 
ATOM     15  C   UNL     1       1.349   2.402  19.903  0.00  0.00    +0.000 C 
ENDBRANCH  13  15
ENDBRANCH   3  13
ENDBRANCH   1   5
BRANCH   2  16
ATOM     16  C   UNL     1       1.645   9.589  18.065  0.00  0.00    +0.000 C 
ATOM     17  O   UNL     1       2.186  10.437  17.363  0.00  0.00    +0.000 OA
BRANCH  16  18
ATOM     18  C   UNL     1       0.826   9.960  19.293  0.00  0.00    +0.000 A 
ATOM     19  C   UNL     1       1.236   9.295  20.483  0.00  0.00    +0.000 A 
ATOM     20  C   UNL     1       0.585   9.546  21.666  0.00  0.00    +0.000 A 
ATOM     21  C   UNL     1      -0.414  10.458  21.741  0.00  0.00    +0.000 A 
ATOM     22  C   UNL     1      -0.828  11.162  20.629  0.00  0.00    +0.000 A 
ATOM     23  C   UNL     1      -0.231  10.947  19.353  0.00  0.00    +0.000 A 
ATOM     24  O   UNL     1      -0.932  10.569  22.995  0.00  0.00    +0.000 OA
ATOM     25  C   UNL     1      -0.157   9.571  23.692  0.00  0.00    +0.000 C 
ATOM     26  O   UNL     1       0.836   8.940  22.857  0.00  0.00    +0.000 OA
BRANCH  23  27
ATOM     27  N   UNL     1      -0.797  11.661  18.284  0.00  0.00    +0.000 N 
ATOM     28  C   UNL     1      -1.863  11.093  17.442  0.00  0.00    +0.000 C 
ATOM     29  C   UNL     1      -0.636  13.098  18.096  0.00  0.00    +0.000 C 
ENDBRANCH  23  27
ENDBRANCH  16  18
ENDBRANCH   2  16
TORSDOF 8
ENDMDL
MODEL 4
REMARK VINA RESULT:      -8.0      2.300      2.753
REMARK  Name = 
REMARK  11 active torsions:
REMARK  status: ('A' for Active; 'I' for Inactive)
REMARK    1  A    between atoms: C_2  and  C_3
REMARK    2  A    between atoms: C_3  and  C_4
REMARK    3  A    between atoms: C_6  and  C_7
REMARK    4  A    between atoms: C_8  and  C_9
REMARK    5  A    between atoms: C_9  and  C_11
REMARK    6  A    between atoms: C_16  and  N_17
REMARK    7  A    between atoms: N_17  and  C_18
REMARK    8  A    between atoms: N_17  and  C_19
REMARK    9  A    between atoms: C_23  and  O_24
REMARK   10  A    between atoms: O_24  and  C_25
REMARK   11  A    between atoms: C_27  and  O_28
REMARK                            x       y       z     vdW  Elec       q    Type
REMARK                         _______ _______ _______ _____ _____    ______ ____
ROOT
ATOM      1  C   UNL     1       2.993   8.082  17.694  0.00  0.00    +0.000 C 
ATOM      2  C   UNL     1       1.793   8.611  17.995  0.00  0.00    +0.000 C 
ENDROOT
BRANCH   1   5
ATOM      3  C   UNL     1       2.500   4.369  18.340  0.00  0.00    +0.000 A 
ATOM      4  C   UNL     1       2.303   5.766  18.256  0.00  0.00    +0.000 A 
ATOM      5  C   UNL     1       3.327   6.648  17.835  0.00  0.00    +0.000 A 
ATOM      6  C   UNL     1       4.592   6.097  17.538  0.00  0.00    +0.000 A 
ATOM      7  C   UNL     1       4.798   4.712  17.677  0.00  0.00    +0.000 A 
ATOM      8  C   UNL     1       3.768   3.864  18.062  0.00  0.00    +0.000 A 
BRANCH   6   9
ATOM      9  O   UNL     1       5.749   6.705  17.131  0.00  0.00    +0.000 OA
ATOM     10  C   UNL     1       6.965   5.983  17.070  0.00  0.00    +0.000 C 
ENDBRANCH   6   9
BRANCH   8  11
ATOM     11  O   UNL     1       3.989   2.517  18.149  0.00  0.00    +0.000 OA
ATOM     12  H   UNL     1       4.945   2.351  18.078  0.00  0.00    +0.000 HD
ENDBRANCH   8  11
BRANCH   3  13
ATOM     13  C   UNL     1       1.354   3.438  18.677  0.00  0.00    +0.000 C 
BRANCH  13  15
ATOM     14  C   UNL     1       1.535   3.064  21.154  0.00  0.00    +0.000 C 
ATOM     15  C   UNL     1       0.872   3.549  20.095  0.00  0.00    +0.000 C 
ENDBRANCH  13  15
ENDBRANCH   3  13
ENDBRANCH   1   5
BRANCH   2  16
ATOM     16  C   UNL     1       1.590  10.113  18.032  0.00  0.00    +0.000 C 
ATOM     17  O   UNL     1       2.572  10.846  17.976  0.00  0.00    +0.000 OA
BRANCH  16  18
ATOM     18  C   UNL     1       0.187  10.658  18.251  0.00  0.00    +0.000 A 
ATOM     19  C   UNL     1      -0.843   9.830  17.723  0.00  0.00    +0.000 A 
ATOM     20  C   UNL     1      -2.158  10.203  17.860  0.00  0.00    +0.000 A 
ATOM     21  C   UNL     1      -2.507  11.324  18.536  0.00  0.00    +0.000 A 
ATOM     22  C   UNL     1      -1.554  12.144  19.104  0.00  0.00    +0.000 A 
ATOM     23  C   UNL     1      -0.163  11.854  18.988  0.00  0.00    +0.000 A 
ATOM     24  O   UNL     1      -3.853  11.522  18.567  0.00  0.00    +0.000 OA
ATOM     25  C   UNL     1      -4.305  10.401  17.779  0.00  0.00    +0.000 C 
ATOM     26  O   UNL     1      -3.230   9.536  17.356  0.00  0.00    +0.000 OA
BRANCH  23  27
ATOM     27  N   UNL     1       0.709  12.810  19.534  0.00  0.00    +0.000 N 
ATOM     28  C   UNL     1       0.835  14.165  18.970  0.00  0.00    +0.000 C 
ATOM     29  C   UNL     1       1.319  12.690  20.852  0.00  0.00    +0.000 C 
ENDBRANCH  23  27
ENDBRANCH  16  18
ENDBRANCH   2  16
TORSDOF 8
ENDMDL
MODEL 5
REMARK VINA RESULT:      -7.9      2.376      3.082
REMARK  Name = 
REMARK  11 active torsions:
REMARK  status: ('A' for Active; 'I' for Inactive)
REMARK    1  A    between atoms: C_2  and  C_3
REMARK    2  A    between atoms: C_3  and  C_4
REMARK    3  A    between atoms: C_6  and  C_7
REMARK    4  A    between atoms: C_8  and  C_9
REMARK    5  A    between atoms: C_9  and  C_11
REMARK    6  A    between atoms: C_16  and  N_17
REMARK    7  A    between atoms: N_17  and  C_18
REMARK    8  A    between atoms: N_17  and  C_19
REMARK    9  A    between atoms: C_23  and  O_24
REMARK   10  A    between atoms: O_24  and  C_25
REMARK   11  A    between atoms: C_27  and  O_28
REMARK                            x       y       z     vdW  Elec       q    Type
REMARK                         _______ _______ _______ _____ _____    ______ ____
ROOT
ATOM      1  C   UNL     1       2.908   7.843  17.773  0.00  0.00    +0.000 C 
ATOM      2  C   UNL     1       1.670   8.334  17.962  0.00  0.00    +0.000 C 
ENDROOT
BRANCH   1   5
ATOM      3  C   UNL     1       2.439   4.098  18.232  0.00  0.00    +0.000 A 
ATOM      4  C   UNL     1       2.223   5.495  18.194  0.00  0.00    +0.000 A 
ATOM      5  C   UNL     1       3.258   6.409  17.877  0.00  0.00    +0.000 A 
ATOM      6  C   UNL     1       4.548   5.890  17.642  0.00  0.00    +0.000 A 
ATOM      7  C   UNL     1       4.769   4.504  17.736  0.00  0.00    +0.000 A 
ATOM      8  C   UNL     1       3.731   3.624  18.018  0.00  0.00    +0.000 A 
BRANCH   6   9
ATOM      9  O   UNL     1       5.718   6.531  17.337  0.00  0.00    +0.000 OA
ATOM     10  C   UNL     1       6.927   6.183  17.984  0.00  0.00    +0.000 C 
ENDBRANCH   6   9
BRANCH   8  11
ATOM     11  O   UNL     1       3.970   2.278  18.063  0.00  0.00    +0.000 OA
ATOM     12  H   UNL     1       3.197   1.836  18.453  0.00  0.00    +0.000 HD
ENDBRANCH   8  11
BRANCH   3  13
ATOM     13  C   UNL     1       1.290   3.137  18.455  0.00  0.00    +0.000 C 
BRANCH  13  15
ATOM     14  C   UNL     1       1.582   3.334  20.941  0.00  0.00    +0.000 C 
ATOM     15  C   UNL     1       0.811   3.074  19.877  0.00  0.00    +0.000 C 
ENDBRANCH  13  15
ENDBRANCH   3  13
ENDBRANCH   1   5
BRANCH   2  16
ATOM     16  C   UNL     1       1.429   9.828  18.054  0.00  0.00    +0.000 C 
ATOM     17  O   UNL     1       2.390  10.589  17.995  0.00  0.00    +0.000 OA
BRANCH  16  18
ATOM     18  C   UNL     1       0.019  10.328  18.329  0.00  0.00    +0.000 A 
ATOM     19  C   UNL     1      -0.911  10.029  17.294  0.00  0.00    +0.000 A 
ATOM     20  C   UNL     1      -2.223  10.418  17.419  0.00  0.00    +0.000 A 
ATOM     21  C   UNL     1      -2.671  11.039  18.537  0.00  0.00    +0.000 A 
ATOM     22  C   UNL     1      -1.824  11.319  19.589  0.00  0.00    +0.000 A 
ATOM     23  C   UNL     1      -0.440  10.980  19.537  0.00  0.00    +0.000 A 
ATOM     24  O   UNL     1      -3.997  11.342  18.475  0.00  0.00    +0.000 OA
ATOM     25  C   UNL     1      -4.316  10.869  17.150  0.00  0.00    +0.000 C 
ATOM     26  O   UNL     1      -3.196  10.247  16.486  0.00  0.00    +0.000 OA
BRANCH  23  27
ATOM     27  N   UNL     1       0.334  11.395  20.633  0.00  0.00    +0.000 N 
ATOM     28  C   UNL     1       0.723  10.470  21.710  0.00  0.00    +0.000 C 
ATOM     29  C   UNL     1       1.081  12.647  20.668  0.00  0.00    +0.000 C 
ENDBRANCH  23  27
ENDBRANCH  16  18
ENDBRANCH   2  16
TORSDOF 8
ENDMDL
MODEL 6
REMARK VINA RESULT:      -7.8      2.222      4.439
REMARK  Name = 
REMARK  11 active torsions:
REMARK  status: ('A' for Active; 'I' for Inactive)
REMARK    1  A    between atoms: C_2  and  C_3
REMARK    2  A    between atoms: C_3  and  C_4
REMARK    3  A    between atoms: C_6  and  C_7
REMARK    4  A    between atoms: C_8  and  C_9
REMARK    5  A    between atoms: C_9  and  C_11
REMARK    6  A    between atoms: C_16  and  N_17
REMARK    7  A    between atoms: N_17  and  C_18
REMARK    8  A    between atoms: N_17  and  C_19
REMARK    9  A    between atoms: C_23  and  O_24
REMARK   10  A    between atoms: O_24  and  C_25
REMARK   11  A    between atoms: C_27  and  O_28
REMARK                            x       y       z     vdW  Elec       q    Type
REMARK                         _______ _______ _______ _____ _____    ______ ____
ROOT
ATOM      1  C   UNL     1       2.294   7.663  18.383  0.00  0.00    +0.000 C 
ATOM      2  C   UNL     1       2.118   8.828  17.735  0.00  0.00    +0.000 C 
ENDROOT
BRANCH   1   5
ATOM      3  C   UNL     1       5.439   5.908  17.167  0.00  0.00    +0.000 A 
ATOM      4  C   UNL     1       4.502   6.894  17.554  0.00  0.00    +0.000 A 
ATOM      5  C   UNL     1       3.169   6.570  17.904  0.00  0.00    +0.000 A 
ATOM      6  C   UNL     1       2.771   5.219  17.812  0.00  0.00    +0.000 A 
ATOM      7  C   UNL     1       3.693   4.251  17.373  0.00  0.00    +0.000 A 
ATOM      8  C   UNL     1       5.005   4.589  17.065  0.00  0.00    +0.000 A 
BRANCH   6   9
ATOM      9  O   UNL     1       1.562   4.633  18.068  0.00  0.00    +0.000 OA
ATOM     10  C   UNL     1       1.479   3.443  18.828  0.00  0.00    +0.000 C 
ENDBRANCH   6   9
BRANCH   8  11
ATOM     11  O   UNL     1       5.887   3.617  16.679  0.00  0.00    +0.000 OA
ATOM     12  H   UNL     1       6.496   3.437  17.416  0.00  0.00    +0.000 HD
ENDBRANCH   8  11
BRANCH   3  13
ATOM     13  C   UNL     1       6.889   6.266  16.914  0.00  0.00    +0.000 C 
BRANCH  13  15
ATOM     14  C   UNL     1       7.830   5.827  19.200  0.00  0.00    +0.000 C 
ATOM     15  C   UNL     1       7.651   6.641  18.152  0.00  0.00    +0.000 C 
ENDBRANCH  13  15
ENDBRANCH   3  13
ENDBRANCH   1   5
BRANCH   2  16
ATOM     16  C   UNL     1       1.046   9.808  18.169  0.00  0.00    +0.000 C 
ATOM     17  O   UNL     1      -0.115   9.609  17.823  0.00  0.00    +0.000 OA
BRANCH  16  18
ATOM     18  C   UNL     1       1.459  11.063  18.923  0.00  0.00    +0.000 A 
ATOM     19  C   UNL     1       2.200  11.990  18.137  0.00  0.00    +0.000 A 
ATOM     20  C   UNL     1       2.628  13.170  18.694  0.00  0.00    +0.000 A 
ATOM     21  C   UNL     1       2.317  13.502  19.971  0.00  0.00    +0.000 A 
ATOM     22  C   UNL     1       1.568  12.660  20.768  0.00  0.00    +0.000 A 
ATOM     23  C   UNL     1       1.105  11.401  20.285  0.00  0.00    +0.000 A 
ATOM     24  O   UNL     1       2.827  14.708  20.341  0.00  0.00    +0.000 OA
ATOM     25  C   UNL     1       3.541  15.074  19.142  0.00  0.00    +0.000 C 
ATOM     26  O   UNL     1       3.388  14.113  18.076  0.00  0.00    +0.000 OA
BRANCH  23  27
ATOM     27  N   UNL     1       0.428  10.599  21.218  0.00  0.00    +0.000 N 
ATOM     28  C   UNL     1       1.031   9.383  21.787  0.00  0.00    +0.000 C 
ATOM     29  C   UNL     1      -0.761  11.031  21.944  0.00  0.00    +0.000 C 
ENDBRANCH  23  27
ENDBRANCH  16  18
ENDBRANCH   2  16
TORSDOF 8
ENDMDL
MODEL 7
REMARK VINA RESULT:      -7.8      2.439      3.193
REMARK  Name = 
REMARK  11 active torsions:
REMARK  status: ('A' for Active; 'I' for Inactive)
REMARK    1  A    between atoms: C_2  and  C_3
REMARK    2  A    between atoms: C_3  and  C_4
REMARK    3  A    between atoms: C_6  and  C_7
REMARK    4  A    between atoms: C_8  and  C_9
REMARK    5  A    between atoms: C_9  and  C_11
REMARK    6  A    between atoms: C_16  and  N_17
REMARK    7  A    between atoms: N_17  and  C_18
REMARK    8  A    between atoms: N_17  and  C_19
REMARK    9  A    between atoms: C_23  and  O_24
REMARK   10  A    between atoms: O_24  and  C_25
REMARK   11  A    between atoms: C_27  and  O_28
REMARK                            x       y       z     vdW  Elec       q    Type
REMARK                         _______ _______ _______ _____ _____    ______ ____
ROOT
ATOM      1  C   UNL     1       3.077   7.535  17.846  0.00  0.00    +0.000 C 
ATOM      2  C   UNL     1       2.061   8.189  18.437  0.00  0.00    +0.000 C 
ENDROOT
BRANCH   1   5
ATOM      3  C   UNL     1       3.296   4.245  19.738  0.00  0.00    +0.000 A 
ATOM      4  C   UNL     1       2.883   5.515  19.274  0.00  0.00    +0.000 A 
ATOM      5  C   UNL     1       3.641   6.258  18.337  0.00  0.00    +0.000 A 
ATOM      6  C   UNL     1       4.868   5.714  17.901  0.00  0.00    +0.000 A 
ATOM      7  C   UNL     1       5.300   4.475  18.408  0.00  0.00    +0.000 A 
ATOM      8  C   UNL     1       4.523   3.751  19.303  0.00  0.00    +0.000 A 
BRANCH   6   9
ATOM      9  O   UNL     1       5.796   6.213  17.027  0.00  0.00    +0.000 OA
ATOM     10  C   UNL     1       6.983   6.821  17.499  0.00  0.00    +0.000 C 
ENDBRANCH   6   9
BRANCH   8  11
ATOM     11  O   UNL     1       4.953   2.530  19.747  0.00  0.00    +0.000 OA
ATOM     12  H   UNL     1       5.591   2.666  20.469  0.00  0.00    +0.000 HD
ENDBRANCH   8  11
BRANCH   3  13
ATOM     13  C   UNL     1       2.409   3.420  20.646  0.00  0.00    +0.000 C 
BRANCH  13  15
ATOM     14  C   UNL     1       0.774   2.417  19.026  0.00  0.00    +0.000 C 
ATOM     15  C   UNL     1       1.032   3.175  20.100  0.00  0.00    +0.000 C 
ENDBRANCH  13  15
ENDBRANCH   3  13
ENDBRANCH   1   5
BRANCH   2  16
ATOM     16  C   UNL     1       1.682   9.592  18.008  0.00  0.00    +0.000 C 
ATOM     17  O   UNL     1       2.543  10.316  17.518  0.00  0.00    +0.000 OA
BRANCH  16  18
ATOM     18  C   UNL     1       0.276  10.094  18.301  0.00  0.00    +0.000 A 
ATOM     19  C   UNL     1      -0.660   9.825  17.263  0.00  0.00    +0.000 A 
ATOM     20  C   UNL     1      -1.969  10.219  17.404  0.00  0.00    +0.000 A 
ATOM     21  C   UNL     1      -2.408  10.816  18.538  0.00  0.00    +0.000 A 
ATOM     22  C   UNL     1      -1.555  11.067  19.593  0.00  0.00    +0.000 A 
ATOM     23  C   UNL     1      -0.174  10.720  19.526  0.00  0.00    +0.000 A 
ATOM     24  O   UNL     1      -3.732  11.128  18.490  0.00  0.00    +0.000 OA
ATOM     25  C   UNL     1      -4.060  10.689  17.155  0.00  0.00    +0.000 C 
ATOM     26  O   UNL     1      -2.948  10.076  16.471  0.00  0.00    +0.000 OA
BRANCH  23  27
ATOM     27  N   UNL     1       0.608  11.105  20.628  0.00  0.00    +0.000 N 
ATOM     28  C   UNL     1       1.083  12.487  20.805  0.00  0.00    +0.000 C 
ATOM     29  C   UNL     1       0.758  10.299  21.834  0.00  0.00    +0.000 C 
ENDBRANCH  23  27
ENDBRANCH  16  18
ENDBRANCH   2  16
TORSDOF 8
ENDMDL
MODEL 8
REMARK VINA RESULT:      -7.7      1.837      2.756
REMARK  Name = 
REMARK  11 active torsions:
REMARK  status: ('A' for Active; 'I' for Inactive)
REMARK    1  A    between atoms: C_2  and  C_3
REMARK    2  A    between atoms: C_3  and  C_4
REMARK    3  A    between atoms: C_6  and  C_7
REMARK    4  A    between atoms: C_8  and  C_9
REMARK    5  A    between atoms: C_9  and  C_11
REMARK    6  A    between atoms: C_16  and  N_17
REMARK    7  A    between atoms: N_17  and  C_18
REMARK    8  A    between atoms: N_17  and  C_19
REMARK    9  A    between atoms: C_23  and  O_24
REMARK   10  A    between atoms: O_24  and  C_25
REMARK   11  A    between atoms: C_27  and  O_28
REMARK                            x       y       z     vdW  Elec       q    Type
REMARK                         _______ _______ _______ _____ _____    ______ ____
ROOT
ATOM      1  C   UNL     1       1.937   7.905  20.225  0.00  0.00    +0.000 C 
ATOM      2  C   UNL     1       1.066   8.100  21.232  0.00  0.00    +0.000 C 
ENDROOT
BRANCH   1   5
ATOM      3  C   UNL     1       1.602   4.191  19.487  0.00  0.00    +0.000 A 
ATOM      4  C   UNL     1       1.528   5.461  20.104  0.00  0.00    +0.000 A 
ATOM      5  C   UNL     1       2.150   6.605  19.550  0.00  0.00    +0.000 A 
ATOM      6  C   UNL     1       2.903   6.441  18.368  0.00  0.00    +0.000 A 
ATOM      7  C   UNL     1       3.018   5.165  17.788  0.00  0.00    +0.000 A 
ATOM      8  C   UNL     1       2.372   4.062  18.334  0.00  0.00    +0.000 A 
BRANCH   6   9
ATOM      9  O   UNL     1       3.611   7.355  17.635  0.00  0.00    +0.000 OA
ATOM     10  C   UNL     1       4.780   6.974  16.935  0.00  0.00    +0.000 C 
ENDBRANCH   6   9
BRANCH   8  11
ATOM     11  O   UNL     1       2.471   2.842  17.724  0.00  0.00    +0.000 OA
ATOM     12  H   UNL     1       3.343   2.460  17.925  0.00  0.00    +0.000 HD
ENDBRANCH   8  11
BRANCH   3  13
ATOM     13  C   UNL     1       0.828   3.010  20.035  0.00  0.00    +0.000 C 
BRANCH  13  15
ATOM     14  C   UNL     1       2.597   2.504  21.744  0.00  0.00    +0.000 C 
ATOM     15  C   UNL     1       1.309   2.531  21.374  0.00  0.00    +0.000 C 
ENDBRANCH  13  15
ENDBRANCH   3  13
ENDBRANCH   1   5
BRANCH   2  16
ATOM     16  C   UNL     1       1.058   9.397  22.015  0.00  0.00    +0.000 C 
ATOM     17  O   UNL     1       1.887   9.558  22.906  0.00  0.00    +0.000 OA
BRANCH  16  18
ATOM     18  C   UNL     1      -0.047  10.408  21.748  0.00  0.00    +0.000 A 
ATOM     19  C   UNL     1      -0.850  10.700  22.886  0.00  0.00    +0.000 A 
ATOM     20  C   UNL     1      -1.879  11.604  22.784  0.00  0.00    +0.000 A 
ATOM     21  C   UNL     1      -2.120  12.272  21.630  0.00  0.00    +0.000 A 
ATOM     22  C   UNL     1      -1.349  12.060  20.506  0.00  0.00    +0.000 A 
ATOM     23  C   UNL     1      -0.278  11.119  20.508  0.00  0.00    +0.000 A 
ATOM     24  O   UNL     1      -3.176  13.125  21.726  0.00  0.00    +0.000 OA
ATOM     25  C   UNL     1      -3.599  12.872  23.082  0.00  0.00    +0.000 C 
ATOM     26  O   UNL     1      -2.754  11.929  23.773  0.00  0.00    +0.000 OA
BRANCH  23  27
ATOM     27  N   UNL     1       0.375  10.931  19.279  0.00  0.00    +0.000 N 
ATOM     28  C   UNL     1      -0.218  10.135  18.192  0.00  0.00    +0.000 C 
ATOM     29  C   UNL     1       1.511  11.732  18.836  0.00  0.00    +0.000 C 
ENDBRANCH  23  27
ENDBRANCH  16  18
ENDBRANCH   2  16
TORSDOF 8
ENDMDL
MODEL 9
REMARK VINA RESULT:      -7.7      2.868      7.834
REMARK  Name = 
REMARK  11 active torsions:
REMARK  status: ('A' for Active; 'I' for Inactive)
REMARK    1  A    between atoms: C_2  and  C_3
REMARK    2  A    between atoms: C_3  and  C_4
REMARK    3  A    between atoms: C_6  and  C_7
REMARK    4  A    between atoms: C_8  and  C_9
REMARK    5  A    between atoms: C_9  and  C_11
REMARK    6  A    between atoms: C_16  and  N_17
REMARK    7  A    between atoms: N_17  and  C_18
REMARK    8  A    between atoms: N_17  and  C_19
REMARK    9  A    between atoms: C_23  and  O_24
REMARK   10  A    between atoms: O_24  and  C_25
REMARK   11  A    between atoms: C_27  and  O_28
REMARK                            x       y       z     vdW  Elec       q    Type
REMARK                         _______ _______ _______ _____ _____    ______ ____
ROOT
ATOM      1  C   UNL     1       1.748   8.881  19.223  0.00  0.00    +0.000 C 
ATOM      2  C   UNL     1       1.804   7.958  18.247  0.00  0.00    +0.000 C 
ENDROOT
BRANCH   1   5
ATOM      3  C   UNL     1      -1.300  10.983  18.363  0.00  0.00    +0.000 A 
ATOM      4  C   UNL     1      -0.160  10.151  18.274  0.00  0.00    +0.000 A 
ATOM      5  C   UNL     1       0.630   9.833  19.405  0.00  0.00    +0.000 A 
ATOM      6  C   UNL     1       0.278  10.413  20.642  0.00  0.00    +0.000 A 
ATOM      7  C   UNL     1      -0.825  11.284  20.713  0.00  0.00    +0.000 A 
ATOM      8  C   UNL     1      -1.604  11.557  19.595  0.00  0.00    +0.000 A 
BRANCH   6   9
ATOM      9  O   UNL     1       0.862  10.295  21.874  0.00  0.00    +0.000 OA
ATOM     10  C   UNL     1       0.228   9.573  22.912  0.00  0.00    +0.000 C 
ENDBRANCH   6   9
BRANCH   8  11
ATOM     11  O   UNL     1      -2.693  12.376  19.705  0.00  0.00    +0.000 OA
ATOM     12  H   UNL     1      -3.082  12.501  18.822  0.00  0.00    +0.000 HD
ENDBRANCH   8  11
BRANCH   3  13
ATOM     13  C   UNL     1      -2.195  11.210  17.163  0.00  0.00    +0.000 C 
BRANCH  13  15
ATOM     14  C   UNL     1      -2.850   9.895  15.127  0.00  0.00    +0.000 C 
ATOM     15  C   UNL     1      -2.576   9.952  16.437  0.00  0.00    +0.000 C 
ENDBRANCH  13  15
ENDBRANCH   3  13
ENDBRANCH   1   5
BRANCH   2  16
ATOM     16  C   UNL     1       3.072   7.167  17.992  0.00  0.00    +0.000 C 
ATOM     17  O   UNL     1       3.857   7.564  17.136  0.00  0.00    +0.000 OA
BRANCH  16  18
ATOM     18  C   UNL     1       3.275   5.850  18.725  0.00  0.00    +0.000 A 
ATOM     19  C   UNL     1       2.177   5.471  19.547  0.00  0.00    +0.000 A 
ATOM     20  C   UNL     1       2.227   4.298  20.259  0.00  0.00    +0.000 A 
ATOM     21  C   UNL     1       3.284   3.456  20.158  0.00  0.00    +0.000 A 
ATOM     22  C   UNL     1       4.359   3.751  19.346  0.00  0.00    +0.000 A 
ATOM     23  C   UNL     1       4.409   4.960  18.592  0.00  0.00    +0.000 A 
ATOM     24  O   UNL     1       3.149   2.346  20.934  0.00  0.00    +0.000 OA
ATOM     25  C   UNL     1       1.886   2.622  21.575  0.00  0.00    +0.000 C 
ATOM     26  O   UNL     1       1.277   3.849  21.121  0.00  0.00    +0.000 OA
BRANCH  23  27
ATOM     27  N   UNL     1       5.594   5.184  17.872  0.00  0.00    +0.000 N 
ATOM     28  C   UNL     1       6.803   5.732  18.508  0.00  0.00    +0.000 C 
ATOM     29  C   UNL     1       5.856   4.624  16.551  0.00  0.00    +0.000 C 
ENDBRANCH  23  27
ENDBRANCH  16  18
ENDBRANCH   2  16
TORSDOF 8
ENDMDL
