MODEL 1
REMARK VINA RESULT:      -5.9      0.000      0.000
REMARK  Name = 
REMARK  2 active torsions:
REMARK  status: ('A' for Active; 'I' for Inactive)
REMARK    1  A    between atoms: N_2  and  C_4
REMARK    2  A    between atoms: C_7  and  C_8
REMARK                            x       y       z     vdW  Elec       q    Type
REMARK                         _______ _______ _______ _____ _____    ______ ____
ROOT
ATOM      1  C   UNL     1       5.965   4.527  17.899  0.00  0.00    +0.000 A 
ATOM      2  C   UNL     1       5.157   3.998  16.885  0.00  0.00    +0.000 A 
ATOM      3  C   UNL     1       3.773   3.954  17.062  0.00  0.00    +0.000 A 
ATOM      4  C   UNL     1       3.187   4.431  18.246  0.00  0.00    +0.000 A 
ATOM      5  C   UNL     1       4.010   4.960  19.254  0.00  0.00    +0.000 A 
ATOM      6  C   UNL     1       5.397   5.005  19.087  0.00  0.00    +0.000 A 
ENDROOT
BRANCH   1   8
ATOM      7  O   UNL     1       8.127   4.720  18.716  0.00  0.00    +0.000 OA
ATOM      8  N   UNL     1       7.418   4.588  17.709  0.00  0.00    +0.000 N 
ATOM      9  O   UNL     1       7.852   4.497  16.551  0.00  0.00    +0.000 OA
ENDBRANCH   1   8
BRANCH   4  10
ATOM     10  C   UNL     1       1.687   4.408  18.410  0.00  0.00    +0.000 C 
ATOM     11  F   UNL     1       1.027   4.615  17.236  0.00  0.00    +0.000 F 
ATOM     12  F   UNL     1       1.222   3.224  18.893  0.00  0.00    +0.000 F 
ENDBRANCH   4  10
TORSDOF 2
ENDMDL
MODEL 2
REMARK VINA RESULT:      -5.8      0.871      1.813
REMARK  Name = 
REMARK  2 active torsions:
REMARK  status: ('A' for Active; 'I' for Inactive)
REMARK    1  A    between atoms: N_2  and  C_4
REMARK    2  A    between atoms: C_7  and  C_8
REMARK                            x       y       z     vdW  Elec       q    Type
REMARK                         _______ _______ _______ _____ _____    ______ ____
ROOT
ATOM      1  C   UNL     1       5.907   4.785  17.254  0.00  0.00    +0.000 A 
ATOM      2  C   UNL     1       5.401   5.422  18.394  0.00  0.00    +0.000 A 
ATOM      3  C   UNL     1       4.075   5.201  18.772  0.00  0.00    +0.000 A 
ATOM      4  C   UNL     1       3.247   4.353  18.019  0.00  0.00    +0.000 A 
ATOM      5  C   UNL     1       3.770   3.720  16.878  0.00  0.00    +0.000 A 
ATOM      6  C   UNL     1       5.095   3.937  16.490  0.00  0.00    +0.000 A 
ENDROOT
BRANCH   1   8
ATOM      7  O   UNL     1       8.157   4.226  17.312  0.00  0.00    +0.000 OA
ATOM      8  N   UNL     1       7.304   5.004  16.863  0.00  0.00    +0.000 N 
ATOM      9  O   UNL     1       7.548   5.950  16.101  0.00  0.00    +0.000 OA
ENDBRANCH   1   8
BRANCH   4  10
ATOM     10  C   UNL     1       1.827   4.097  18.458  0.00  0.00    +0.000 C 
ATOM     11  F   UNL     1       1.479   4.821  19.559  0.00  0.00    +0.000 F 
ATOM     12  F   UNL     1       0.909   4.412  17.504  0.00  0.00    +0.000 F 
ENDBRANCH   4  10
TORSDOF 2
ENDMDL
MODEL 3
REMARK VINA RESULT:      -5.8      3.322      4.388
REMARK  Name = 
REMARK  2 active torsions:
REMARK  status: ('A' for Active; 'I' for Inactive)
REMARK    1  A    between atoms: N_2  and  C_4
REMARK    2  A    between atoms: C_7  and  C_8
REMARK                            x       y       z     vdW  Elec       q    Type
REMARK                         _______ _______ _______ _____ _____    ______ ____
ROOT
ATOM      1  C   UNL     1       6.038   4.844  17.879  0.00  0.00    +0.000 A 
ATOM      2  C   UNL     1       7.249   4.928  17.182  0.00  0.00    +0.000 A 
ATOM      3  C   UNL     1       7.288   4.582  15.830  0.00  0.00    +0.000 A 
ATOM      4  C   UNL     1       6.127   4.147  15.168  0.00  0.00    +0.000 A 
ATOM      5  C   UNL     1       4.919   4.069  15.881  0.00  0.00    +0.000 A 
ATOM      6  C   UNL     1       4.871   4.411  17.236  0.00  0.00    +0.000 A 
ENDROOT
BRANCH   1   8
ATOM      7  O   UNL     1       4.879   5.403  19.809  0.00  0.00    +0.000 OA
ATOM      8  N   UNL     1       5.991   5.223  19.296  0.00  0.00    +0.000 N 
ATOM      9  O   UNL     1       7.069   5.333  19.898  0.00  0.00    +0.000 OA
ENDBRANCH   1   8
BRANCH   4  10
ATOM     10  C   UNL     1       6.177   3.807  13.698  0.00  0.00    +0.000 C 
ATOM     11  F   UNL     1       4.970   3.952  13.084  0.00  0.00    +0.000 F 
ATOM     12  F   UNL     1       7.043   4.591  13.000  0.00  0.00    +0.000 F 
ENDBRANCH   4  10
TORSDOF 2
ENDMDL
MODEL 4
REMARK VINA RESULT:      -5.8      0.912      1.109
REMARK  Name = 
REMARK  2 active torsions:
REMARK  status: ('A' for Active; 'I' for Inactive)
REMARK    1  A    between atoms: N_2  and  C_4
REMARK    2  A    between atoms: C_7  and  C_8
REMARK                            x       y       z     vdW  Elec       q    Type
REMARK                         _______ _______ _______ _____ _____    ______ ____
ROOT
ATOM      1  C   UNL     1       5.924   4.659  17.367  0.00  0.00    +0.000 A 
ATOM      2  C   UNL     1       4.947   4.100  16.534  0.00  0.00    +0.000 A 
ATOM      3  C   UNL     1       3.660   3.889  17.033  0.00  0.00    +0.000 A 
ATOM      4  C   UNL     1       3.341   4.226  18.359  0.00  0.00    +0.000 A 
ATOM      5  C   UNL     1       4.332   4.788  19.181  0.00  0.00    +0.000 A 
ATOM      6  C   UNL     1       5.624   5.001  18.692  0.00  0.00    +0.000 A 
ENDROOT
BRANCH   1   8
ATOM      7  O   UNL     1       8.197   4.204  17.285  0.00  0.00    +0.000 OA
ATOM      8  N   UNL     1       7.273   4.898  16.840  0.00  0.00    +0.000 N 
ATOM      9  O   UNL     1       7.407   5.776  15.976  0.00  0.00    +0.000 OA
ENDBRANCH   1   8
BRANCH   4  10
ATOM     10  C   UNL     1       1.937   4.023  18.873  0.00  0.00    +0.000 C 
ATOM     11  F   UNL     1       1.527   5.031  19.693  0.00  0.00    +0.000 F 
ATOM     12  F   UNL     1       1.010   3.955  17.879  0.00  0.00    +0.000 F 
ENDBRANCH   4  10
TORSDOF 2
ENDMDL
MODEL 5
REMARK VINA RESULT:      -5.7      1.184      1.479
REMARK  Name = 
REMARK  2 active torsions:
REMARK  status: ('A' for Active; 'I' for Inactive)
REMARK    1  A    between atoms: N_2  and  C_4
REMARK    2  A    between atoms: C_7  and  C_8
REMARK                            x       y       z     vdW  Elec       q    Type
REMARK                         _______ _______ _______ _____ _____    ______ ____
ROOT
ATOM      1  C   UNL     1       5.796   5.140  16.998  0.00  0.00    +0.000 A 
ATOM      2  C   UNL     1       5.162   4.000  16.488  0.00  0.00    +0.000 A 
ATOM      3  C   UNL     1       3.850   3.716  16.871  0.00  0.00    +0.000 A 
ATOM      4  C   UNL     1       3.165   4.558  17.764  0.00  0.00    +0.000 A 
ATOM      5  C   UNL     1       3.815   5.698  18.265  0.00  0.00    +0.000 A 
ATOM      6  C   UNL     1       5.129   5.990  17.890  0.00  0.00    +0.000 A 
ENDROOT
BRANCH   1   8
ATOM      7  O   UNL     1       7.505   6.641  16.543  0.00  0.00    +0.000 OA
ATOM      8  N   UNL     1       7.169   5.450  16.585  0.00  0.00    +0.000 N 
ATOM      9  O   UNL     1       7.916   4.499  16.308  0.00  0.00    +0.000 OA
ENDBRANCH   1   8
BRANCH   4  10
ATOM     10  C   UNL     1       1.736   4.256  18.142  0.00  0.00    +0.000 C 
ATOM     11  F   UNL     1       1.355   4.877  19.293  0.00  0.00    +0.000 F 
ATOM     12  F   UNL     1       0.840   4.648  17.196  0.00  0.00    +0.000 F 
ENDBRANCH   4  10
TORSDOF 2
ENDMDL
MODEL 6
REMARK VINA RESULT:      -5.7      3.392      4.412
REMARK  Name = 
REMARK  2 active torsions:
REMARK  status: ('A' for Active; 'I' for Inactive)
REMARK    1  A    between atoms: N_2  and  C_4
REMARK    2  A    between atoms: C_7  and  C_8
REMARK                            x       y       z     vdW  Elec       q    Type
REMARK                         _______ _______ _______ _____ _____    ______ ____
ROOT
ATOM      1  C   UNL     1       5.941   4.896  17.771  0.00  0.00    +0.000 A 
ATOM      2  C   UNL     1       4.835   4.329  17.124  0.00  0.00    +0.000 A 
ATOM      3  C   UNL     1       4.933   3.984  15.775  0.00  0.00    +0.000 A 
ATOM      4  C   UNL     1       6.123   4.204  15.063  0.00  0.00    +0.000 A 
ATOM      5  C   UNL     1       7.224   4.772  15.726  0.00  0.00    +0.000 A 
ATOM      6  C   UNL     1       7.135   5.124  17.076  0.00  0.00    +0.000 A 
ENDROOT
BRANCH   1   8
ATOM      7  O   UNL     1       4.719   5.446  19.664  0.00  0.00    +0.000 OA
ATOM      8  N   UNL     1       5.846   5.245  19.193  0.00  0.00    +0.000 N 
ATOM      9  O   UNL     1       6.901   5.312  19.841  0.00  0.00    +0.000 OA
ENDBRANCH   1   8
BRANCH   4  10
ATOM     10  C   UNL     1       6.225   3.795  13.614  0.00  0.00    +0.000 C 
ATOM     11  F   UNL     1       5.030   3.867  12.963  0.00  0.00    +0.000 F 
ATOM     12  F   UNL     1       7.083   4.573  12.900  0.00  0.00    +0.000 F 
ENDBRANCH   4  10
TORSDOF 2
ENDMDL
MODEL 7
REMARK VINA RESULT:      -5.7      1.578      2.106
REMARK  Name = 
REMARK  2 active torsions:
REMARK  status: ('A' for Active; 'I' for Inactive)
REMARK    1  A    between atoms: N_2  and  C_4
REMARK    2  A    between atoms: C_7  and  C_8
REMARK                            x       y       z     vdW  Elec       q    Type
REMARK                         _______ _______ _______ _____ _____    ______ ____
ROOT
ATOM      1  C   UNL     1       5.740   5.625  16.792  0.00  0.00    +0.000 A 
ATOM      2  C   UNL     1       4.802   6.460  17.412  0.00  0.00    +0.000 A 
ATOM      3  C   UNL     1       3.562   5.939  17.785  0.00  0.00    +0.000 A 
ATOM      4  C   UNL     1       3.247   4.591  17.542  0.00  0.00    +0.000 A 
ATOM      5  C   UNL     1       4.201   3.767  16.921  0.00  0.00    +0.000 A 
ATOM      6  C   UNL     1       5.443   4.280  16.540  0.00  0.00    +0.000 A 
ENDROOT
BRANCH   1   8
ATOM      7  O   UNL     1       7.659   5.611  15.489  0.00  0.00    +0.000 OA
ATOM      8  N   UNL     1       7.051   6.166  16.413  0.00  0.00    +0.000 N 
ATOM      9  O   UNL     1       7.469   7.153  17.037  0.00  0.00    +0.000 OA
ENDBRANCH   1   8
BRANCH   4  10
ATOM     10  C   UNL     1       1.916   4.034  17.981  0.00  0.00    +0.000 C 
ATOM     11  F   UNL     1       0.872   4.545  17.270  0.00  0.00    +0.000 F 
ATOM     12  F   UNL     1       1.832   2.683  17.842  0.00  0.00    +0.000 F 
ENDBRANCH   4  10
TORSDOF 2
ENDMDL
MODEL 8
REMARK VINA RESULT:      -5.6      1.004      1.903
REMARK  Name = 
REMARK  2 active torsions:
REMARK  status: ('A' for Active; 'I' for Inactive)
REMARK    1  A    between atoms: N_2  and  C_4
REMARK    2  A    between atoms: C_7  and  C_8
REMARK                            x       y       z     vdW  Elec       q    Type
REMARK                         _______ _______ _______ _____ _____    ______ ____
ROOT
ATOM      1  C   UNL     1       5.936   4.878  17.382  0.00  0.00    +0.000 A 
ATOM      2  C   UNL     1       5.809   5.294  18.713  0.00  0.00    +0.000 A 
ATOM      3  C   UNL     1       4.553   5.267  19.324  0.00  0.00    +0.000 A 
ATOM      4  C   UNL     1       3.421   4.831  18.615  0.00  0.00    +0.000 A 
ATOM      5  C   UNL     1       3.566   4.415  17.281  0.00  0.00    +0.000 A 
ATOM      6  C   UNL     1       4.818   4.442  16.660  0.00  0.00    +0.000 A 
ENDROOT
BRANCH   1   8
ATOM      7  O   UNL     1       7.401   5.585  15.728  0.00  0.00    +0.000 OA
ATOM      8  N   UNL     1       7.257   4.891  16.743  0.00  0.00    +0.000 N 
ATOM      9  O   UNL     1       8.154   4.211  17.263  0.00  0.00    +0.000 OA
ENDBRANCH   1   8
BRANCH   4  10
ATOM     10  C   UNL     1       2.077   4.775  19.298  0.00  0.00    +0.000 C 
ATOM     11  F   UNL     1       1.123   4.176  18.532  0.00  0.00    +0.000 F 
ATOM     12  F   UNL     1       2.103   4.080  20.468  0.00  0.00    +0.000 F 
ENDBRANCH   4  10
TORSDOF 2
ENDMDL
MODEL 9
REMARK VINA RESULT:      -5.6      1.025      2.045
REMARK  Name = 
REMARK  2 active torsions:
REMARK  status: ('A' for Active; 'I' for Inactive)
REMARK    1  A    between atoms: N_2  and  C_4
REMARK    2  A    between atoms: C_7  and  C_8
REMARK                            x       y       z     vdW  Elec       q    Type
REMARK                         _______ _______ _______ _____ _____    ______ ____
ROOT
ATOM      1  C   UNL     1       5.890   4.522  17.422  0.00  0.00    +0.000 A 
ATOM      2  C   UNL     1       5.642   4.488  18.799  0.00  0.00    +0.000 A 
ATOM      3  C   UNL     1       4.383   4.097  19.260  0.00  0.00    +0.000 A 
ATOM      4  C   UNL     1       3.367   3.743  18.357  0.00  0.00    +0.000 A 
ATOM      5  C   UNL     1       3.633   3.781  16.977  0.00  0.00    +0.000 A 
ATOM      6  C   UNL     1       4.888   4.174  16.506  0.00  0.00    +0.000 A 
ENDROOT
BRANCH   1   8
ATOM      7  O   UNL     1       7.294   5.929  16.226  0.00  0.00    +0.000 OA
ATOM      8  N   UNL     1       7.217   4.917  16.935  0.00  0.00    +0.000 N 
ATOM      9  O   UNL     1       8.184   4.218  17.269  0.00  0.00    +0.000 OA
ENDBRANCH   1   8
BRANCH   4  10
ATOM     10  C   UNL     1       2.022   3.291  18.870  0.00  0.00    +0.000 C 
ATOM     11  F   UNL     1       2.112   2.603  20.043  0.00  0.00    +0.000 F 
ATOM     12  F   UNL     1       1.169   4.323  19.112  0.00  0.00    +0.000 F 
ENDBRANCH   4  10
TORSDOF 2
ENDMDL
