MODEL 1
REMARK VINA RESULT:      -7.4      0.000      0.000
REMARK  Name = 
REMARK  3 active torsions:
REMARK  status: ('A' for Active; 'I' for Inactive)
REMARK    1  A    between atoms: C_5  and  C_6
REMARK    2  A    between atoms: C_6  and  S_7
REMARK    3  A    between atoms: S_7  and  C_8
REMARK                            x       y       z     vdW  Elec       q    Type
REMARK                         _______ _______ _______ _____ _____    ______ ____
ROOT
ATOM      1  S   UNL     1       4.097   3.956  16.995  0.00  0.00    +0.000 S 
ENDROOT
BRANCH   1   2
ATOM      2  C   UNL     1       4.056   3.275  18.591  0.00  0.00    +0.000 A 
ATOM      3  N   UNL     1       5.064   2.686  19.199  0.00  0.00    +0.000 NA
ATOM      4  N   UNL     1       4.637   2.289  20.446  0.00  0.00    +0.000 NA
ATOM      5  C   UNL     1       3.377   2.645  20.574  0.00  0.00    +0.000 A 
ATOM      6  C   UNL     1       2.442   2.498  21.636  0.00  0.00    +0.000 A 
ATOM      7  C   UNL     1       1.190   2.974  21.493  0.00  0.00    +0.000 A 
ATOM      8  C   UNL     1       0.768   3.633  20.268  0.00  0.00    +0.000 A 
ATOM      9  C   UNL     1       1.648   3.773  19.259  0.00  0.00    +0.000 A 
ATOM     10  N   UNL     1       2.948   3.282  19.412  0.00  0.00    +0.000 N 
ENDBRANCH   1   2
BRANCH   1  11
ATOM     11  C   UNL     1       5.896   3.977  16.690  0.00  0.00    +0.000 C 
BRANCH  11  16
ATOM     12 CL   UNL     1       8.664   8.959  18.727  0.00  0.00    +0.000 Cl
ATOM     13  C   UNL     1       7.862   7.552  18.146  0.00  0.00    +0.000 A 
ATOM     14  C   UNL     1       8.155   6.310  18.702  0.00  0.00    +0.000 A 
ATOM     15  C   UNL     1       7.505   5.166  18.228  0.00  0.00    +0.000 A 
ATOM     16  C   UNL     1       6.558   5.247  17.188  0.00  0.00    +0.000 A 
ATOM     17  C   UNL     1       6.274   6.515  16.649  0.00  0.00    +0.000 A 
ATOM     18 CL   UNL     1       5.129   6.730  15.374  0.00  0.00    +0.000 Cl
ATOM     19  C   UNL     1       6.926   7.660  17.123  0.00  0.00    +0.000 A 
ENDBRANCH  11  16
ENDBRANCH   1  11
TORSDOF 3
ENDMDL
MODEL 2
REMARK VINA RESULT:      -7.4      3.001      5.543
REMARK  Name = 
REMARK  3 active torsions:
REMARK  status: ('A' for Active; 'I' for Inactive)
REMARK    1  A    between atoms: C_5  and  C_6
REMARK    2  A    between atoms: C_6  and  S_7
REMARK    3  A    between atoms: S_7  and  C_8
REMARK                            x       y       z     vdW  Elec       q    Type
REMARK                         _______ _______ _______ _____ _____    ______ ____
ROOT
ATOM      1  S   UNL     1       3.536   2.412  18.093  0.00  0.00    +0.000 S 
ENDROOT
BRANCH   1   2
ATOM      2  C   UNL     1       4.792   3.546  18.481  0.00  0.00    +0.000 A 
ATOM      3  N   UNL     1       5.239   3.809  19.691  0.00  0.00    +0.000 NA
ATOM      4  N   UNL     1       6.234   4.754  19.582  0.00  0.00    +0.000 NA
ATOM      5  C   UNL     1       6.375   5.047  18.307  0.00  0.00    +0.000 A 
ATOM      6  C   UNL     1       7.243   5.938  17.618  0.00  0.00    +0.000 A 
ATOM      7  C   UNL     1       7.172   6.035  16.276  0.00  0.00    +0.000 A 
ATOM      8  C   UNL     1       6.220   5.247  15.511  0.00  0.00    +0.000 A 
ATOM      9  C   UNL     1       5.395   4.402  16.159  0.00  0.00    +0.000 A 
ATOM     10  N   UNL     1       5.473   4.302  17.551  0.00  0.00    +0.000 N 
ENDBRANCH   1   2
BRANCH   1  11
ATOM     11  C   UNL     1       2.191   3.554  17.626  0.00  0.00    +0.000 C 
BRANCH  11  16
ATOM     12 CL   UNL     1       1.668   8.332  21.303  0.00  0.00    +0.000 Cl
ATOM     13  C   UNL     1       1.822   6.964  20.272  0.00  0.00    +0.000 A 
ATOM     14  C   UNL     1       2.330   7.121  18.985  0.00  0.00    +0.000 A 
ATOM     15  C   UNL     1       2.452   6.009  18.146  0.00  0.00    +0.000 A 
ATOM     16  C   UNL     1       2.063   4.726  18.579  0.00  0.00    +0.000 A 
ATOM     17  C   UNL     1       1.560   4.593  19.886  0.00  0.00    +0.000 A 
ATOM     18 CL   UNL     1       1.056   3.067  20.520  0.00  0.00    +0.000 Cl
ATOM     19  C   UNL     1       1.437   5.707  20.725  0.00  0.00    +0.000 A 
ENDBRANCH  11  16
ENDBRANCH   1  11
TORSDOF 3
ENDMDL
MODEL 3
REMARK VINA RESULT:      -7.4      3.259      5.772
REMARK  Name = 
REMARK  3 active torsions:
REMARK  status: ('A' for Active; 'I' for Inactive)
REMARK    1  A    between atoms: C_5  and  C_6
REMARK    2  A    between atoms: C_6  and  S_7
REMARK    3  A    between atoms: S_7  and  C_8
REMARK                            x       y       z     vdW  Elec       q    Type
REMARK                         _______ _______ _______ _____ _____    ______ ____
ROOT
ATOM      1  S   UNL     1       3.924   2.878  17.720  0.00  0.00    +0.000 S 
ENDROOT
BRANCH   1   2
ATOM      2  C   UNL     1       4.925   4.102  17.002  0.00  0.00    +0.000 A 
ATOM      3  N   UNL     1       4.909   4.459  15.736  0.00  0.00    +0.000 NA
ATOM      4  N   UNL     1       5.838   5.459  15.563  0.00  0.00    +0.000 NA
ATOM      5  C   UNL     1       6.401   5.694  16.729  0.00  0.00    +0.000 A 
ATOM      6  C   UNL     1       7.408   6.610  17.141  0.00  0.00    +0.000 A 
ATOM      7  C   UNL     1       7.797   6.638  18.430  0.00  0.00    +0.000 A 
ATOM      8  C   UNL     1       7.211   5.745  19.416  0.00  0.00    +0.000 A 
ATOM      9  C   UNL     1       6.259   4.874  19.031  0.00  0.00    +0.000 A 
ATOM     10  N   UNL     1       5.854   4.850  17.693  0.00  0.00    +0.000 N 
ENDBRANCH   1   2
BRANCH   1  11
ATOM     11  C   UNL     1       2.288   3.678  17.603  0.00  0.00    +0.000 C 
BRANCH  11  16
ATOM     12 CL   UNL     1       1.632   8.357  21.386  0.00  0.00    +0.000 Cl
ATOM     13  C   UNL     1       1.824   7.017  20.324  0.00  0.00    +0.000 A 
ATOM     14  C   UNL     1       2.312   7.219  19.037  0.00  0.00    +0.000 A 
ATOM     15  C   UNL     1       2.465   6.130  18.172  0.00  0.00    +0.000 A 
ATOM     16  C   UNL     1       2.128   4.825  18.582  0.00  0.00    +0.000 A 
ATOM     17  C   UNL     1       1.643   4.647  19.890  0.00  0.00    +0.000 A 
ATOM     18 CL   UNL     1       1.201   3.091  20.497  0.00  0.00    +0.000 Cl
ATOM     19  C   UNL     1       1.489   5.738  20.755  0.00  0.00    +0.000 A 
ENDBRANCH  11  16
ENDBRANCH   1  11
TORSDOF 3
ENDMDL
MODEL 4
REMARK VINA RESULT:      -7.3      2.880      3.739
REMARK  Name = 
REMARK  3 active torsions:
REMARK  status: ('A' for Active; 'I' for Inactive)
REMARK    1  A    between atoms: C_5  and  C_6
REMARK    2  A    between atoms: C_6  and  S_7
REMARK    3  A    between atoms: S_7  and  C_8
REMARK                            x       y       z     vdW  Elec       q    Type
REMARK                         _______ _______ _______ _____ _____    ______ ____
ROOT
ATOM      1  S   UNL     1       2.639   6.836  18.297  0.00  0.00    +0.000 S 
ENDROOT
BRANCH   1   2
ATOM      2  C   UNL     1       1.991   5.228  18.399  0.00  0.00    +0.000 A 
ATOM      3  N   UNL     1       1.471   4.547  17.400  0.00  0.00    +0.000 NA
ATOM      4  N   UNL     1       1.077   3.319  17.880  0.00  0.00    +0.000 NA
ATOM      5  C   UNL     1       1.367   3.274  19.163  0.00  0.00    +0.000 A 
ATOM      6  C   UNL     1       1.192   2.267  20.151  0.00  0.00    +0.000 A 
ATOM      7  C   UNL     1       1.597   2.495  21.416  0.00  0.00    +0.000 A 
ATOM      8  C   UNL     1       2.207   3.758  21.797  0.00  0.00    +0.000 A 
ATOM      9  C   UNL     1       2.372   4.716  20.866  0.00  0.00    +0.000 A 
ATOM     10  N   UNL     1       1.956   4.475  19.553  0.00  0.00    +0.000 N 
ENDBRANCH   1   2
BRANCH   1  11
ATOM     11  C   UNL     1       4.428   6.474  18.333  0.00  0.00    +0.000 C 
BRANCH  11  16
ATOM     12 CL   UNL     1       6.361   3.624  13.356  0.00  0.00    +0.000 Cl
ATOM     13  C   UNL     1       5.801   4.420  14.775  0.00  0.00    +0.000 A 
ATOM     14  C   UNL     1       5.524   5.784  14.740  0.00  0.00    +0.000 A 
ATOM     15  C   UNL     1       5.072   6.431  15.894  0.00  0.00    +0.000 A 
ATOM     16  C   UNL     1       4.896   5.726  17.101  0.00  0.00    +0.000 A 
ATOM     17  C   UNL     1       5.177   4.347  17.108  0.00  0.00    +0.000 A 
ATOM     18 CL   UNL     1       4.995   3.385  18.531  0.00  0.00    +0.000 Cl
ATOM     19  C   UNL     1       5.631   3.700  15.952  0.00  0.00    +0.000 A 
ENDBRANCH  11  16
ENDBRANCH   1  11
TORSDOF 3
ENDMDL
MODEL 5
REMARK VINA RESULT:      -6.9      2.243      2.913
REMARK  Name = 
REMARK  3 active torsions:
REMARK  status: ('A' for Active; 'I' for Inactive)
REMARK    1  A    between atoms: C_5  and  C_6
REMARK    2  A    between atoms: C_6  and  S_7
REMARK    3  A    between atoms: S_7  and  C_8
REMARK                            x       y       z     vdW  Elec       q    Type
REMARK                         _______ _______ _______ _____ _____    ______ ____
ROOT
ATOM      1  S   UNL     1       2.605   3.283  17.294  0.00  0.00    +0.000 S 
ENDROOT
BRANCH   1   2
ATOM      2  C   UNL     1       2.156   4.038  18.791  0.00  0.00    +0.000 A 
ATOM      3  N   UNL     1       1.783   3.408  19.885  0.00  0.00    +0.000 NA
ATOM      4  N   UNL     1       1.517   4.351  20.851  0.00  0.00    +0.000 NA
ATOM      5  C   UNL     1       1.734   5.538  20.327  0.00  0.00    +0.000 A 
ATOM      6  C   UNL     1       1.627   6.854  20.857  0.00  0.00    +0.000 A 
ATOM      7  C   UNL     1       1.925   7.913  20.078  0.00  0.00    +0.000 A 
ATOM      8  C   UNL     1       2.350   7.740  18.699  0.00  0.00    +0.000 A 
ATOM      9  C   UNL     1       2.451   6.496  18.193  0.00  0.00    +0.000 A 
ATOM     10  N   UNL     1       2.146   5.400  19.003  0.00  0.00    +0.000 N 
ENDBRANCH   1   2
BRANCH   1  11
ATOM     11  C   UNL     1       4.352   2.880  17.637  0.00  0.00    +0.000 C 
BRANCH  11  16
ATOM     12 CL   UNL     1       7.947   7.740  17.934  0.00  0.00    +0.000 Cl
ATOM     13  C   UNL     1       6.916   6.365  17.836  0.00  0.00    +0.000 A 
ATOM     14  C   UNL     1       6.490   5.735  19.001  0.00  0.00    +0.000 A 
ATOM     15  C   UNL     1       5.655   4.617  18.922  0.00  0.00    +0.000 A 
ATOM     16  C   UNL     1       5.238   4.110  17.676  0.00  0.00    +0.000 A 
ATOM     17  C   UNL     1       5.676   4.769  16.513  0.00  0.00    +0.000 A 
ATOM     18 CL   UNL     1       5.224   4.234  14.933  0.00  0.00    +0.000 Cl
ATOM     19  C   UNL     1       6.514   5.888  16.593  0.00  0.00    +0.000 A 
ENDBRANCH  11  16
ENDBRANCH   1  11
TORSDOF 3
ENDMDL
MODEL 6
REMARK VINA RESULT:      -6.9      2.472      3.473
REMARK  Name = 
REMARK  3 active torsions:
REMARK  status: ('A' for Active; 'I' for Inactive)
REMARK    1  A    between atoms: C_5  and  C_6
REMARK    2  A    between atoms: C_6  and  S_7
REMARK    3  A    between atoms: S_7  and  C_8
REMARK                            x       y       z     vdW  Elec       q    Type
REMARK                         _______ _______ _______ _____ _____    ______ ____
ROOT
ATOM      1  S   UNL     1       4.791   3.417  17.401  0.00  0.00    +0.000 S 
ENDROOT
BRANCH   1   2
ATOM      2  C   UNL     1       3.134   3.355  17.914  0.00  0.00    +0.000 A 
ATOM      3  N   UNL     1       2.085   3.542  17.141  0.00  0.00    +0.000 NA
ATOM      4  N   UNL     1       0.955   3.407  17.914  0.00  0.00    +0.000 NA
ATOM      5  C   UNL     1       1.337   3.138  19.144  0.00  0.00    +0.000 A 
ATOM      6  C   UNL     1       0.611   2.898  20.343  0.00  0.00    +0.000 A 
ATOM      7  C   UNL     1       1.276   2.635  21.485  0.00  0.00    +0.000 A 
ATOM      8  C   UNL     1       2.729   2.597  21.521  0.00  0.00    +0.000 A 
ATOM      9  C   UNL     1       3.421   2.825  20.389  0.00  0.00    +0.000 A 
ATOM     10  N   UNL     1       2.728   3.094  19.205  0.00  0.00    +0.000 N 
ENDBRANCH   1   2
BRANCH   1  11
ATOM     11  C   UNL     1       5.353   4.917  18.275  0.00  0.00    +0.000 C 
BRANCH  11  16
ATOM     12 CL   UNL     1       1.187   9.304  18.462  0.00  0.00    +0.000 Cl
ATOM     13  C   UNL     1       2.367   8.054  18.391  0.00  0.00    +0.000 A 
ATOM     14  C   UNL     1       2.543   7.206  19.481  0.00  0.00    +0.000 A 
ATOM     15  C   UNL     1       3.504   6.192  19.425  0.00  0.00    +0.000 A 
ATOM     16  C   UNL     1       4.307   6.015  18.281  0.00  0.00    +0.000 A 
ATOM     17  C   UNL     1       4.104   6.880  17.191  0.00  0.00    +0.000 A 
ATOM     18 CL   UNL     1       5.030   6.751  15.737  0.00  0.00    +0.000 Cl
ATOM     19  C   UNL     1       3.142   7.896  17.248  0.00  0.00    +0.000 A 
ENDBRANCH  11  16
ENDBRANCH   1  11
TORSDOF 3
ENDMDL
MODEL 7
REMARK VINA RESULT:      -6.8      2.397      3.484
REMARK  Name = 
REMARK  3 active torsions:
REMARK  status: ('A' for Active; 'I' for Inactive)
REMARK    1  A    between atoms: C_5  and  C_6
REMARK    2  A    between atoms: C_6  and  S_7
REMARK    3  A    between atoms: S_7  and  C_8
REMARK                            x       y       z     vdW  Elec       q    Type
REMARK                         _______ _______ _______ _____ _____    ______ ____
ROOT
ATOM      1  S   UNL     1       3.330   6.576  18.284  0.00  0.00    +0.000 S 
ENDROOT
BRANCH   1   2
ATOM      2  C   UNL     1       2.374   5.131  18.393  0.00  0.00    +0.000 A 
ATOM      3  N   UNL     1       1.733   4.559  17.395  0.00  0.00    +0.000 NA
ATOM      4  N   UNL     1       1.100   3.438  17.881  0.00  0.00    +0.000 NA
ATOM      5  C   UNL     1       1.369   3.347  19.166  0.00  0.00    +0.000 A 
ATOM      6  C   UNL     1       0.991   2.403  20.160  0.00  0.00    +0.000 A 
ATOM      7  C   UNL     1       1.426   2.557  21.426  0.00  0.00    +0.000 A 
ATOM      8  C   UNL     1       2.274   3.676  21.803  0.00  0.00    +0.000 A 
ATOM      9  C   UNL     1       2.632   4.574  20.865  0.00  0.00    +0.000 A 
ATOM     10  N   UNL     1       2.183   4.410  19.552  0.00  0.00    +0.000 N 
ENDBRANCH   1   2
BRANCH   1  11
ATOM     11  C   UNL     1       5.008   5.875  18.441  0.00  0.00    +0.000 C 
BRANCH  11  16
ATOM     12 CL   UNL     1       7.354   4.560  13.019  0.00  0.00    +0.000 Cl
ATOM     13  C   UNL     1       6.695   4.919  14.568  0.00  0.00    +0.000 A 
ATOM     14  C   UNL     1       5.415   5.458  14.667  0.00  0.00    +0.000 A 
ATOM     15  C   UNL     1       4.880   5.752  15.925  0.00  0.00    +0.000 A 
ATOM     16  C   UNL     1       5.619   5.517  17.101  0.00  0.00    +0.000 A 
ATOM     17  C   UNL     1       6.907   4.966  16.974  0.00  0.00    +0.000 A 
ATOM     18 CL   UNL     1       7.899   4.635  18.349  0.00  0.00    +0.000 Cl
ATOM     19  C   UNL     1       7.442   4.672  15.713  0.00  0.00    +0.000 A 
ENDBRANCH  11  16
ENDBRANCH   1  11
TORSDOF 3
ENDMDL
MODEL 8
REMARK VINA RESULT:      -6.8      3.741      4.926
REMARK  Name = 
REMARK  3 active torsions:
REMARK  status: ('A' for Active; 'I' for Inactive)
REMARK    1  A    between atoms: C_5  and  C_6
REMARK    2  A    between atoms: C_6  and  S_7
REMARK    3  A    between atoms: S_7  and  C_8
REMARK                            x       y       z     vdW  Elec       q    Type
REMARK                         _______ _______ _______ _____ _____    ______ ____
ROOT
ATOM      1  S   UNL     1       3.500   5.297  19.382  0.00  0.00    +0.000 S 
ENDROOT
BRANCH   1   2
ATOM      2  C   UNL     1       2.902   6.831  18.830  0.00  0.00    +0.000 A 
ATOM      3  N   UNL     1       3.166   7.381  17.663  0.00  0.00    +0.000 NA
ATOM      4  N   UNL     1       2.505   8.586  17.600  0.00  0.00    +0.000 NA
ATOM      5  C   UNL     1       1.848   8.746  18.730  0.00  0.00    +0.000 A 
ATOM      6  C   UNL     1       1.005   9.786  19.209  0.00  0.00    +0.000 A 
ATOM      7  C   UNL     1       0.448   9.683  20.432  0.00  0.00    +0.000 A 
ATOM      8  C   UNL     1       0.695   8.528  21.279  0.00  0.00    +0.000 A 
ATOM      9  C   UNL     1       1.494   7.542  20.830  0.00  0.00    +0.000 A 
ATOM     10  N   UNL     1       2.068   7.650  19.560  0.00  0.00    +0.000 N 
ENDBRANCH   1   2
BRANCH   1  11
ATOM     11  C   UNL     1       5.277   5.482  19.013  0.00  0.00    +0.000 C 
BRANCH  11  16
ATOM     12 CL   UNL     1       6.497   3.870  13.308  0.00  0.00    +0.000 Cl
ATOM     13  C   UNL     1       6.168   4.331  14.933  0.00  0.00    +0.000 A 
ATOM     14  C   UNL     1       5.176   3.671  15.651  0.00  0.00    +0.000 A 
ATOM     15  C   UNL     1       4.906   4.047  16.971  0.00  0.00    +0.000 A 
ATOM     16  C   UNL     1       5.621   5.093  17.588  0.00  0.00    +0.000 A 
ATOM     17  C   UNL     1       6.623   5.739  16.843  0.00  0.00    +0.000 A 
ATOM     18 CL   UNL     1       7.562   7.032  17.501  0.00  0.00    +0.000 Cl
ATOM     19  C   UNL     1       6.892   5.362  15.521  0.00  0.00    +0.000 A 
ENDBRANCH  11  16
ENDBRANCH   1  11
TORSDOF 3
ENDMDL
MODEL 9
REMARK VINA RESULT:      -6.8      2.558      3.801
REMARK  Name = 
REMARK  3 active torsions:
REMARK  status: ('A' for Active; 'I' for Inactive)
REMARK    1  A    between atoms: C_5  and  C_6
REMARK    2  A    between atoms: C_6  and  S_7
REMARK    3  A    between atoms: S_7  and  C_8
REMARK                            x       y       z     vdW  Elec       q    Type
REMARK                         _______ _______ _______ _____ _____    ______ ____
ROOT
ATOM      1  S   UNL     1       3.584   7.008  17.948  0.00  0.00    +0.000 S 
ENDROOT
BRANCH   1   2
ATOM      2  C   UNL     1       2.655   6.035  19.044  0.00  0.00    +0.000 A 
ATOM      3  N   UNL     1       2.156   6.439  20.193  0.00  0.00    +0.000 NA
ATOM      4  N   UNL     1       1.483   5.382  20.762  0.00  0.00    +0.000 NA
ATOM      5  C   UNL     1       1.583   4.353  19.947  0.00  0.00    +0.000 A 
ATOM      6  C   UNL     1       1.087   3.023  20.017  0.00  0.00    +0.000 A 
ATOM      7  C   UNL     1       1.343   2.161  19.013  0.00  0.00    +0.000 A 
ATOM      8  C   UNL     1       2.125   2.562  17.855  0.00  0.00    +0.000 A 
ATOM      9  C   UNL     1       2.598   3.821  17.785  0.00  0.00    +0.000 A 
ATOM     10  N   UNL     1       2.328   4.713  18.826  0.00  0.00    +0.000 N 
ENDBRANCH   1   2
BRANCH   1  11
ATOM     11  C   UNL     1       5.212   6.195  18.081  0.00  0.00    +0.000 C 
BRANCH  11  16
ATOM     12 CL   UNL     1       6.930   3.830  12.781  0.00  0.00    +0.000 Cl
ATOM     13  C   UNL     1       6.448   4.487  14.297  0.00  0.00    +0.000 A 
ATOM     14  C   UNL     1       5.267   5.218  14.389  0.00  0.00    +0.000 A 
ATOM     15  C   UNL     1       4.876   5.756  15.619  0.00  0.00    +0.000 A 
ATOM     16  C   UNL     1       5.663   5.574  16.774  0.00  0.00    +0.000 A 
ATOM     17  C   UNL     1       6.848   4.825  16.655  0.00  0.00    +0.000 A 
ATOM     18 CL   UNL     1       7.887   4.539  18.005  0.00  0.00    +0.000 Cl
ATOM     19  C   UNL     1       7.239   4.289  15.422  0.00  0.00    +0.000 A 
ENDBRANCH  11  16
ENDBRANCH   1  11
TORSDOF 3
ENDMDL
