MODEL 1
REMARK VINA RESULT:      -8.3      0.000      0.000
REMARK  Name = 
REMARK  7 active torsions:
REMARK  status: ('A' for Active; 'I' for Inactive)
REMARK    1  A    between atoms: C_1  and  S_2
REMARK    2  A    between atoms: S_2  and  N_5
REMARK    3  A    between atoms: C_8  and  N_9
REMARK    4  A    between atoms: N_9  and  C_21
REMARK    5  A    between atoms: N_12  and  C_13
REMARK    6  A    between atoms: C_13  and  C_14
REMARK    7  A    between atoms: C_14  and  C_15
REMARK                            x       y       z     vdW  Elec       q    Type
REMARK                         _______ _______ _______ _____ _____    ______ ____
ROOT
ATOM      1  N   UNL     1       2.691   6.665  18.666  0.00  0.00    +0.000 N 
ATOM      2  C   UNL     1       3.654   6.613  17.654  0.00  0.00    +0.000 C 
ATOM      3  O   UNL     1       4.077   7.626  17.100  0.00  0.00    +0.000 OA
ATOM      4  N   UNL     1       4.167   5.382  17.346  0.00  0.00    +0.000 N 
ATOM      5  H   UNL     1       3.506   4.620  17.273  0.00  0.00    +0.000 HD
ENDROOT
BRANCH   1   6
ATOM      6  C   UNL     1       2.220   8.048  19.011  0.00  0.00    +0.000 C 
ATOM      7  C   UNL     1       1.517   8.048  20.381  0.00  0.00    +0.000 C 
ATOM      8  C   UNL     1       0.962   9.418  20.724  0.00  0.00    +0.000 C 
ATOM      9  O   UNL     1       0.067   9.845  19.703  0.00  0.00    +0.000 OA
ATOM     10  C   UNL     1       0.751  10.075  18.475  0.00  0.00    +0.000 C 
ATOM     11  C   UNL     1       1.381   8.789  17.947  0.00  0.00    +0.000 C 
ENDBRANCH   1   6
BRANCH   1  15
ATOM     12  N   UNL     1       2.921   3.330  20.284  0.00  0.00    +0.000 NA
ATOM     13  C   UNL     1       1.744   3.139  19.393  0.00  0.00    +0.000 C 
ATOM     14  C   UNL     1       1.701   4.375  18.513  0.00  0.00    +0.000 C 
ATOM     15  C   UNL     1       2.179   5.499  19.429  0.00  0.00    +0.000 C 
ATOM     16  C   UNL     1       3.097   4.813  20.468  0.00  0.00    +0.000 C 
BRANCH  12  18
ATOM     17  C   UNL     1       3.754   1.345  18.628  0.00  0.00    +0.000 C 
ATOM     18  S   UNL     1       4.331   2.488  19.865  0.00  0.00    +0.000 S 
ATOM     19  O   UNL     1       4.742   1.704  21.009  0.00  0.00    +0.000 OA
ATOM     20  O   UNL     1       5.222   3.450  19.255  0.00  0.00    +0.000 OA
ENDBRANCH  12  18
ENDBRANCH   1  15
BRANCH   4  21
ATOM     21  C   UNL     1       5.308   5.308  16.443  0.00  0.00    +0.000 C 
BRANCH  21  22
ATOM     22  C   UNL     1       5.338   4.021  15.616  0.00  0.00    +0.000 C 
BRANCH  22  23
ATOM     23  C   UNL     1       6.077   4.175  14.310  0.00  0.00    +0.000 A 
ATOM     24  C   UNL     1       5.713   3.417  13.189  0.00  0.00    +0.000 A 
ATOM     25  C   UNL     1       6.400   3.563  11.984  0.00  0.00    +0.000 A 
ATOM     26  C   UNL     1       7.458   4.465  11.882  0.00  0.00    +0.000 A 
ATOM     27  C   UNL     1       7.819   5.233  12.988  0.00  0.00    +0.000 A 
ATOM     28  C   UNL     1       7.129   5.095  14.195  0.00  0.00    +0.000 A 
ENDBRANCH  22  23
ENDBRANCH  21  22
ENDBRANCH   4  21
TORSDOF 6
ENDMDL
MODEL 2
REMARK VINA RESULT:      -7.9      2.588      7.532
REMARK  Name = 
REMARK  7 active torsions:
REMARK  status: ('A' for Active; 'I' for Inactive)
REMARK    1  A    between atoms: C_1  and  S_2
REMARK    2  A    between atoms: S_2  and  N_5
REMARK    3  A    between atoms: C_8  and  N_9
REMARK    4  A    between atoms: N_9  and  C_21
REMARK    5  A    between atoms: N_12  and  C_13
REMARK    6  A    between atoms: C_13  and  C_14
REMARK    7  A    between atoms: C_14  and  C_15
REMARK                            x       y       z     vdW  Elec       q    Type
REMARK                         _______ _______ _______ _____ _____    ______ ____
ROOT
ATOM      1  N   UNL     1       3.614   5.847  18.277  0.00  0.00    +0.000 N 
ATOM      2  C   UNL     1       2.524   6.362  18.985  0.00  0.00    +0.000 C 
ATOM      3  O   UNL     1       1.715   5.637  19.561  0.00  0.00    +0.000 OA
ATOM      4  N   UNL     1       2.429   7.724  19.073  0.00  0.00    +0.000 N 
ATOM      5  H   UNL     1       2.606   8.248  18.226  0.00  0.00    +0.000 HD
ENDROOT
BRANCH   1   6
ATOM      6  C   UNL     1       3.707   4.348  18.277  0.00  0.00    +0.000 C 
ATOM      7  C   UNL     1       2.497   3.735  17.549  0.00  0.00    +0.000 C 
ATOM      8  C   UNL     1       2.524   2.219  17.598  0.00  0.00    +0.000 C 
ATOM      9  O   UNL     1       2.567   1.781  18.951  0.00  0.00    +0.000 OA
ATOM     10  C   UNL     1       3.795   2.144  19.575  0.00  0.00    +0.000 C 
ATOM     11  C   UNL     1       3.954   3.661  19.637  0.00  0.00    +0.000 C 
ENDBRANCH   1   6
BRANCH   1  15
ATOM     12  N   UNL     1       6.477   6.416  15.983  0.00  0.00    +0.000 NA
ATOM     13  C   UNL     1       7.027   6.933  17.265  0.00  0.00    +0.000 C 
ATOM     14  C   UNL     1       6.015   6.537  18.325  0.00  0.00    +0.000 C 
ATOM     15  C   UNL     1       4.669   6.652  17.614  0.00  0.00    +0.000 C 
ATOM     16  C   UNL     1       4.979   6.408  16.118  0.00  0.00    +0.000 C 
BRANCH  12  18
ATOM     17  C   UNL     1       5.720   3.959  15.110  0.00  0.00    +0.000 C 
ATOM     18  S   UNL     1       7.152   4.976  15.397  0.00  0.00    +0.000 S 
ATOM     19  O   UNL     1       7.902   4.362  16.471  0.00  0.00    +0.000 OA
ATOM     20  O   UNL     1       7.777   5.297  14.132  0.00  0.00    +0.000 OA
ENDBRANCH  12  18
ENDBRANCH   1  15
BRANCH   4  21
ATOM     21  C   UNL     1       1.427   8.297  19.962  0.00  0.00    +0.000 C 
BRANCH  21  22
ATOM     22  C   UNL     1       1.285   9.813  19.812  0.00  0.00    +0.000 C 
BRANCH  22  23
ATOM     23  C   UNL     1      -0.012  10.224  19.160  0.00  0.00    +0.000 A 
ATOM     24  C   UNL     1      -0.838  11.185  19.758  0.00  0.00    +0.000 A 
ATOM     25  C   UNL     1      -2.036  11.562  19.151  0.00  0.00    +0.000 A 
ATOM     26  C   UNL     1      -2.425  10.985  17.943  0.00  0.00    +0.000 A 
ATOM     27  C   UNL     1      -1.603  10.038  17.335  0.00  0.00    +0.000 A 
ATOM     28  C   UNL     1      -0.398   9.663  17.935  0.00  0.00    +0.000 A 
ENDBRANCH  22  23
ENDBRANCH  21  22
ENDBRANCH   4  21
TORSDOF 6
ENDMDL
MODEL 3
REMARK VINA RESULT:      -7.9      0.741      1.275
REMARK  Name = 
REMARK  7 active torsions:
REMARK  status: ('A' for Active; 'I' for Inactive)
REMARK    1  A    between atoms: C_1  and  S_2
REMARK    2  A    between atoms: S_2  and  N_5
REMARK    3  A    between atoms: C_8  and  N_9
REMARK    4  A    between atoms: N_9  and  C_21
REMARK    5  A    between atoms: N_12  and  C_13
REMARK    6  A    between atoms: C_13  and  C_14
REMARK    7  A    between atoms: C_14  and  C_15
REMARK                            x       y       z     vdW  Elec       q    Type
REMARK                         _______ _______ _______ _____ _____    ______ ____
ROOT
ATOM      1  N   UNL     1       2.638   6.757  18.580  0.00  0.00    +0.000 N 
ATOM      2  C   UNL     1       3.682   6.795  17.651  0.00  0.00    +0.000 C 
ATOM      3  O   UNL     1       4.148   7.853  17.233  0.00  0.00    +0.000 OA
ATOM      4  N   UNL     1       4.220   5.595  17.271  0.00  0.00    +0.000 N 
ATOM      5  H   UNL     1       3.568   4.848  17.071  0.00  0.00    +0.000 HD
ENDROOT
BRANCH   1   6
ATOM      6  C   UNL     1       2.138   8.105  19.015  0.00  0.00    +0.000 C 
ATOM      7  C   UNL     1       1.525   8.019  20.425  0.00  0.00    +0.000 C 
ATOM      8  C   UNL     1       0.943   9.350  20.862  0.00  0.00    +0.000 C 
ATOM      9  O   UNL     1      -0.031   9.783  19.919  0.00  0.00    +0.000 OA
ATOM     10  C   UNL     1       0.564  10.091  18.663  0.00  0.00    +0.000 C 
ATOM     11  C   UNL     1       1.206   8.855  18.040  0.00  0.00    +0.000 C 
ENDBRANCH   1   6
BRANCH   1  15
ATOM     12  N   UNL     1       2.732   3.275  19.868  0.00  0.00    +0.000 NA
ATOM     13  C   UNL     1       1.622   3.189  18.881  0.00  0.00    +0.000 C 
ATOM     14  C   UNL     1       1.650   4.507  18.128  0.00  0.00    +0.000 C 
ATOM     15  C   UNL     1       2.066   5.528  19.184  0.00  0.00    +0.000 C 
ATOM     16  C   UNL     1       2.902   4.730  20.212  0.00  0.00    +0.000 C 
BRANCH  12  18
ATOM     17  C   UNL     1       4.535   1.565  20.962  0.00  0.00    +0.000 C 
ATOM     18  S   UNL     1       4.164   2.461  19.470  0.00  0.00    +0.000 S 
ATOM     19  O   UNL     1       5.208   3.447  19.294  0.00  0.00    +0.000 OA
ATOM     20  O   UNL     1       3.829   1.527  18.417  0.00  0.00    +0.000 OA
ENDBRANCH  12  18
ENDBRANCH   1  15
BRANCH   4  21
ATOM     21  C   UNL     1       5.432   5.599  16.462  0.00  0.00    +0.000 C 
BRANCH  21  22
ATOM     22  C   UNL     1       5.794   4.217  15.914  0.00  0.00    +0.000 C 
BRANCH  22  23
ATOM     23  C   UNL     1       6.273   4.256  14.484  0.00  0.00    +0.000 A 
ATOM     24  C   UNL     1       7.344   5.079  14.112  0.00  0.00    +0.000 A 
ATOM     25  C   UNL     1       7.784   5.111  12.789  0.00  0.00    +0.000 A 
ATOM     26  C   UNL     1       7.161   4.324  11.821  0.00  0.00    +0.000 A 
ATOM     27  C   UNL     1       6.104   3.491  12.185  0.00  0.00    +0.000 A 
ATOM     28  C   UNL     1       5.665   3.451  13.511  0.00  0.00    +0.000 A 
ENDBRANCH  22  23
ENDBRANCH  21  22
ENDBRANCH   4  21
TORSDOF 6
ENDMDL
MODEL 4
REMARK VINA RESULT:      -7.8      2.626      7.999
REMARK  Name = 
REMARK  7 active torsions:
REMARK  status: ('A' for Active; 'I' for Inactive)
REMARK    1  A    between atoms: C_1  and  S_2
REMARK    2  A    between atoms: S_2  and  N_5
REMARK    3  A    between atoms: C_8  and  N_9
REMARK    4  A    between atoms: N_9  and  C_21
REMARK    5  A    between atoms: N_12  and  C_13
REMARK    6  A    between atoms: C_13  and  C_14
REMARK    7  A    between atoms: C_14  and  C_15
REMARK                            x       y       z     vdW  Elec       q    Type
REMARK                         _______ _______ _______ _____ _____    ______ ____
ROOT
ATOM      1  N   UNL     1       3.740   5.873  18.229  0.00  0.00    +0.000 N 
ATOM      2  C   UNL     1       2.557   6.468  18.675  0.00  0.00    +0.000 C 
ATOM      3  O   UNL     1       1.631   5.812  19.148  0.00  0.00    +0.000 OA
ATOM      4  N   UNL     1       2.494   7.835  18.632  0.00  0.00    +0.000 N 
ATOM      5  H   UNL     1       2.842   8.280  17.793  0.00  0.00    +0.000 HD
ENDROOT
BRANCH   1   6
ATOM      6  C   UNL     1       3.779   4.378  18.369  0.00  0.00    +0.000 C 
ATOM      7  C   UNL     1       2.716   3.727  17.466  0.00  0.00    +0.000 C 
ATOM      8  C   UNL     1       2.681   2.220  17.642  0.00  0.00    +0.000 C 
ATOM      9  O   UNL     1       2.440   1.900  19.008  0.00  0.00    +0.000 OA
ATOM     10  C   UNL     1       3.532   2.293  19.833  0.00  0.00    +0.000 C 
ATOM     11  C   UNL     1       3.729   3.807  19.802  0.00  0.00    +0.000 C 
ENDBRANCH   1   6
BRANCH   1  15
ATOM     12  N   UNL     1       6.716   6.350  16.060  0.00  0.00    +0.000 NA
ATOM     13  C   UNL     1       7.308   6.549  17.411  0.00  0.00    +0.000 C 
ATOM     14  C   UNL     1       6.218   6.149  18.390  0.00  0.00    +0.000 C 
ATOM     15  C   UNL     1       4.927   6.597  17.710  0.00  0.00    +0.000 C 
ATOM     16  C   UNL     1       5.233   6.562  16.194  0.00  0.00    +0.000 C 
BRANCH  12  18
ATOM     17  C   UNL     1       5.599   4.205  14.825  0.00  0.00    +0.000 C 
ATOM     18  S   UNL     1       7.168   4.940  15.237  0.00  0.00    +0.000 S 
ATOM     19  O   UNL     1       7.816   4.056  16.181  0.00  0.00    +0.000 OA
ATOM     20  O   UNL     1       7.835   5.364  14.025  0.00  0.00    +0.000 OA
ENDBRANCH  12  18
ENDBRANCH   1  15
BRANCH   4  21
ATOM     21  C   UNL     1       1.366   8.502  19.268  0.00  0.00    +0.000 C 
BRANCH  21  22
ATOM     22  C   UNL     1       1.456   8.512  20.795  0.00  0.00    +0.000 C 
BRANCH  22  23
ATOM     23  C   UNL     1       0.556   9.541  21.434  0.00  0.00    +0.000 A 
ATOM     24  C   UNL     1      -0.014   9.308  22.693  0.00  0.00    +0.000 A 
ATOM     25  C   UNL     1      -0.845  10.262  23.279  0.00  0.00    +0.000 A 
ATOM     26  C   UNL     1      -1.119  11.458  22.618  0.00  0.00    +0.000 A 
ATOM     27  C   UNL     1      -0.546  11.704  21.371  0.00  0.00    +0.000 A 
ATOM     28  C   UNL     1       0.293  10.755  20.783  0.00  0.00    +0.000 A 
ENDBRANCH  22  23
ENDBRANCH  21  22
ENDBRANCH   4  21
TORSDOF 6
ENDMDL
MODEL 5
REMARK VINA RESULT:      -7.6      2.559      8.160
REMARK  Name = 
REMARK  7 active torsions:
REMARK  status: ('A' for Active; 'I' for Inactive)
REMARK    1  A    between atoms: C_1  and  S_2
REMARK    2  A    between atoms: S_2  and  N_5
REMARK    3  A    between atoms: C_8  and  N_9
REMARK    4  A    between atoms: N_9  and  C_21
REMARK    5  A    between atoms: N_12  and  C_13
REMARK    6  A    between atoms: C_13  and  C_14
REMARK    7  A    between atoms: C_14  and  C_15
REMARK                            x       y       z     vdW  Elec       q    Type
REMARK                         _______ _______ _______ _____ _____    ______ ____
ROOT
ATOM      1  N   UNL     1       3.570   5.648  18.410  0.00  0.00    +0.000 N 
ATOM      2  C   UNL     1       2.570   6.171  19.234  0.00  0.00    +0.000 C 
ATOM      3  O   UNL     1       1.808   5.451  19.876  0.00  0.00    +0.000 OA
ATOM      4  N   UNL     1       2.514   7.533  19.356  0.00  0.00    +0.000 N 
ATOM      5  H   UNL     1       2.616   8.070  18.505  0.00  0.00    +0.000 HD
ENDROOT
BRANCH   1   6
ATOM      6  C   UNL     1       3.630   4.148  18.373  0.00  0.00    +0.000 C 
ATOM      7  C   UNL     1       2.370   3.578  17.695  0.00  0.00    +0.000 C 
ATOM      8  C   UNL     1       2.366   2.061  17.709  0.00  0.00    +0.000 C 
ATOM      9  O   UNL     1       2.466   1.592  19.049  0.00  0.00    +0.000 OA
ATOM     10  C   UNL     1       3.732   1.914  19.618  0.00  0.00    +0.000 C 
ATOM     11  C   UNL     1       3.928   3.425  19.704  0.00  0.00    +0.000 C 
ENDBRANCH   1   6
BRANCH   1  15
ATOM     12  N   UNL     1       6.253   6.186  15.900  0.00  0.00    +0.000 NA
ATOM     13  C   UNL     1       6.895   6.726  17.129  0.00  0.00    +0.000 C 
ATOM     14  C   UNL     1       5.966   6.344  18.268  0.00  0.00    +0.000 C 
ATOM     15  C   UNL     1       4.571   6.445  17.657  0.00  0.00    +0.000 C 
ATOM     16  C   UNL     1       4.769   6.177  16.146  0.00  0.00    +0.000 C 
BRANCH  12  18
ATOM     17  C   UNL     1       7.554   5.235  13.715  0.00  0.00    +0.000 C 
ATOM     18  S   UNL     1       6.887   4.739  15.289  0.00  0.00    +0.000 S 
ATOM     19  O   UNL     1       5.784   3.843  15.019  0.00  0.00    +0.000 OA
ATOM     20  O   UNL     1       7.968   4.356  16.171  0.00  0.00    +0.000 OA
ENDBRANCH  12  18
ENDBRANCH   1  15
BRANCH   4  21
ATOM     21  C   UNL     1       1.621   8.108  20.353  0.00  0.00    +0.000 C 
BRANCH  21  22
ATOM     22  C   UNL     1       0.939   9.393  19.880  0.00  0.00    +0.000 C 
BRANCH  22  23
ATOM     23  C   UNL     1       0.121  10.060  20.958  0.00  0.00    +0.000 A 
ATOM     24  C   UNL     1       0.014   9.484  22.232  0.00  0.00    +0.000 A 
ATOM     25  C   UNL     1      -0.743  10.104  23.226  0.00  0.00    +0.000 A 
ATOM     26  C   UNL     1      -1.403  11.304  22.962  0.00  0.00    +0.000 A 
ATOM     27  C   UNL     1      -1.291  11.891  21.703  0.00  0.00    +0.000 A 
ATOM     28  C   UNL     1      -0.528  11.277  20.706  0.00  0.00    +0.000 A 
ENDBRANCH  22  23
ENDBRANCH  21  22
ENDBRANCH   4  21
TORSDOF 6
ENDMDL
MODEL 6
REMARK VINA RESULT:      -7.6      2.134      6.987
REMARK  Name = 
REMARK  7 active torsions:
REMARK  status: ('A' for Active; 'I' for Inactive)
REMARK    1  A    between atoms: C_1  and  S_2
REMARK    2  A    between atoms: S_2  and  N_5
REMARK    3  A    between atoms: C_8  and  N_9
REMARK    4  A    between atoms: N_9  and  C_21
REMARK    5  A    between atoms: N_12  and  C_13
REMARK    6  A    between atoms: C_13  and  C_14
REMARK    7  A    between atoms: C_14  and  C_15
REMARK                            x       y       z     vdW  Elec       q    Type
REMARK                         _______ _______ _______ _____ _____    ______ ____
ROOT
ATOM      1  N   UNL     1       3.727   5.220  17.460  0.00  0.00    +0.000 N 
ATOM      2  C   UNL     1       3.736   6.613  17.574  0.00  0.00    +0.000 C 
ATOM      3  O   UNL     1       4.701   7.292  17.231  0.00  0.00    +0.000 OA
ATOM      4  N   UNL     1       2.587   7.206  18.023  0.00  0.00    +0.000 N 
ATOM      5  H   UNL     1       2.128   6.769  18.812  0.00  0.00    +0.000 HD
ENDROOT
BRANCH   1   6
ATOM      6  C   UNL     1       4.987   4.631  16.893  0.00  0.00    +0.000 C 
ATOM      7  C   UNL     1       6.189   4.967  17.794  0.00  0.00    +0.000 C 
ATOM      8  C   UNL     1       7.489   4.449  17.208  0.00  0.00    +0.000 C 
ATOM      9  O   UNL     1       7.677   4.987  15.904  0.00  0.00    +0.000 OA
ATOM     10  C   UNL     1       6.698   4.496  14.994  0.00  0.00    +0.000 C 
ATOM     11  C   UNL     1       5.294   4.929  15.410  0.00  0.00    +0.000 C 
ENDBRANCH   1   6
BRANCH   1  15
ATOM     12  N   UNL     1       1.486   3.301  19.716  0.00  0.00    +0.000 NA
ATOM     13  C   UNL     1       1.899   2.246  18.752  0.00  0.00    +0.000 C 
ATOM     14  C   UNL     1       3.001   2.873  17.916  0.00  0.00    +0.000 C 
ATOM     15  C   UNL     1       2.582   4.335  17.788  0.00  0.00    +0.000 C 
ATOM     16  C   UNL     1       1.736   4.627  19.050  0.00  0.00    +0.000 C 
BRANCH  12  18
ATOM     17  C   UNL     1       3.557   2.178  21.066  0.00  0.00    +0.000 C 
ATOM     18  S   UNL     1       2.093   3.165  21.292  0.00  0.00    +0.000 S 
ATOM     19  O   UNL     1       1.162   2.374  22.066  0.00  0.00    +0.000 OA
ATOM     20  O   UNL     1       2.470   4.499  21.706  0.00  0.00    +0.000 OA
ENDBRANCH  12  18
ENDBRANCH   1  15
BRANCH   4  21
ATOM     21  C   UNL     1       2.485   8.658  17.969  0.00  0.00    +0.000 C 
BRANCH  21  22
ATOM     22  C   UNL     1       1.051   9.167  18.123  0.00  0.00    +0.000 C 
BRANCH  22  23
ATOM     23  C   UNL     1       0.686   9.482  19.553  0.00  0.00    +0.000 A 
ATOM     24  C   UNL     1       1.056   8.618  20.591  0.00  0.00    +0.000 A 
ATOM     25  C   UNL     1       0.717   8.913  21.911  0.00  0.00    +0.000 A 
ATOM     26  C   UNL     1       0.003  10.073  22.212  0.00  0.00    +0.000 A 
ATOM     27  C   UNL     1      -0.358  10.946  21.186  0.00  0.00    +0.000 A 
ATOM     28  C   UNL     1      -0.013  10.657  19.863  0.00  0.00    +0.000 A 
ENDBRANCH  22  23
ENDBRANCH  21  22
ENDBRANCH   4  21
TORSDOF 6
ENDMDL
MODEL 7
REMARK VINA RESULT:      -7.6      1.842      2.851
REMARK  Name = 
REMARK  7 active torsions:
REMARK  status: ('A' for Active; 'I' for Inactive)
REMARK    1  A    between atoms: C_1  and  S_2
REMARK    2  A    between atoms: S_2  and  N_5
REMARK    3  A    between atoms: C_8  and  N_9
REMARK    4  A    between atoms: N_9  and  C_21
REMARK    5  A    between atoms: N_12  and  C_13
REMARK    6  A    between atoms: C_13  and  C_14
REMARK    7  A    between atoms: C_14  and  C_15
REMARK                            x       y       z     vdW  Elec       q    Type
REMARK                         _______ _______ _______ _____ _____    ______ ____
ROOT
ATOM      1  N   UNL     1       2.623   6.479  18.639  0.00  0.00    +0.000 N 
ATOM      2  C   UNL     1       3.489   6.396  17.545  0.00  0.00    +0.000 C 
ATOM      3  O   UNL     1       3.902   7.395  16.960  0.00  0.00    +0.000 OA
ATOM      4  N   UNL     1       3.924   5.148  17.190  0.00  0.00    +0.000 N 
ATOM      5  H   UNL     1       3.229   4.413  17.172  0.00  0.00    +0.000 HD
ENDROOT
BRANCH   1   6
ATOM      6  C   UNL     1       2.239   7.878  19.029  0.00  0.00    +0.000 C 
ATOM      7  C   UNL     1       1.558   7.881  20.410  0.00  0.00    +0.000 C 
ATOM      8  C   UNL     1       1.091   9.272  20.798  0.00  0.00    +0.000 C 
ATOM      9  O   UNL     1       0.208   9.779  19.804  0.00  0.00    +0.000 OA
ATOM     10  C   UNL     1       0.886  10.002  18.572  0.00  0.00    +0.000 C 
ATOM     11  C   UNL     1       1.431   8.696  17.999  0.00  0.00    +0.000 C 
ENDBRANCH   1   6
BRANCH   1  15
ATOM     12  N   UNL     1       2.917   3.203  20.363  0.00  0.00    +0.000 NA
ATOM     13  C   UNL     1       1.742   2.962  19.482  0.00  0.00    +0.000 C 
ATOM     14  C   UNL     1       1.675   4.168  18.562  0.00  0.00    +0.000 C 
ATOM     15  C   UNL     1       2.134   5.329  19.440  0.00  0.00    +0.000 C 
ATOM     16  C   UNL     1       3.065   4.694  20.499  0.00  0.00    +0.000 C 
BRANCH  12  18
ATOM     17  C   UNL     1       3.787   1.195  18.756  0.00  0.00    +0.000 C 
ATOM     18  S   UNL     1       4.341   2.374  19.969  0.00  0.00    +0.000 S 
ATOM     19  O   UNL     1       4.759   1.623  21.132  0.00  0.00    +0.000 OA
ATOM     20  O   UNL     1       5.219   3.337  19.341  0.00  0.00    +0.000 OA
ENDBRANCH  12  18
ENDBRANCH   1  15
BRANCH   4  21
ATOM     21  C   UNL     1       4.976   5.035  16.189  0.00  0.00    +0.000 C 
BRANCH  21  22
ATOM     22  C   UNL     1       6.324   4.612  16.778  0.00  0.00    +0.000 C 
BRANCH  22  23
ATOM     23  C   UNL     1       7.057   5.747  17.450  0.00  0.00    +0.000 A 
ATOM     24  C   UNL     1       7.119   7.012  16.850  0.00  0.00    +0.000 A 
ATOM     25  C   UNL     1       7.798   8.057  17.474  0.00  0.00    +0.000 A 
ATOM     26  C   UNL     1       8.424   7.855  18.703  0.00  0.00    +0.000 A 
ATOM     27  C   UNL     1       8.357   6.604  19.314  0.00  0.00    +0.000 A 
ATOM     28  C   UNL     1       7.671   5.555  18.695  0.00  0.00    +0.000 A 
ENDBRANCH  22  23
ENDBRANCH  21  22
ENDBRANCH   4  21
TORSDOF 6
ENDMDL
MODEL 8
REMARK VINA RESULT:      -7.6      1.986      6.958
REMARK  Name = 
REMARK  7 active torsions:
REMARK  status: ('A' for Active; 'I' for Inactive)
REMARK    1  A    between atoms: C_1  and  S_2
REMARK    2  A    between atoms: S_2  and  N_5
REMARK    3  A    between atoms: C_8  and  N_9
REMARK    4  A    between atoms: N_9  and  C_21
REMARK    5  A    between atoms: N_12  and  C_13
REMARK    6  A    between atoms: C_13  and  C_14
REMARK    7  A    between atoms: C_14  and  C_15
REMARK                            x       y       z     vdW  Elec       q    Type
REMARK                         _______ _______ _______ _____ _____    ______ ____
ROOT
ATOM      1  N   UNL     1       3.680   5.035  17.457  0.00  0.00    +0.000 N 
ATOM      2  C   UNL     1       3.554   6.424  17.551  0.00  0.00    +0.000 C 
ATOM      3  O   UNL     1       4.453   7.188  17.206  0.00  0.00    +0.000 OA
ATOM      4  N   UNL     1       2.349   6.911  17.980  0.00  0.00    +0.000 N 
ATOM      5  H   UNL     1       1.925   6.443  18.771  0.00  0.00    +0.000 HD
ENDROOT
BRANCH   1   6
ATOM      6  C   UNL     1       4.996   4.562  16.910  0.00  0.00    +0.000 C 
ATOM      7  C   UNL     1       6.139   4.923  17.877  0.00  0.00    +0.000 C 
ATOM      8  C   UNL     1       7.491   4.524  17.317  0.00  0.00    +0.000 C 
ATOM      9  O   UNL     1       7.692   5.147  16.053  0.00  0.00    +0.000 OA
ATOM     10  C   UNL     1       6.782   4.647  15.078  0.00  0.00    +0.000 C 
ATOM     11  C   UNL     1       5.338   4.964  15.459  0.00  0.00    +0.000 C 
ENDBRANCH   1   6
BRANCH   1  15
ATOM     12  N   UNL     1       1.603   2.950  19.722  0.00  0.00    +0.000 NA
ATOM     13  C   UNL     1       2.131   1.922  18.785  0.00  0.00    +0.000 C 
ATOM     14  C   UNL     1       3.179   2.637  17.951  0.00  0.00    +0.000 C 
ATOM     15  C   UNL     1       2.621   4.049  17.788  0.00  0.00    +0.000 C 
ATOM     16  C   UNL     1       1.733   4.281  19.033  0.00  0.00    +0.000 C 
BRANCH  12  18
ATOM     17  C   UNL     1       2.466   4.624  21.678  0.00  0.00    +0.000 C 
ATOM     18  S   UNL     1       2.197   2.904  21.308  0.00  0.00    +0.000 S 
ATOM     19  O   UNL     1       3.495   2.266  21.283  0.00  0.00    +0.000 OA
ATOM     20  O   UNL     1       1.125   2.394  22.136  0.00  0.00    +0.000 OA
ENDBRANCH  12  18
ENDBRANCH   1  15
BRANCH   4  21
ATOM     21  C   UNL     1       2.109   8.346  17.903  0.00  0.00    +0.000 C 
BRANCH  21  22
ATOM     22  C   UNL     1       1.650   8.951  19.231  0.00  0.00    +0.000 C 
BRANCH  22  23
ATOM     23  C   UNL     1       0.404   9.791  19.098  0.00  0.00    +0.000 A 
ATOM     24  C   UNL     1      -0.371   9.740  17.931  0.00  0.00    +0.000 A 
ATOM     25  C   UNL     1      -1.522  10.518  17.813  0.00  0.00    +0.000 A 
ATOM     26  C   UNL     1      -1.914  11.358  18.855  0.00  0.00    +0.000 A 
ATOM     27  C   UNL     1      -1.158  11.405  20.024  0.00  0.00    +0.000 A 
ATOM     28  C   UNL     1      -0.008  10.621  20.150  0.00  0.00    +0.000 A 
ENDBRANCH  22  23
ENDBRANCH  21  22
ENDBRANCH   4  21
TORSDOF 6
ENDMDL
MODEL 9
REMARK VINA RESULT:      -7.6      2.474      7.651
REMARK  Name = 
REMARK  7 active torsions:
REMARK  status: ('A' for Active; 'I' for Inactive)
REMARK    1  A    between atoms: C_1  and  S_2
REMARK    2  A    between atoms: S_2  and  N_5
REMARK    3  A    between atoms: C_8  and  N_9
REMARK    4  A    between atoms: N_9  and  C_21
REMARK    5  A    between atoms: N_12  and  C_13
REMARK    6  A    between atoms: C_13  and  C_14
REMARK    7  A    between atoms: C_14  and  C_15
REMARK                            x       y       z     vdW  Elec       q    Type
REMARK                         _______ _______ _______ _____ _____    ______ ____
ROOT
ATOM      1  N   UNL     1       3.727   5.984  18.275  0.00  0.00    +0.000 N 
ATOM      2  C   UNL     1       2.490   6.635  18.283  0.00  0.00    +0.000 C 
ATOM      3  O   UNL     1       1.459   6.077  18.654  0.00  0.00    +0.000 OA
ATOM      4  N   UNL     1       2.480   7.956  17.925  0.00  0.00    +0.000 N 
ATOM      5  H   UNL     1       3.032   8.212  17.116  0.00  0.00    +0.000 HD
ENDROOT
BRANCH   1   6
ATOM      6  C   UNL     1       3.688   4.560  18.748  0.00  0.00    +0.000 C 
ATOM      7  C   UNL     1       3.111   3.646  17.650  0.00  0.00    +0.000 C 
ATOM      8  C   UNL     1       2.989   2.211  18.126  0.00  0.00    +0.000 C 
ATOM      9  O   UNL     1       2.180   2.158  19.296  0.00  0.00    +0.000 OA
ATOM     10  C   UNL     1       2.813   2.806  20.394  0.00  0.00    +0.000 C 
ATOM     11  C   UNL     1       3.019   4.292  20.113  0.00  0.00    +0.000 C 
ENDBRANCH   1   6
BRANCH   1  15
ATOM     12  N   UNL     1       6.863   6.333  16.317  0.00  0.00    +0.000 NA
ATOM     13  C   UNL     1       7.394   6.279  17.705  0.00  0.00    +0.000 C 
ATOM     14  C   UNL     1       6.207   5.906  18.576  0.00  0.00    +0.000 C 
ATOM     15  C   UNL     1       5.025   6.604  17.908  0.00  0.00    +0.000 C 
ATOM     16  C   UNL     1       5.413   6.721  16.415  0.00  0.00    +0.000 C 
BRANCH  12  18
ATOM     17  C   UNL     1       5.549   4.417  14.911  0.00  0.00    +0.000 C 
ATOM     18  S   UNL     1       7.181   4.991  15.332  0.00  0.00    +0.000 S 
ATOM     19  O   UNL     1       7.793   3.968  16.152  0.00  0.00    +0.000 OA
ATOM     20  O   UNL     1       7.836   5.495  14.146  0.00  0.00    +0.000 OA
ENDBRANCH  12  18
ENDBRANCH   1  15
BRANCH   4  21
ATOM     21  C   UNL     1       1.253   8.719  18.110  0.00  0.00    +0.000 C 
BRANCH  21  22
ATOM     22  C   UNL     1       1.463  10.013  18.899  0.00  0.00    +0.000 C 
BRANCH  22  23
ATOM     23  C   UNL     1       0.765  10.009  20.237  0.00  0.00    +0.000 A 
ATOM     24  C   UNL     1       0.218  11.188  20.761  0.00  0.00    +0.000 A 
ATOM     25  C   UNL     1      -0.426  11.179  21.998  0.00  0.00    +0.000 A 
ATOM     26  C   UNL     1      -0.531   9.995  22.727  0.00  0.00    +0.000 A 
ATOM     27  C   UNL     1      -0.003   8.815  22.208  0.00  0.00    +0.000 A 
ATOM     28  C   UNL     1       0.637   8.818  20.966  0.00  0.00    +0.000 A 
ENDBRANCH  22  23
ENDBRANCH  21  22
ENDBRANCH   4  21
TORSDOF 6
ENDMDL
