MODEL 1
REMARK VINA RESULT:      -8.3      0.000      0.000
REMARK  Name = 
REMARK  6 active torsions:
REMARK  status: ('A' for Active; 'I' for Inactive)
REMARK    1  A    between atoms: C_1  and  C_2
REMARK    2  A    between atoms: C_5  and  C_6
REMARK    3  A    between atoms: C_6  and  N_7
REMARK    4  A    between atoms: N_7  and  C_8
REMARK    5  A    between atoms: N_16  and  C_17
REMARK    6  A    between atoms: C_17  and  C_18
REMARK                            x       y       z     vdW  Elec       q    Type
REMARK                         _______ _______ _______ _____ _____    ______ ____
ROOT
ATOM      1  C   UNL     1       4.896   4.508  19.225  0.00  0.00    +0.000 A 
ATOM      2  N   UNL     1       5.317   3.307  19.714  0.00  0.00    +0.000 NA
ATOM      3  C   UNL     1       4.544   2.214  19.637  0.00  0.00    +0.000 A 
ATOM      4  N   UNL     1       5.034   1.020  20.138  0.00  0.00    +0.000 N 
ATOM      5  N   UNL     1       3.313   2.159  19.168  0.00  0.00    +0.000 NA
ATOM      6  C   UNL     1       2.841   3.327  18.713  0.00  0.00    +0.000 A 
ATOM      7  C   UNL     1       1.557   3.536  18.174  0.00  0.00    +0.000 A 
ATOM      8  C   UNL     1       1.484   4.858  17.836  0.00  0.00    +0.000 A 
ATOM      9  N   UNL     1       2.698   5.452  18.141  0.00  0.00    +0.000 N 
ATOM     10  C   UNL     1       3.568   4.529  18.703  0.00  0.00    +0.000 A 
ATOM     11  H   UNL     1       5.692   1.195  20.876  0.00  0.00    +0.000 HD
ATOM     12  H   UNL     1       4.241   0.427  20.353  0.00  0.00    +0.000 HD
ENDROOT
BRANCH   1  13
ATOM     13  N   UNL     1       5.789   5.568  19.266  0.00  0.00    +0.000 N 
ATOM     14  H   UNL     1       5.867   6.146  20.083  0.00  0.00    +0.000 HD
BRANCH  13  15
ATOM     15  C   UNL     1       6.914   5.654  18.301  0.00  0.00    +0.000 C 
BRANCH  15  20
ATOM     16  C   UNL     1       6.234   3.836  13.739  0.00  0.00    +0.000 C 
ATOM     17  C   UNL     1       6.256   4.805  14.859  0.00  0.00    +0.000 A 
ATOM     18  N   UNL     1       5.863   6.066  14.825  0.00  0.00    +0.000 NA
ATOM     19  N   UNL     1       6.037   6.569  16.099  0.00  0.00    +0.000 NA
ATOM     20  C   UNL     1       6.524   5.593  16.838  0.00  0.00    +0.000 A 
ATOM     21  O   UNL     1       6.681   4.421  16.119  0.00  0.00    +0.000 OA
ENDBRANCH  15  20
ENDBRANCH  13  15
ENDBRANCH   1  13
BRANCH   9  22
ATOM     22  C   UNL     1       2.934   6.837  17.764  0.00  0.00    +0.000 C 
BRANCH  22  23
ATOM     23  C   UNL     1       2.303   7.866  18.672  0.00  0.00    +0.000 A 
ATOM     24  C   UNL     1       1.705   9.027  18.189  0.00  0.00    +0.000 A 
ATOM     25  C   UNL     1       0.861   9.749  19.033  0.00  0.00    +0.000 A 
ATOM     26  C   UNL     1       0.661   9.315  20.338  0.00  0.00    +0.000 A 
ATOM     27  C   UNL     1       1.371   8.212  20.772  0.00  0.00    +0.000 A 
ATOM     28  N   UNL     1       2.177   7.484  19.972  0.00  0.00    +0.000 NA
ENDBRANCH  22  23
ENDBRANCH   9  22
TORSDOF 5
ENDMDL
MODEL 2
REMARK VINA RESULT:      -8.3      1.335      1.669
REMARK  Name = 
REMARK  6 active torsions:
REMARK  status: ('A' for Active; 'I' for Inactive)
REMARK    1  A    between atoms: C_1  and  C_2
REMARK    2  A    between atoms: C_5  and  C_6
REMARK    3  A    between atoms: C_6  and  N_7
REMARK    4  A    between atoms: N_7  and  C_8
REMARK    5  A    between atoms: N_16  and  C_17
REMARK    6  A    between atoms: C_17  and  C_18
REMARK                            x       y       z     vdW  Elec       q    Type
REMARK                         _______ _______ _______ _____ _____    ______ ____
ROOT
ATOM      1  C   UNL     1       4.667   4.654  19.212  0.00  0.00    +0.000 A 
ATOM      2  N   UNL     1       5.212   3.421  19.419  0.00  0.00    +0.000 NA
ATOM      3  C   UNL     1       4.515   2.444  20.017  0.00  0.00    +0.000 A 
ATOM      4  N   UNL     1       5.117   1.209  20.187  0.00  0.00    +0.000 N 
ATOM      5  N   UNL     1       3.301   2.547  20.523  0.00  0.00    +0.000 NA
ATOM      6  C   UNL     1       2.741   3.755  20.378  0.00  0.00    +0.000 A 
ATOM      7  C   UNL     1       1.462   4.123  20.838  0.00  0.00    +0.000 A 
ATOM      8  C   UNL     1       1.283   5.432  20.488  0.00  0.00    +0.000 A 
ATOM      9  N   UNL     1       2.414   5.861  19.813  0.00  0.00    +0.000 N 
ATOM     10  C   UNL     1       3.354   4.843  19.736  0.00  0.00    +0.000 A 
ATOM     11  H   UNL     1       6.114   1.314  20.253  0.00  0.00    +0.000 HD
ATOM     12  H   UNL     1       4.648   0.738  20.952  0.00  0.00    +0.000 HD
ENDROOT
BRANCH   1  13
ATOM     13  N   UNL     1       5.424   5.581  18.509  0.00  0.00    +0.000 N 
ATOM     14  H   UNL     1       5.216   6.562  18.562  0.00  0.00    +0.000 HD
BRANCH  13  15
ATOM     15  C   UNL     1       6.768   5.228  17.988  0.00  0.00    +0.000 C 
BRANCH  15  20
ATOM     16  C   UNL     1       6.108   3.646  13.336  0.00  0.00    +0.000 C 
ATOM     17  C   UNL     1       6.614   4.455  14.469  0.00  0.00    +0.000 A 
ATOM     18  N   UNL     1       7.427   5.494  14.403  0.00  0.00    +0.000 NA
ATOM     19  N   UNL     1       7.599   5.945  15.696  0.00  0.00    +0.000 NA
ATOM     20  C   UNL     1       6.885   5.162  16.478  0.00  0.00    +0.000 A 
ATOM     21  O   UNL     1       6.210   4.187  15.766  0.00  0.00    +0.000 OA
ENDBRANCH  15  20
ENDBRANCH  13  15
ENDBRANCH   1  13
BRANCH   9  22
ATOM     22  C   UNL     1       2.435   7.188  19.217  0.00  0.00    +0.000 C 
BRANCH  22  23
ATOM     23  C   UNL     1       1.616   8.230  19.944  0.00  0.00    +0.000 A 
ATOM     24  C   UNL     1       1.495   8.256  21.330  0.00  0.00    +0.000 A 
ATOM     25  C   UNL     1       1.018   9.415  21.941  0.00  0.00    +0.000 A 
ATOM     26  C   UNL     1       0.646  10.500  21.157  0.00  0.00    +0.000 A 
ATOM     27  C   UNL     1       0.699  10.359  19.784  0.00  0.00    +0.000 A 
ATOM     28  N   UNL     1       1.175   9.257  19.167  0.00  0.00    +0.000 NA
ENDBRANCH  22  23
ENDBRANCH   9  22
TORSDOF 5
ENDMDL
MODEL 3
REMARK VINA RESULT:      -8.2      2.612      5.915
REMARK  Name = 
REMARK  6 active torsions:
REMARK  status: ('A' for Active; 'I' for Inactive)
REMARK    1  A    between atoms: C_1  and  C_2
REMARK    2  A    between atoms: C_5  and  C_6
REMARK    3  A    between atoms: C_6  and  N_7
REMARK    4  A    between atoms: N_7  and  C_8
REMARK    5  A    between atoms: N_16  and  C_17
REMARK    6  A    between atoms: C_17  and  C_18
REMARK                            x       y       z     vdW  Elec       q    Type
REMARK                         _______ _______ _______ _____ _____    ______ ____
ROOT
ATOM      1  C   UNL     1       2.782   5.097  20.083  0.00  0.00    +0.000 A 
ATOM      2  N   UNL     1       2.169   4.478  21.131  0.00  0.00    +0.000 NA
ATOM      3  C   UNL     1       2.006   3.147  21.156  0.00  0.00    +0.000 A 
ATOM      4  N   UNL     1       1.388   2.575  22.255  0.00  0.00    +0.000 N 
ATOM      5  N   UNL     1       2.333   2.303  20.197  0.00  0.00    +0.000 NA
ATOM      6  C   UNL     1       2.904   2.872  19.128  0.00  0.00    +0.000 A 
ATOM      7  C   UNL     1       3.333   2.193  17.972  0.00  0.00    +0.000 A 
ATOM      8  C   UNL     1       3.852   3.138  17.132  0.00  0.00    +0.000 A 
ATOM      9  N   UNL     1       3.762   4.371  17.758  0.00  0.00    +0.000 N 
ATOM     10  C   UNL     1       3.163   4.247  19.003  0.00  0.00    +0.000 A 
ATOM     11  H   UNL     1       0.754   3.230  22.678  0.00  0.00    +0.000 HD
ATOM     12  H   UNL     1       1.008   1.681  21.966  0.00  0.00    +0.000 HD
ENDROOT
BRANCH   1  13
ATOM     13  N   UNL     1       2.988   6.466  20.175  0.00  0.00    +0.000 N 
ATOM     14  H   UNL     1       3.841   6.835  20.554  0.00  0.00    +0.000 HD
BRANCH  13  15
ATOM     15  C   UNL     1       2.164   7.415  19.384  0.00  0.00    +0.000 C 
BRANCH  15  20
ATOM     16  C   UNL     1      -0.097   9.563  23.238  0.00  0.00    +0.000 C 
ATOM     17  C   UNL     1       0.403   9.358  21.858  0.00  0.00    +0.000 A 
ATOM     18  N   UNL     1       0.275  10.185  20.837  0.00  0.00    +0.000 NA
ATOM     19  N   UNL     1       0.917   9.595  19.767  0.00  0.00    +0.000 NA
ATOM     20  C   UNL     1       1.401   8.446  20.191  0.00  0.00    +0.000 A 
ATOM     21  O   UNL     1       1.127   8.225  21.529  0.00  0.00    +0.000 OA
ENDBRANCH  15  20
ENDBRANCH  13  15
ENDBRANCH   1  13
BRANCH   9  22
ATOM     22  C   UNL     1       4.360   5.540  17.130  0.00  0.00    +0.000 C 
BRANCH  22  23
ATOM     23  C   UNL     1       5.599   6.071  17.812  0.00  0.00    +0.000 A 
ATOM     24  C   UNL     1       6.249   5.381  18.831  0.00  0.00    +0.000 A 
ATOM     25  C   UNL     1       7.548   5.756  19.174  0.00  0.00    +0.000 A 
ATOM     26  C   UNL     1       8.149   6.824  18.519  0.00  0.00    +0.000 A 
ATOM     27  C   UNL     1       7.401   7.522  17.592  0.00  0.00    +0.000 A 
ATOM     28  N   UNL     1       6.150   7.169  17.227  0.00  0.00    +0.000 NA
ENDBRANCH  22  23
ENDBRANCH   9  22
TORSDOF 5
ENDMDL
MODEL 4
REMARK VINA RESULT:      -8.2      0.841      1.135
REMARK  Name = 
REMARK  6 active torsions:
REMARK  status: ('A' for Active; 'I' for Inactive)
REMARK    1  A    between atoms: C_1  and  C_2
REMARK    2  A    between atoms: C_5  and  C_6
REMARK    3  A    between atoms: C_6  and  N_7
REMARK    4  A    between atoms: N_7  and  C_8
REMARK    5  A    between atoms: N_16  and  C_17
REMARK    6  A    between atoms: C_17  and  C_18
REMARK                            x       y       z     vdW  Elec       q    Type
REMARK                         _______ _______ _______ _____ _____    ______ ____
ROOT
ATOM      1  C   UNL     1       4.975   4.481  19.226  0.00  0.00    +0.000 A 
ATOM      2  N   UNL     1       5.358   3.258  19.694  0.00  0.00    +0.000 NA
ATOM      3  C   UNL     1       4.551   2.192  19.595  0.00  0.00    +0.000 A 
ATOM      4  N   UNL     1       5.002   0.974  20.075  0.00  0.00    +0.000 N 
ATOM      5  N   UNL     1       3.320   2.184  19.122  0.00  0.00    +0.000 NA
ATOM      6  C   UNL     1       2.886   3.375  18.688  0.00  0.00    +0.000 A 
ATOM      7  C   UNL     1       1.611   3.633  18.149  0.00  0.00    +0.000 A 
ATOM      8  C   UNL     1       1.581   4.963  17.836  0.00  0.00    +0.000 A 
ATOM      9  N   UNL     1       2.812   5.513  18.155  0.00  0.00    +0.000 N 
ATOM     10  C   UNL     1       3.651   4.553  18.702  0.00  0.00    +0.000 A 
ATOM     11  H   UNL     1       5.663   1.115  20.818  0.00  0.00    +0.000 HD
ATOM     12  H   UNL     1       4.190   0.401  20.277  0.00  0.00    +0.000 HD
ENDROOT
BRANCH   1  13
ATOM     13  N   UNL     1       5.902   5.512  19.290  0.00  0.00    +0.000 N 
ATOM     14  H   UNL     1       5.837   6.220  19.998  0.00  0.00    +0.000 HD
BRANCH  13  15
ATOM     15  C   UNL     1       7.210   5.403  18.597  0.00  0.00    +0.000 C 
BRANCH  15  20
ATOM     16  C   UNL     1       6.213   3.672  14.060  0.00  0.00    +0.000 C 
ATOM     17  C   UNL     1       6.729   4.565  15.123  0.00  0.00    +0.000 A 
ATOM     18  N   UNL     1       7.358   5.715  14.958  0.00  0.00    +0.000 NA
ATOM     19  N   UNL     1       7.622   6.205  16.221  0.00  0.00    +0.000 NA
ATOM     20  C   UNL     1       7.143   5.334  17.084  0.00  0.00    +0.000 A 
ATOM     21  O   UNL     1       6.539   4.257  16.459  0.00  0.00    +0.000 OA
ENDBRANCH  15  20
ENDBRANCH  13  15
ENDBRANCH   1  13
BRANCH   9  22
ATOM     22  C   UNL     1       3.092   6.897  17.804  0.00  0.00    +0.000 C 
BRANCH  22  23
ATOM     23  C   UNL     1       2.160   7.915  18.417  0.00  0.00    +0.000 A 
ATOM     24  C   UNL     1       1.814   7.900  19.766  0.00  0.00    +0.000 A 
ATOM     25  C   UNL     1       1.237   9.040  20.323  0.00  0.00    +0.000 A 
ATOM     26  C   UNL     1       0.990  10.147  19.521  0.00  0.00    +0.000 A 
ATOM     27  C   UNL     1       1.267  10.047  18.172  0.00  0.00    +0.000 A 
ATOM     28  N   UNL     1       1.845   8.964  17.609  0.00  0.00    +0.000 NA
ENDBRANCH  22  23
ENDBRANCH   9  22
TORSDOF 5
ENDMDL
MODEL 5
REMARK VINA RESULT:      -8.2      2.685      5.871
REMARK  Name = 
REMARK  6 active torsions:
REMARK  status: ('A' for Active; 'I' for Inactive)
REMARK    1  A    between atoms: C_1  and  C_2
REMARK    2  A    between atoms: C_5  and  C_6
REMARK    3  A    between atoms: C_6  and  N_7
REMARK    4  A    between atoms: N_7  and  C_8
REMARK    5  A    between atoms: N_16  and  C_17
REMARK    6  A    between atoms: C_17  and  C_18
REMARK                            x       y       z     vdW  Elec       q    Type
REMARK                         _______ _______ _______ _____ _____    ______ ____
ROOT
ATOM      1  C   UNL     1       2.569   5.052  20.112  0.00  0.00    +0.000 A 
ATOM      2  N   UNL     1       1.936   4.427  21.146  0.00  0.00    +0.000 NA
ATOM      3  C   UNL     1       1.654   3.117  21.100  0.00  0.00    +0.000 A 
ATOM      4  N   UNL     1       1.024   2.536  22.187  0.00  0.00    +0.000 N 
ATOM      5  N   UNL     1       1.870   2.306  20.082  0.00  0.00    +0.000 NA
ATOM      6  C   UNL     1       2.454   2.887  19.026  0.00  0.00    +0.000 A 
ATOM      7  C   UNL     1       2.781   2.244  17.817  0.00  0.00    +0.000 A 
ATOM      8  C   UNL     1       3.355   3.189  17.013  0.00  0.00    +0.000 A 
ATOM      9  N   UNL     1       3.399   4.385  17.712  0.00  0.00    +0.000 N 
ATOM     10  C   UNL     1       2.833   4.238  18.970  0.00  0.00    +0.000 A 
ATOM     11  H   UNL     1       0.467   3.218  22.672  0.00  0.00    +0.000 HD
ATOM     12  H   UNL     1       0.554   1.699  21.862  0.00  0.00    +0.000 HD
ENDROOT
BRANCH   1  13
ATOM     13  N   UNL     1       2.901   6.389  20.275  0.00  0.00    +0.000 N 
ATOM     14  H   UNL     1       3.757   6.656  20.726  0.00  0.00    +0.000 HD
BRANCH  13  15
ATOM     15  C   UNL     1       2.234   7.443  19.471  0.00  0.00    +0.000 C 
BRANCH  15  20
ATOM     16  C   UNL     1      -0.093   9.551  23.307  0.00  0.00    +0.000 C 
ATOM     17  C   UNL     1       0.370   9.323  21.919  0.00  0.00    +0.000 A 
ATOM     18  N   UNL     1       0.109  10.071  20.862  0.00  0.00    +0.000 NA
ATOM     19  N   UNL     1       0.769   9.494  19.796  0.00  0.00    +0.000 NA
ATOM     20  C   UNL     1       1.395   8.430  20.257  0.00  0.00    +0.000 A 
ATOM     21  O   UNL     1       1.201   8.258  21.616  0.00  0.00    +0.000 OA
ENDBRANCH  15  20
ENDBRANCH  13  15
ENDBRANCH   1  13
BRANCH   9  22
ATOM     22  C   UNL     1       4.080   5.531  17.130  0.00  0.00    +0.000 C 
BRANCH  22  23
ATOM     23  C   UNL     1       5.516   5.713  17.564  0.00  0.00    +0.000 A 
ATOM     24  C   UNL     1       6.405   6.545  16.888  0.00  0.00    +0.000 A 
ATOM     25  C   UNL     1       7.586   6.923  17.525  0.00  0.00    +0.000 A 
ATOM     26  C   UNL     1       7.866   6.438  18.796  0.00  0.00    +0.000 A 
ATOM     27  C   UNL     1       6.983   5.536  19.357  0.00  0.00    +0.000 A 
ATOM     28  N   UNL     1       5.823   5.169  18.773  0.00  0.00    +0.000 NA
ENDBRANCH  22  23
ENDBRANCH   9  22
TORSDOF 5
ENDMDL
MODEL 6
REMARK VINA RESULT:      -8.2      1.368      1.677
REMARK  Name = 
REMARK  6 active torsions:
REMARK  status: ('A' for Active; 'I' for Inactive)
REMARK    1  A    between atoms: C_1  and  C_2
REMARK    2  A    between atoms: C_5  and  C_6
REMARK    3  A    between atoms: C_6  and  N_7
REMARK    4  A    between atoms: N_7  and  C_8
REMARK    5  A    between atoms: N_16  and  C_17
REMARK    6  A    between atoms: C_17  and  C_18
REMARK                            x       y       z     vdW  Elec       q    Type
REMARK                         _______ _______ _______ _____ _____    ______ ____
ROOT
ATOM      1  C   UNL     1       4.386   4.171  19.131  0.00  0.00    +0.000 A 
ATOM      2  N   UNL     1       4.630   2.909  18.674  0.00  0.00    +0.000 NA
ATOM      3  C   UNL     1       3.665   1.978  18.653  0.00  0.00    +0.000 A 
ATOM      4  N   UNL     1       3.970   0.719  18.164  0.00  0.00    +0.000 N 
ATOM      5  N   UNL     1       2.435   2.117  19.108  0.00  0.00    +0.000 NA
ATOM      6  C   UNL     1       2.161   3.330  19.604  0.00  0.00    +0.000 A 
ATOM      7  C   UNL     1       0.929   3.728  20.157  0.00  0.00    +0.000 A 
ATOM      8  C   UNL     1       1.076   5.031  20.541  0.00  0.00    +0.000 A 
ATOM      9  N   UNL     1       2.361   5.438  20.220  0.00  0.00    +0.000 N 
ATOM     10  C   UNL     1       3.074   4.397  19.644  0.00  0.00    +0.000 A 
ATOM     11  H   UNL     1       4.945   0.519  18.300  0.00  0.00    +0.000 HD
ATOM     12  H   UNL     1       3.303   0.065  18.556  0.00  0.00    +0.000 HD
ENDROOT
BRANCH   1  13
ATOM     13  N   UNL     1       5.414   5.098  19.039  0.00  0.00    +0.000 N 
ATOM     14  H   UNL     1       6.285   4.951  19.516  0.00  0.00    +0.000 HD
BRANCH  13  15
ATOM     15  C   UNL     1       5.430   6.111  17.955  0.00  0.00    +0.000 C 
BRANCH  15  20
ATOM     16  C   UNL     1       6.166   3.836  13.612  0.00  0.00    +0.000 C 
ATOM     17  C   UNL     1       6.434   4.675  14.803  0.00  0.00    +0.000 A 
ATOM     18  N   UNL     1       7.529   5.369  15.057  0.00  0.00    +0.000 NA
ATOM     19  N   UNL     1       7.319   6.015  16.258  0.00  0.00    +0.000 NA
ATOM     20  C   UNL     1       6.113   5.683  16.671  0.00  0.00    +0.000 A 
ATOM     21  O   UNL     1       5.471   4.836  15.785  0.00  0.00    +0.000 OA
ENDBRANCH  15  20
ENDBRANCH  13  15
ENDBRANCH   1  13
BRANCH   9  22
ATOM     22  C   UNL     1       2.742   6.829  20.410  0.00  0.00    +0.000 C 
BRANCH  22  23
ATOM     23  C   UNL     1       1.884   7.835  19.678  0.00  0.00    +0.000 A 
ATOM     24  C   UNL     1       1.045   8.728  20.340  0.00  0.00    +0.000 A 
ATOM     25  C   UNL     1       0.552   9.829  19.641  0.00  0.00    +0.000 A 
ATOM     26  C   UNL     1       0.879   9.994  18.301  0.00  0.00    +0.000 A 
ATOM     27  C   UNL     1       1.632   9.011  17.690  0.00  0.00    +0.000 A 
ATOM     28  N   UNL     1       2.139   7.946  18.346  0.00  0.00    +0.000 NA
ENDBRANCH  22  23
ENDBRANCH   9  22
TORSDOF 5
ENDMDL
MODEL 7
REMARK VINA RESULT:      -8.0      2.741      5.986
REMARK  Name = 
REMARK  6 active torsions:
REMARK  status: ('A' for Active; 'I' for Inactive)
REMARK    1  A    between atoms: C_1  and  C_2
REMARK    2  A    between atoms: C_5  and  C_6
REMARK    3  A    between atoms: C_6  and  N_7
REMARK    4  A    between atoms: N_7  and  C_8
REMARK    5  A    between atoms: N_16  and  C_17
REMARK    6  A    between atoms: C_17  and  C_18
REMARK                            x       y       z     vdW  Elec       q    Type
REMARK                         _______ _______ _______ _____ _____    ______ ____
ROOT
ATOM      1  C   UNL     1       2.473   5.145  20.213  0.00  0.00    +0.000 A 
ATOM      2  N   UNL     1       1.853   4.445  21.205  0.00  0.00    +0.000 NA
ATOM      3  C   UNL     1       1.666   3.121  21.110  0.00  0.00    +0.000 A 
ATOM      4  N   UNL     1       1.043   2.463  22.157  0.00  0.00    +0.000 N 
ATOM      5  N   UNL     1       1.972   2.360  20.077  0.00  0.00    +0.000 NA
ATOM      6  C   UNL     1       2.548   3.014  19.059  0.00  0.00    +0.000 A 
ATOM      7  C   UNL     1       2.958   2.435  17.844  0.00  0.00    +0.000 A 
ATOM      8  C   UNL     1       3.490   3.443  17.090  0.00  0.00    +0.000 A 
ATOM      9  N   UNL     1       3.427   4.616  17.825  0.00  0.00    +0.000 N 
ATOM     10  C   UNL     1       2.832   4.390  19.058  0.00  0.00    +0.000 A 
ATOM     11  H   UNL     1       0.424   3.088  22.642  0.00  0.00    +0.000 HD
ATOM     12  H   UNL     1       0.646   1.606  21.792  0.00  0.00    +0.000 HD
ENDROOT
BRANCH   1  13
ATOM     13  N   UNL     1       2.704   6.497  20.427  0.00  0.00    +0.000 N 
ATOM     14  H   UNL     1       3.577   6.817  20.806  0.00  0.00    +0.000 HD
BRANCH  13  15
ATOM     15  C   UNL     1       1.867   7.527  19.763  0.00  0.00    +0.000 C 
BRANCH  15  20
ATOM     16  C   UNL     1      -0.459  11.664  21.194  0.00  0.00    +0.000 C 
ATOM     17  C   UNL     1       0.332  10.415  21.281  0.00  0.00    +0.000 A 
ATOM     18  N   UNL     1       0.824   9.861  22.375  0.00  0.00    +0.000 NA
ATOM     19  N   UNL     1       1.458   8.701  21.979  0.00  0.00    +0.000 NA
ATOM     20  C   UNL     1       1.320   8.609  20.672  0.00  0.00    +0.000 A 
ATOM     21  O   UNL     1       0.595   9.664  20.148  0.00  0.00    +0.000 OA
ENDBRANCH  15  20
ENDBRANCH  13  15
ENDBRANCH   1  13
BRANCH   9  22
ATOM     22  C   UNL     1       4.043   5.825  17.301  0.00  0.00    +0.000 C 
BRANCH  22  23
ATOM     23  C   UNL     1       5.511   5.986  17.619  0.00  0.00    +0.000 A 
ATOM     24  C   UNL     1       6.315   6.936  16.995  0.00  0.00    +0.000 A 
ATOM     25  C   UNL     1       7.546   7.254  17.566  0.00  0.00    +0.000 A 
ATOM     26  C   UNL     1       7.958   6.597  18.719  0.00  0.00    +0.000 A 
ATOM     27  C   UNL     1       7.150   5.595  19.219  0.00  0.00    +0.000 A 
ATOM     28  N   UNL     1       5.945   5.281  18.700  0.00  0.00    +0.000 NA
ENDBRANCH  22  23
ENDBRANCH   9  22
TORSDOF 5
ENDMDL
MODEL 8
REMARK VINA RESULT:      -8.0      2.624      5.323
REMARK  Name = 
REMARK  6 active torsions:
REMARK  status: ('A' for Active; 'I' for Inactive)
REMARK    1  A    between atoms: C_1  and  C_2
REMARK    2  A    between atoms: C_5  and  C_6
REMARK    3  A    between atoms: C_6  and  N_7
REMARK    4  A    between atoms: N_7  and  C_8
REMARK    5  A    between atoms: N_16  and  C_17
REMARK    6  A    between atoms: C_17  and  C_18
REMARK                            x       y       z     vdW  Elec       q    Type
REMARK                         _______ _______ _______ _____ _____    ______ ____
ROOT
ATOM      1  C   UNL     1       2.659   5.114  20.149  0.00  0.00    +0.000 A 
ATOM      2  N   UNL     1       2.066   4.440  21.175  0.00  0.00    +0.000 NA
ATOM      3  C   UNL     1       1.945   3.105  21.153  0.00  0.00    +0.000 A 
ATOM      4  N   UNL     1       1.346   2.476  22.231  0.00  0.00    +0.000 N 
ATOM      5  N   UNL     1       2.298   2.305  20.166  0.00  0.00    +0.000 NA
ATOM      6  C   UNL     1       2.850   2.929  19.117  0.00  0.00    +0.000 A 
ATOM      7  C   UNL     1       3.300   2.304  17.938  0.00  0.00    +0.000 A 
ATOM      8  C   UNL     1       3.788   3.294  17.132  0.00  0.00    +0.000 A 
ATOM      9  N   UNL     1       3.660   4.501  17.800  0.00  0.00    +0.000 N 
ATOM     10  C   UNL     1       3.066   4.314  19.040  0.00  0.00    +0.000 A 
ATOM     11  H   UNL     1       0.692   3.095  22.677  0.00  0.00    +0.000 HD
ATOM     12  H   UNL     1       0.995   1.581  21.911  0.00  0.00    +0.000 HD
ENDROOT
BRANCH   1  13
ATOM     13  N   UNL     1       2.821   6.485  20.289  0.00  0.00    +0.000 N 
ATOM     14  H   UNL     1       3.700   6.925  20.082  0.00  0.00    +0.000 HD
BRANCH  13  15
ATOM     15  C   UNL     1       1.645   7.388  20.361  0.00  0.00    +0.000 C 
BRANCH  15  20
ATOM     16  C   UNL     1       0.932  11.983  18.643  0.00  0.00    +0.000 C 
ATOM     17  C   UNL     1       1.339  10.559  18.672  0.00  0.00    +0.000 A 
ATOM     18  N   UNL     1       1.933   9.882  17.706  0.00  0.00    +0.000 NA
ATOM     19  N   UNL     1       2.146   8.607  18.189  0.00  0.00    +0.000 NA
ATOM     20  C   UNL     1       1.674   8.574  19.418  0.00  0.00    +0.000 A 
ATOM     21  O   UNL     1       1.151   9.793  19.810  0.00  0.00    +0.000 OA
ENDBRANCH  15  20
ENDBRANCH  13  15
ENDBRANCH   1  13
BRANCH   9  22
ATOM     22  C   UNL     1       4.220   5.709  17.213  0.00  0.00    +0.000 C 
BRANCH  22  23
ATOM     23  C   UNL     1       5.667   5.976  17.557  0.00  0.00    +0.000 A 
ATOM     24  C   UNL     1       6.402   7.001  16.965  0.00  0.00    +0.000 A 
ATOM     25  C   UNL     1       7.598   7.399  17.560  0.00  0.00    +0.000 A 
ATOM     26  C   UNL     1       8.045   6.750  18.704  0.00  0.00    +0.000 A 
ATOM     27  C   UNL     1       7.312   5.676  19.170  0.00  0.00    +0.000 A 
ATOM     28  N   UNL     1       6.141   5.281  18.627  0.00  0.00    +0.000 NA
ENDBRANCH  22  23
ENDBRANCH   9  22
TORSDOF 5
ENDMDL
MODEL 9
REMARK VINA RESULT:      -7.9      2.575      5.865
REMARK  Name = 
REMARK  6 active torsions:
REMARK  status: ('A' for Active; 'I' for Inactive)
REMARK    1  A    between atoms: C_1  and  C_2
REMARK    2  A    between atoms: C_5  and  C_6
REMARK    3  A    between atoms: C_6  and  N_7
REMARK    4  A    between atoms: N_7  and  C_8
REMARK    5  A    between atoms: N_16  and  C_17
REMARK    6  A    between atoms: C_17  and  C_18
REMARK                            x       y       z     vdW  Elec       q    Type
REMARK                         _______ _______ _______ _____ _____    ______ ____
ROOT
ATOM      1  C   UNL     1       2.844   5.111  20.011  0.00  0.00    +0.000 A 
ATOM      2  N   UNL     1       2.237   4.488  21.061  0.00  0.00    +0.000 NA
ATOM      3  C   UNL     1       2.088   3.156  21.089  0.00  0.00    +0.000 A 
ATOM      4  N   UNL     1       1.477   2.581  22.191  0.00  0.00    +0.000 N 
ATOM      5  N   UNL     1       2.423   2.312  20.133  0.00  0.00    +0.000 NA
ATOM      6  C   UNL     1       2.987   2.884  19.061  0.00  0.00    +0.000 A 
ATOM      7  C   UNL     1       3.422   2.206  17.907  0.00  0.00    +0.000 A 
ATOM      8  C   UNL     1       3.930   3.154  17.064  0.00  0.00    +0.000 A 
ATOM      9  N   UNL     1       3.829   4.389  17.687  0.00  0.00    +0.000 N 
ATOM     10  C   UNL     1       3.232   4.261  18.932  0.00  0.00    +0.000 A 
ATOM     11  H   UNL     1       0.837   3.230  22.613  0.00  0.00    +0.000 HD
ATOM     12  H   UNL     1       1.106   1.682  21.905  0.00  0.00    +0.000 HD
ENDROOT
BRANCH   1  13
ATOM     13  N   UNL     1       3.036   6.482  20.099  0.00  0.00    +0.000 N 
ATOM     14  H   UNL     1       3.894   6.861  20.456  0.00  0.00    +0.000 HD
BRANCH  13  15
ATOM     15  C   UNL     1       2.180   7.421  19.332  0.00  0.00    +0.000 C 
BRANCH  15  20
ATOM     16  C   UNL     1      -0.567  11.397  20.437  0.00  0.00    +0.000 C 
ATOM     17  C   UNL     1       0.268  10.189  20.630  0.00  0.00    +0.000 A 
ATOM     18  N   UNL     1       0.612   9.636  21.779  0.00  0.00    +0.000 NA
ATOM     19  N   UNL     1       1.363   8.521  21.473  0.00  0.00    +0.000 NA
ATOM     20  C   UNL     1       1.438   8.452  20.159  0.00  0.00    +0.000 A 
ATOM     21  O   UNL     1       0.747   9.480  19.542  0.00  0.00    +0.000 OA
ENDBRANCH  15  20
ENDBRANCH  13  15
ENDBRANCH   1  13
BRANCH   9  22
ATOM     22  C   UNL     1       4.415   5.561  17.055  0.00  0.00    +0.000 C 
BRANCH  22  23
ATOM     23  C   UNL     1       5.638   6.117  17.745  0.00  0.00    +0.000 A 
ATOM     24  C   UNL     1       6.286   5.448  18.779  0.00  0.00    +0.000 A 
ATOM     25  C   UNL     1       7.575   5.844  19.132  0.00  0.00    +0.000 A 
ATOM     26  C   UNL     1       8.170   6.912  18.471  0.00  0.00    +0.000 A 
ATOM     27  C   UNL     1       7.423   7.589  17.527  0.00  0.00    +0.000 A 
ATOM     28  N   UNL     1       6.181   7.216  17.152  0.00  0.00    +0.000 NA
ENDBRANCH  22  23
ENDBRANCH   9  22
TORSDOF 5
ENDMDL
