MODEL 1
REMARK VINA RESULT:      -7.9      0.000      0.000
REMARK  Name = 
REMARK  4 active torsions:
REMARK  status: ('A' for Active; 'I' for Inactive)
REMARK    1  A    between atoms: C_1  and  C_2
REMARK    2  A    between atoms: C_2  and  C_3
REMARK    3  A    between atoms: C_12  and  N_13
REMARK    4  A    between atoms: C_19  and  O_20
REMARK                            x       y       z     vdW  Elec       q    Type
REMARK                         _______ _______ _______ _____ _____    ______ ____
ROOT
ATOM      1  C   UNL     1       3.030   2.399  20.086  0.00  0.00    +0.000 C 
ATOM      2  C   UNL     1       2.775   3.700  19.301  0.00  0.00    +0.000 C 
ATOM      3  C   UNL     1       1.448   3.512  18.519  0.00  0.00    +0.000 C 
ATOM      4  O   UNL     1       2.658   4.755  20.210  0.00  0.00    +0.000 OA
ATOM      5  C   UNL     1       2.500   6.033  19.774  0.00  0.00    +0.000 A 
ATOM      6  C   UNL     1       1.938   6.993  20.612  0.00  0.00    +0.000 A 
ATOM      7  C   UNL     1       1.638   8.270  20.118  0.00  0.00    +0.000 A 
ATOM      8  C   UNL     1       1.816   8.536  18.758  0.00  0.00    +0.000 A 
ATOM      9 CL   UNL     1       1.362  10.094  18.083  0.00  0.00    +0.000 Cl
ATOM     10  C   UNL     1       2.389   7.571  17.936  0.00  0.00    +0.000 A 
ATOM     11  C   UNL     1       2.844   6.365  18.448  0.00  0.00    +0.000 A 
ATOM     12  C   UNL     1       3.677   5.417  17.588  0.00  0.00    +0.000 C 
ATOM     13  C   UNL     1       3.955   4.068  18.367  0.00  0.00    +0.000 C 
ENDROOT
BRANCH  12  14
ATOM     14  N   UNL     1       4.986   6.036  17.149  0.00  0.00    +0.000 NA
ATOM     15  C   UNL     1       5.254   6.221  15.697  0.00  0.00    +0.000 C 
ATOM     16  C   UNL     1       5.927   4.992  15.077  0.00  0.00    +0.000 C 
ATOM     17  C   UNL     1       7.286   4.772  15.746  0.00  0.00    +0.000 C 
ATOM     18  C   UNL     1       7.154   4.645  17.262  0.00  0.00    +0.000 C 
ATOM     19  C   UNL     1       6.247   5.752  17.893  0.00  0.00    +0.000 C 
ENDBRANCH  12  14
BRANCH  13  20
ATOM     20  O   UNL     1       4.350   3.038  17.504  0.00  0.00    +0.000 OA
ATOM     21  H   UNL     1       4.917   2.413  18.020  0.00  0.00    +0.000 HD
ENDBRANCH  13  20
TORSDOF 2
ENDMDL
MODEL 2
REMARK VINA RESULT:      -7.4      1.877      4.286
REMARK  Name = 
REMARK  4 active torsions:
REMARK  status: ('A' for Active; 'I' for Inactive)
REMARK    1  A    between atoms: C_1  and  C_2
REMARK    2  A    between atoms: C_2  and  C_3
REMARK    3  A    between atoms: C_12  and  N_13
REMARK    4  A    between atoms: C_19  and  O_20
REMARK                            x       y       z     vdW  Elec       q    Type
REMARK                         _______ _______ _______ _____ _____    ______ ____
ROOT
ATOM      1  C   UNL     1       6.674   5.898  15.361  0.00  0.00    +0.000 C 
ATOM      2  C   UNL     1       5.893   5.969  16.687  0.00  0.00    +0.000 C 
ATOM      3  C   UNL     1       6.800   6.696  17.715  0.00  0.00    +0.000 C 
ATOM      4  O   UNL     1       4.718   6.695  16.475  0.00  0.00    +0.000 OA
ATOM      5  C   UNL     1       3.807   6.848  17.472  0.00  0.00    +0.000 A 
ATOM      6  C   UNL     1       2.900   7.905  17.436  0.00  0.00    +0.000 A 
ATOM      7  C   UNL     1       2.061   8.151  18.531  0.00  0.00    +0.000 A 
ATOM      8  C   UNL     1       2.211   7.389  19.692  0.00  0.00    +0.000 A 
ATOM      9 CL   UNL     1       1.243   7.730  21.119  0.00  0.00    +0.000 Cl
ATOM     10  C   UNL     1       3.113   6.330  19.710  0.00  0.00    +0.000 A 
ATOM     11  C   UNL     1       3.828   5.972  18.576  0.00  0.00    +0.000 A 
ATOM     12  C   UNL     1       4.632   4.674  18.538  0.00  0.00    +0.000 C 
ATOM     13  C   UNL     1       5.449   4.572  17.188  0.00  0.00    +0.000 C 
ENDROOT
BRANCH  12  14
ATOM     14  N   UNL     1       3.759   3.450  18.706  0.00  0.00    +0.000 NA
ATOM     15  C   UNL     1       2.656   3.203  17.737  0.00  0.00    +0.000 C 
ATOM     16  C   UNL     1       1.349   3.874  18.172  0.00  0.00    +0.000 C 
ATOM     17  C   UNL     1       0.898   3.277  19.508  0.00  0.00    +0.000 C 
ATOM     18  C   UNL     1       1.984   3.398  20.575  0.00  0.00    +0.000 C 
ATOM     19  C   UNL     1       3.395   2.957  20.065  0.00  0.00    +0.000 C 
ENDBRANCH  12  14
BRANCH  13  20
ATOM     20  O   UNL     1       6.485   3.633  17.273  0.00  0.00    +0.000 OA
ATOM     21  H   UNL     1       6.799   3.446  16.354  0.00  0.00    +0.000 HD
ENDBRANCH  13  20
TORSDOF 2
ENDMDL
MODEL 3
REMARK VINA RESULT:      -7.2      1.357      1.956
REMARK  Name = 
REMARK  4 active torsions:
REMARK  status: ('A' for Active; 'I' for Inactive)
REMARK    1  A    between atoms: C_1  and  C_2
REMARK    2  A    between atoms: C_2  and  C_3
REMARK    3  A    between atoms: C_12  and  N_13
REMARK    4  A    between atoms: C_19  and  O_20
REMARK                            x       y       z     vdW  Elec       q    Type
REMARK                         _______ _______ _______ _____ _____    ______ ____
ROOT
ATOM      1  C   UNL     1       1.865   2.137  21.595  0.00  0.00    +0.000 C 
ATOM      2  C   UNL     1       1.923   3.172  20.455  0.00  0.00    +0.000 C 
ATOM      3  C   UNL     1       0.568   3.102  19.703  0.00  0.00    +0.000 C 
ATOM      4  O   UNL     1       2.106   4.440  21.012  0.00  0.00    +0.000 OA
ATOM      5  C   UNL     1       2.262   5.532  20.216  0.00  0.00    +0.000 A 
ATOM      6  C   UNL     1       1.988   6.804  20.713  0.00  0.00    +0.000 A 
ATOM      7  C   UNL     1       2.006   7.913  19.856  0.00  0.00    +0.000 A 
ATOM      8  C   UNL     1       2.203   7.717  18.487  0.00  0.00    +0.000 A 
ATOM      9 CL   UNL     1       2.137   9.070  17.368  0.00  0.00    +0.000 Cl
ATOM     10  C   UNL     1       2.486   6.442  18.007  0.00  0.00    +0.000 A 
ATOM     11  C   UNL     1       2.637   5.364  18.868  0.00  0.00    +0.000 A 
ATOM     12  C   UNL     1       3.176   4.029  18.360  0.00  0.00    +0.000 C 
ATOM     13  C   UNL     1       3.128   2.942  19.508  0.00  0.00    +0.000 C 
ENDROOT
BRANCH  12  14
ATOM     14  N   UNL     1       4.585   4.143  17.819  0.00  0.00    +0.000 NA
ATOM     15  C   UNL     1       5.661   4.677  18.696  0.00  0.00    +0.000 C 
ATOM     16  C   UNL     1       5.778   6.201  18.599  0.00  0.00    +0.000 C 
ATOM     17  C   UNL     1       6.154   6.586  17.166  0.00  0.00    +0.000 C 
ATOM     18  C   UNL     1       5.159   6.025  16.152  0.00  0.00    +0.000 C 
ATOM     19  C   UNL     1       4.822   4.517  16.395  0.00  0.00    +0.000 C 
ENDBRANCH  12  14
BRANCH  13  20
ATOM     20  O   UNL     1       3.222   1.640  19.001  0.00  0.00    +0.000 OA
ATOM     21  H   UNL     1       2.440   1.131  19.328  0.00  0.00    +0.000 HD
ENDBRANCH  13  20
TORSDOF 2
ENDMDL
MODEL 4
REMARK VINA RESULT:      -7.0      3.330      5.874
REMARK  Name = 
REMARK  4 active torsions:
REMARK  status: ('A' for Active; 'I' for Inactive)
REMARK    1  A    between atoms: C_1  and  C_2
REMARK    2  A    between atoms: C_2  and  C_3
REMARK    3  A    between atoms: C_12  and  N_13
REMARK    4  A    between atoms: C_19  and  O_20
REMARK                            x       y       z     vdW  Elec       q    Type
REMARK                         _______ _______ _______ _____ _____    ______ ____
ROOT
ATOM      1  C   UNL     1       7.844   6.301  18.918  0.00  0.00    +0.000 C 
ATOM      2  C   UNL     1       6.830   5.930  17.819  0.00  0.00    +0.000 C 
ATOM      3  C   UNL     1       6.268   7.259  17.245  0.00  0.00    +0.000 C 
ATOM      4  O   UNL     1       7.494   5.212  16.821  0.00  0.00    +0.000 OA
ATOM      5  C   UNL     1       6.812   4.701  15.762  0.00  0.00    +0.000 A 
ATOM      6  C   UNL     1       7.480   4.403  14.576  0.00  0.00    +0.000 A 
ATOM      7  C   UNL     1       6.758   4.017  13.439  0.00  0.00    +0.000 A 
ATOM      8  C   UNL     1       5.362   4.029  13.479  0.00  0.00    +0.000 A 
ATOM      9 CL   UNL     1       4.421   3.643  12.045  0.00  0.00    +0.000 Cl
ATOM     10  C   UNL     1       4.708   4.317  14.673  0.00  0.00    +0.000 A 
ATOM     11  C   UNL     1       5.414   4.536  15.847  0.00  0.00    +0.000 A 
ATOM     12  C   UNL     1       4.690   4.618  17.189  0.00  0.00    +0.000 C 
ATOM     13  C   UNL     1       5.706   4.999  18.340  0.00  0.00    +0.000 C 
ENDROOT
BRANCH  12  14
ATOM     14  N   UNL     1       3.977   3.330  17.539  0.00  0.00    +0.000 NA
ATOM     15  C   UNL     1       2.547   3.164  17.162  0.00  0.00    +0.000 C 
ATOM     16  C   UNL     1       1.602   3.679  18.253  0.00  0.00    +0.000 C 
ATOM     17  C   UNL     1       1.815   2.861  19.529  0.00  0.00    +0.000 C 
ATOM     18  C   UNL     1       3.274   2.887  19.979  0.00  0.00    +0.000 C 
ATOM     19  C   UNL     1       4.280   2.617  18.812  0.00  0.00    +0.000 C 
ENDBRANCH  12  14
BRANCH  13  20
ATOM     20  O   UNL     1       5.048   5.474  19.483  0.00  0.00    +0.000 OA
ATOM     21  H   UNL     1       5.737   5.788  20.118  0.00  0.00    +0.000 HD
ENDBRANCH  13  20
TORSDOF 2
ENDMDL
MODEL 5
REMARK VINA RESULT:      -6.7      1.829      4.323
REMARK  Name = 
REMARK  4 active torsions:
REMARK  status: ('A' for Active; 'I' for Inactive)
REMARK    1  A    between atoms: C_1  and  C_2
REMARK    2  A    between atoms: C_2  and  C_3
REMARK    3  A    between atoms: C_12  and  N_13
REMARK    4  A    between atoms: C_19  and  O_20
REMARK                            x       y       z     vdW  Elec       q    Type
REMARK                         _______ _______ _______ _____ _____    ______ ____
ROOT
ATOM      1  C   UNL     1       5.246   6.039  15.769  0.00  0.00    +0.000 C 
ATOM      2  C   UNL     1       4.518   6.390  17.080  0.00  0.00    +0.000 C 
ATOM      3  C   UNL     1       5.591   6.903  18.077  0.00  0.00    +0.000 C 
ATOM      4  O   UNL     1       3.581   7.392  16.816  0.00  0.00    +0.000 OA
ATOM      5  C   UNL     1       2.747   7.839  17.794  0.00  0.00    +0.000 A 
ATOM      6  C   UNL     1       2.158   9.097  17.690  0.00  0.00    +0.000 A 
ATOM      7  C   UNL     1       1.420   9.619  18.761  0.00  0.00    +0.000 A 
ATOM      8  C   UNL     1       1.365   8.911  19.963  0.00  0.00    +0.000 A 
ATOM      9 CL   UNL     1       0.530   9.577  21.359  0.00  0.00    +0.000 Cl
ATOM     10  C   UNL     1       1.949   7.651  20.049  0.00  0.00    +0.000 A 
ATOM     11  C   UNL     1       2.537   7.052  18.944  0.00  0.00    +0.000 A 
ATOM     12  C   UNL     1       2.963   5.586  18.985  0.00  0.00    +0.000 C 
ATOM     13  C   UNL     1       3.716   5.193  17.651  0.00  0.00    +0.000 C 
ENDROOT
BRANCH  12  14
ATOM     14  N   UNL     1       1.793   4.652  19.209  0.00  0.00    +0.000 NA
ATOM     15  C   UNL     1       1.594   4.042  20.552  0.00  0.00    +0.000 C 
ATOM     16  C   UNL     1       2.346   2.715  20.697  0.00  0.00    +0.000 C 
ATOM     17  C   UNL     1       1.798   1.713  19.678  0.00  0.00    +0.000 C 
ATOM     18  C   UNL     1       1.874   2.259  18.253  0.00  0.00    +0.000 C 
ATOM     19  C   UNL     1       1.345   3.726  18.130  0.00  0.00    +0.000 C 
ENDBRANCH  12  14
BRANCH  13  20
ATOM     20  O   UNL     1       4.463   4.017  17.799  0.00  0.00    +0.000 OA
ATOM     21  H   UNL     1       4.025   3.467  18.494  0.00  0.00    +0.000 HD
ENDBRANCH  13  20
TORSDOF 2
ENDMDL
MODEL 6
REMARK VINA RESULT:      -6.1      1.064      1.657
REMARK  Name = 
REMARK  4 active torsions:
REMARK  status: ('A' for Active; 'I' for Inactive)
REMARK    1  A    between atoms: C_1  and  C_2
REMARK    2  A    between atoms: C_2  and  C_3
REMARK    3  A    between atoms: C_12  and  N_13
REMARK    4  A    between atoms: C_19  and  O_20
REMARK                            x       y       z     vdW  Elec       q    Type
REMARK                         _______ _______ _______ _____ _____    ______ ____
ROOT
ATOM      1  C   UNL     1       3.644   1.601  19.374  0.00  0.00    +0.000 C 
ATOM      2  C   UNL     1       3.335   2.937  18.672  0.00  0.00    +0.000 C 
ATOM      3  C   UNL     1       1.952   2.786  17.985  0.00  0.00    +0.000 C 
ATOM      4  O   UNL     1       3.291   3.948  19.635  0.00  0.00    +0.000 OA
ATOM      5  C   UNL     1       3.104   5.246  19.273  0.00  0.00    +0.000 A 
ATOM      6  C   UNL     1       2.611   6.166  20.194  0.00  0.00    +0.000 A 
ATOM      7  C   UNL     1       2.279   7.464  19.785  0.00  0.00    +0.000 A 
ATOM      8  C   UNL     1       2.355   7.794  18.429  0.00  0.00    +0.000 A 
ATOM      9 CL   UNL     1       1.856   9.381  17.864  0.00  0.00    +0.000 Cl
ATOM     10  C   UNL     1       2.860   6.869  17.522  0.00  0.00    +0.000 A 
ATOM     11  C   UNL     1       3.349   5.639  17.942  0.00  0.00    +0.000 A 
ATOM     12  C   UNL     1       4.111   4.732  16.978  0.00  0.00    +0.000 C 
ATOM     13  C   UNL     1       4.442   3.349  17.669  0.00  0.00    +0.000 C 
ENDROOT
BRANCH  12  14
ATOM     14  N   UNL     1       5.385   5.372  16.470  0.00  0.00    +0.000 NA
ATOM     15  C   UNL     1       6.690   4.709  16.739  0.00  0.00    +0.000 C 
ATOM     16  C   UNL     1       7.301   5.163  18.069  0.00  0.00    +0.000 C 
ATOM     17  C   UNL     1       7.580   6.666  18.007  0.00  0.00    +0.000 C 
ATOM     18  C   UNL     1       6.322   7.460  17.657  0.00  0.00    +0.000 C 
ATOM     19  C   UNL     1       5.533   6.855  16.450  0.00  0.00    +0.000 C 
ENDBRANCH  12  14
BRANCH  13  20
ATOM     20  O   UNL     1       4.767   2.360  16.731  0.00  0.00    +0.000 OA
ATOM     21  H   UNL     1       5.731   2.445  16.526  0.00  0.00    +0.000 HD
ENDBRANCH  13  20
TORSDOF 2
ENDMDL
MODEL 7
REMARK VINA RESULT:      -6.1      1.725      4.330
REMARK  Name = 
REMARK  4 active torsions:
REMARK  status: ('A' for Active; 'I' for Inactive)
REMARK    1  A    between atoms: C_1  and  C_2
REMARK    2  A    between atoms: C_2  and  C_3
REMARK    3  A    between atoms: C_12  and  N_13
REMARK    4  A    between atoms: C_19  and  O_20
REMARK                            x       y       z     vdW  Elec       q    Type
REMARK                         _______ _______ _______ _____ _____    ______ ____
ROOT
ATOM      1  C   UNL     1       5.993   4.528  16.859  0.00  0.00    +0.000 C 
ATOM      2  C   UNL     1       5.094   5.289  17.852  0.00  0.00    +0.000 C 
ATOM      3  C   UNL     1       6.030   5.999  18.866  0.00  0.00    +0.000 C 
ATOM      4  O   UNL     1       4.342   6.229  17.143  0.00  0.00    +0.000 OA
ATOM      5  C   UNL     1       3.410   6.992  17.775  0.00  0.00    +0.000 A 
ATOM      6  C   UNL     1       3.000   8.200  17.217  0.00  0.00    +0.000 A 
ATOM      7  C   UNL     1       2.153   9.056  17.935  0.00  0.00    +0.000 A 
ATOM      8  C   UNL     1       1.806   8.730  19.249  0.00  0.00    +0.000 A 
ATOM      9 CL   UNL     1       0.825   9.823  20.214  0.00  0.00    +0.000 Cl
ATOM     10  C   UNL     1       2.214   7.515  19.789  0.00  0.00    +0.000 A 
ATOM     11  C   UNL     1       2.911   6.586  19.029  0.00  0.00    +0.000 A 
ATOM     12  C   UNL     1       3.147   5.170  19.552  0.00  0.00    +0.000 C 
ATOM     13  C   UNL     1       4.070   4.362  18.554  0.00  0.00    +0.000 C 
ENDROOT
BRANCH  12  14
ATOM     14  N   UNL     1       1.855   4.417  19.782  0.00  0.00    +0.000 NA
ATOM     15  C   UNL     1       1.657   3.684  21.062  0.00  0.00    +0.000 C 
ATOM     16  C   UNL     1       2.178   2.245  20.985  0.00  0.00    +0.000 C 
ATOM     17  C   UNL     1       1.390   1.481  19.918  0.00  0.00    +0.000 C 
ATOM     18  C   UNL     1       1.450   2.182  18.563  0.00  0.00    +0.000 C 
ATOM     19  C   UNL     1       1.173   3.719  18.655  0.00  0.00    +0.000 C 
ENDBRANCH  12  14
BRANCH  13  20
ATOM     20  O   UNL     1       4.636   3.233  19.162  0.00  0.00    +0.000 OA
ATOM     21  H   UNL     1       4.835   2.576  18.451  0.00  0.00    +0.000 HD
ENDBRANCH  13  20
TORSDOF 2
ENDMDL
MODEL 8
REMARK VINA RESULT:      -5.9      5.644      8.109
REMARK  Name = 
REMARK  4 active torsions:
REMARK  status: ('A' for Active; 'I' for Inactive)
REMARK    1  A    between atoms: C_1  and  C_2
REMARK    2  A    between atoms: C_2  and  C_3
REMARK    3  A    between atoms: C_12  and  N_13
REMARK    4  A    between atoms: C_19  and  O_20
REMARK                            x       y       z     vdW  Elec       q    Type
REMARK                         _______ _______ _______ _____ _____    ______ ____
ROOT
ATOM      1  C   UNL     1       2.128   9.308  18.004  0.00  0.00    +0.000 C 
ATOM      2  C   UNL     1       1.129  10.172  18.798  0.00  0.00    +0.000 C 
ATOM      3  C   UNL     1      -0.256  10.018  18.115  0.00  0.00    +0.000 C 
ATOM      4  O   UNL     1       1.078   9.702  20.113  0.00  0.00    +0.000 OA
ATOM      5  C   UNL     1       0.321  10.335  21.048  0.00  0.00    +0.000 A 
ATOM      6  C   UNL     1      -0.100   9.653  22.187  0.00  0.00    +0.000 A 
ATOM      7  C   UNL     1      -0.999  10.256  23.077  0.00  0.00    +0.000 A 
ATOM      8  C   UNL     1      -1.542  11.503  22.760  0.00  0.00    +0.000 A 
ATOM      9 CL   UNL     1      -2.745  12.248  23.803  0.00  0.00    +0.000 Cl
ATOM     10  C   UNL     1      -1.104  12.178  21.625  0.00  0.00    +0.000 A 
ATOM     11  C   UNL     1      -0.091  11.665  20.827  0.00  0.00    +0.000 A 
ATOM     12  C   UNL     1       0.541  12.514  19.727  0.00  0.00    +0.000 C 
ATOM     13  C   UNL     1       1.572  11.654  18.891  0.00  0.00    +0.000 C 
ENDROOT
BRANCH  12  14
ATOM     14  N   UNL     1       1.225  13.749  20.273  0.00  0.00    +0.000 NA
ATOM     15  C   UNL     1       0.756  15.094  19.840  0.00  0.00    +0.000 C 
ATOM     16  C   UNL     1       1.475  15.573  18.575  0.00  0.00    +0.000 C 
ATOM     17  C   UNL     1       2.971  15.707  18.868  0.00  0.00    +0.000 C 
ATOM     18  C   UNL     1       3.561  14.402  19.399  0.00  0.00    +0.000 C 
ATOM     19  C   UNL     1       2.694  13.752  20.527  0.00  0.00    +0.000 C 
ENDBRANCH  12  14
BRANCH  13  20
ATOM     20  O   UNL     1       1.867  12.246  17.655  0.00  0.00    +0.000 OA
ATOM     21  H   UNL     1       1.452  11.692  16.949  0.00  0.00    +0.000 HD
ENDBRANCH  13  20
TORSDOF 2
ENDMDL
MODEL 9
REMARK VINA RESULT:      -5.8      1.148      1.495
REMARK  Name = 
REMARK  4 active torsions:
REMARK  status: ('A' for Active; 'I' for Inactive)
REMARK    1  A    between atoms: C_1  and  C_2
REMARK    2  A    between atoms: C_2  and  C_3
REMARK    3  A    between atoms: C_12  and  N_13
REMARK    4  A    between atoms: C_19  and  O_20
REMARK                            x       y       z     vdW  Elec       q    Type
REMARK                         _______ _______ _______ _____ _____    ______ ____
ROOT
ATOM      1  C   UNL     1       3.532   1.406  18.742  0.00  0.00    +0.000 C 
ATOM      2  C   UNL     1       3.251   2.880  18.393  0.00  0.00    +0.000 C 
ATOM      3  C   UNL     1       2.042   2.899  17.420  0.00  0.00    +0.000 C 
ATOM      4  O   UNL     1       2.938   3.566  19.570  0.00  0.00    +0.000 OA
ATOM      5  C   UNL     1       2.715   4.907  19.554  0.00  0.00    +0.000 A 
ATOM      6  C   UNL     1       1.978   5.506  20.574  0.00  0.00    +0.000 A 
ATOM      7  C   UNL     1       1.621   6.858  20.484  0.00  0.00    +0.000 A 
ATOM      8  C   UNL     1       1.926   7.570  19.321  0.00  0.00    +0.000 A 
ATOM      9 CL   UNL     1       1.412   9.240  19.132  0.00  0.00    +0.000 Cl
ATOM     10  C   UNL     1       2.672   6.962  18.316  0.00  0.00    +0.000 A 
ATOM     11  C   UNL     1       3.174   5.677  18.467  0.00  0.00    +0.000 A 
ATOM     12  C   UNL     1       4.180   5.111  17.468  0.00  0.00    +0.000 C 
ATOM     13  C   UNL     1       4.490   3.595  17.798  0.00  0.00    +0.000 C 
ENDROOT
BRANCH  12  14
ATOM     14  N   UNL     1       5.469   5.903  17.435  0.00  0.00    +0.000 NA
ATOM     15  C   UNL     1       6.543   5.509  16.482  0.00  0.00    +0.000 C 
ATOM     16  C   UNL     1       7.498   4.477  17.089  0.00  0.00    +0.000 C 
ATOM     17  C   UNL     1       8.197   5.092  18.304  0.00  0.00    +0.000 C 
ATOM     18  C   UNL     1       7.192   5.611  19.330  0.00  0.00    +0.000 C 
ATOM     19  C   UNL     1       6.047   6.463  18.690  0.00  0.00    +0.000 C 
ENDBRANCH  12  14
BRANCH  13  20
ATOM     20  O   UNL     1       5.071   2.931  16.709  0.00  0.00    +0.000 OA
ATOM     21  H   UNL     1       4.537   3.145  15.906  0.00  0.00    +0.000 HD
ENDBRANCH  13  20
TORSDOF 2
ENDMDL
