MODEL 1
REMARK VINA RESULT:      -6.9      0.000      0.000
REMARK  Name = 
REMARK  6 active torsions:
REMARK  status: ('A' for Active; 'I' for Inactive)
REMARK    1  A    between atoms: C_1  and  O_2
REMARK    2  A    between atoms: O_2  and  C_3
REMARK    3  A    between atoms: C_9  and  C_11
REMARK    4  A    between atoms: C_11  and  C_12
REMARK    5  A    between atoms: C_20  and  C_21
REMARK    6  A    between atoms: C_21  and  N_22
REMARK                            x       y       z     vdW  Elec       q    Type
REMARK                         _______ _______ _______ _____ _____    ______ ____
ROOT
ATOM      1  C   UNL     1       1.913   2.333  18.891  0.00  0.00    +0.000 C 
ATOM      2  O   UNL     1       1.838   1.484  19.771  0.00  0.00    +0.000 OA
ATOM      3  N   UNL     1       1.425   3.624  19.039  0.00  0.00    +0.000 N 
ATOM      4  C   UNL     1       0.947   4.062  20.348  0.00  0.00    +0.000 C 
ATOM      5  C   UNL     1       1.897   5.113  20.949  0.00  0.00    +0.000 C 
ATOM      6  N   UNL     1       2.189   6.219  19.998  0.00  0.00    +0.000 N 
ATOM      7  C   UNL     1       1.672   7.464  20.357  0.00  0.00    +0.000 C 
ATOM      8  O   UNL     1       0.996   7.580  21.390  0.00  0.00    +0.000 OA
ATOM      9  C   UNL     1       2.724   5.691  18.676  0.00  0.00    +0.000 C 
ATOM     10  C   UNL     1       1.675   4.713  18.080  0.00  0.00    +0.000 C 
ENDROOT
BRANCH   1  12
ATOM     11  C   UNL     1       3.874   1.784  17.714  0.00  0.00    +0.000 C 
ATOM     12  O   UNL     1       2.480   2.116  17.679  0.00  0.00    +0.000 OA
ENDBRANCH   1  12
BRANCH   7  13
ATOM     13  C   UNL     1       1.976   8.752  19.597  0.00  0.00    +0.000 C 
BRANCH  13  14
ATOM     14  C   UNL     1       0.759   9.576  19.221  0.00  0.00    +0.000 A 
ATOM     15  C   UNL     1       0.168   9.416  17.963  0.00  0.00    +0.000 A 
ATOM     16  C   UNL     1      -0.988  10.129  17.618  0.00  0.00    +0.000 A 
ATOM     17  C   UNL     1      -1.564  11.013  18.530  0.00  0.00    +0.000 A 
ATOM     18 CL   UNL     1      -3.000  11.845  18.048  0.00  0.00    +0.000 Cl
ATOM     19  C   UNL     1      -0.980  11.192  19.786  0.00  0.00    +0.000 A 
ATOM     20 CL   UNL     1      -1.634  12.266  20.971  0.00  0.00    +0.000 Cl
ATOM     21  C   UNL     1       0.171  10.470  20.130  0.00  0.00    +0.000 A 
ENDBRANCH  13  14
ENDBRANCH   7  13
BRANCH   9  22
ATOM     22  C   UNL     1       3.220   6.722  17.642  0.00  0.00    +0.000 C 
BRANCH  22  23
ATOM     23  N   UNL     1       4.659   6.873  17.354  0.00  0.00    +0.000 NA
ATOM     24  C   UNL     1       5.017   6.619  15.953  0.00  0.00    +0.000 C 
ATOM     25  C   UNL     1       5.257   5.123  15.857  0.00  0.00    +0.000 C 
ATOM     26  C   UNL     1       5.917   4.794  17.180  0.00  0.00    +0.000 C 
ATOM     27  C   UNL     1       5.431   5.875  18.140  0.00  0.00    +0.000 C 
ENDBRANCH  22  23
ENDBRANCH   9  22
TORSDOF 5
ENDMDL
MODEL 2
REMARK VINA RESULT:      -6.9      0.605      1.390
REMARK  Name = 
REMARK  6 active torsions:
REMARK  status: ('A' for Active; 'I' for Inactive)
REMARK    1  A    between atoms: C_1  and  O_2
REMARK    2  A    between atoms: O_2  and  C_3
REMARK    3  A    between atoms: C_9  and  C_11
REMARK    4  A    between atoms: C_11  and  C_12
REMARK    5  A    between atoms: C_20  and  C_21
REMARK    6  A    between atoms: C_21  and  N_22
REMARK                            x       y       z     vdW  Elec       q    Type
REMARK                         _______ _______ _______ _____ _____    ______ ____
ROOT
ATOM      1  C   UNL     1       2.043   2.372  18.848  0.00  0.00    +0.000 C 
ATOM      2  O   UNL     1       1.905   1.524  19.722  0.00  0.00    +0.000 OA
ATOM      3  N   UNL     1       1.521   3.654  18.946  0.00  0.00    +0.000 N 
ATOM      4  C   UNL     1       0.919   4.087  20.204  0.00  0.00    +0.000 C 
ATOM      5  C   UNL     1       1.792   5.157  20.884  0.00  0.00    +0.000 C 
ATOM      6  N   UNL     1       2.148   6.265  19.957  0.00  0.00    +0.000 N 
ATOM      7  C   UNL     1       1.578   7.502  20.262  0.00  0.00    +0.000 C 
ATOM      8  O   UNL     1       0.810   7.608  21.230  0.00  0.00    +0.000 OA
ATOM      9  C   UNL     1       2.809   5.744  18.692  0.00  0.00    +0.000 C 
ATOM     10  C   UNL     1       1.836   4.744  18.008  0.00  0.00    +0.000 C 
ENDROOT
BRANCH   1  12
ATOM     11  C   UNL     1       3.987   1.506  17.846  0.00  0.00    +0.000 C 
ATOM     12  O   UNL     1       2.721   2.162  17.694  0.00  0.00    +0.000 OA
ENDBRANCH   1  12
BRANCH   7  13
ATOM     13  C   UNL     1       1.926   8.793  19.527  0.00  0.00    +0.000 C 
BRANCH  13  14
ATOM     14  C   UNL     1       0.888   9.893  19.638  0.00  0.00    +0.000 A 
ATOM     15  C   UNL     1       0.898  10.753  20.742  0.00  0.00    +0.000 A 
ATOM     16  C   UNL     1      -0.019  11.808  20.837  0.00  0.00    +0.000 A 
ATOM     17  C   UNL     1      -0.960  12.013  19.827  0.00  0.00    +0.000 A 
ATOM     18 CL   UNL     1      -2.047  13.344  19.996  0.00  0.00    +0.000 Cl
ATOM     19  C   UNL     1      -0.989  11.156  18.723  0.00  0.00    +0.000 A 
ATOM     20 CL   UNL     1      -2.120  11.344  17.430  0.00  0.00    +0.000 Cl
ATOM     21  C   UNL     1      -0.064  10.108  18.629  0.00  0.00    +0.000 A 
ENDBRANCH  13  14
ENDBRANCH   7  13
BRANCH   9  22
ATOM     22  C   UNL     1       3.378   6.780  17.702  0.00  0.00    +0.000 C 
BRANCH  22  23
ATOM     23  N   UNL     1       4.815   6.799  17.367  0.00  0.00    +0.000 NA
ATOM     24  C   UNL     1       5.103   6.503  15.957  0.00  0.00    +0.000 C 
ATOM     25  C   UNL     1       5.204   4.992  15.869  0.00  0.00    +0.000 C 
ATOM     26  C   UNL     1       5.874   4.613  17.173  0.00  0.00    +0.000 C 
ATOM     27  C   UNL     1       5.518   5.741  18.137  0.00  0.00    +0.000 C 
ENDBRANCH  22  23
ENDBRANCH   9  22
TORSDOF 5
ENDMDL
MODEL 3
REMARK VINA RESULT:      -6.7      1.598      1.811
REMARK  Name = 
REMARK  6 active torsions:
REMARK  status: ('A' for Active; 'I' for Inactive)
REMARK    1  A    between atoms: C_1  and  O_2
REMARK    2  A    between atoms: O_2  and  C_3
REMARK    3  A    between atoms: C_9  and  C_11
REMARK    4  A    between atoms: C_11  and  C_12
REMARK    5  A    between atoms: C_20  and  C_21
REMARK    6  A    between atoms: C_21  and  N_22
REMARK                            x       y       z     vdW  Elec       q    Type
REMARK                         _______ _______ _______ _____ _____    ______ ____
ROOT
ATOM      1  C   UNL     1       3.223   2.994  20.050  0.00  0.00    +0.000 C 
ATOM      2  O   UNL     1       3.150   2.535  21.183  0.00  0.00    +0.000 OA
ATOM      3  N   UNL     1       2.478   4.086  19.625  0.00  0.00    +0.000 N 
ATOM      4  C   UNL     1       1.690   4.836  20.599  0.00  0.00    +0.000 C 
ATOM      5  C   UNL     1       2.292   6.235  20.822  0.00  0.00    +0.000 C 
ATOM      6  N   UNL     1       2.538   6.953  19.543  0.00  0.00    +0.000 N 
ATOM      7  C   UNL     1       1.734   8.073  19.326  0.00  0.00    +0.000 C 
ATOM      8  O   UNL     1       0.869   8.385  20.158  0.00  0.00    +0.000 OA
ATOM      9  C   UNL     1       3.400   6.131  18.598  0.00  0.00    +0.000 C 
ATOM     10  C   UNL     1       2.687   4.776  18.341  0.00  0.00    +0.000 C 
ENDROOT
BRANCH   1  12
ATOM     11  C   UNL     1       3.513   1.368  18.376  0.00  0.00    +0.000 C 
ATOM     12  O   UNL     1       4.035   2.499  19.085  0.00  0.00    +0.000 OA
ENDBRANCH   1  12
BRANCH   7  13
ATOM     13  C   UNL     1       1.921   9.028  18.150  0.00  0.00    +0.000 C 
BRANCH  13  14
ATOM     14  C   UNL     1       1.329  10.410  18.346  0.00  0.00    +0.000 A 
ATOM     15  C   UNL     1       2.167  11.529  18.392  0.00  0.00    +0.000 A 
ATOM     16  C   UNL     1       1.635  12.819  18.519  0.00  0.00    +0.000 A 
ATOM     17  C   UNL     1       0.254  13.002  18.605  0.00  0.00    +0.000 A 
ATOM     18 CL   UNL     1      -0.337  14.620  18.739  0.00  0.00    +0.000 Cl
ATOM     19  C   UNL     1      -0.596  11.894  18.571  0.00  0.00    +0.000 A 
ATOM     20 CL   UNL     1      -2.315  12.038  18.669  0.00  0.00    +0.000 Cl
ATOM     21  C   UNL     1      -0.058  10.607  18.434  0.00  0.00    +0.000 A 
ENDBRANCH  13  14
ENDBRANCH   7  13
BRANCH   9  22
ATOM     22  C   UNL     1       3.872   6.803  17.293  0.00  0.00    +0.000 C 
BRANCH  22  23
ATOM     23  N   UNL     1       5.276   6.696  16.851  0.00  0.00    +0.000 NA
ATOM     24  C   UNL     1       5.458   5.899  15.630  0.00  0.00    +0.000 C 
ATOM     25  C   UNL     1       5.599   4.462  16.096  0.00  0.00    +0.000 C 
ATOM     26  C   UNL     1       6.384   4.593  17.385  0.00  0.00    +0.000 C 
ATOM     27  C   UNL     1       6.073   5.997  17.893  0.00  0.00    +0.000 C 
ENDBRANCH  22  23
ENDBRANCH   9  22
TORSDOF 5
ENDMDL
MODEL 4
REMARK VINA RESULT:      -6.7      4.286      8.341
REMARK  Name = 
REMARK  6 active torsions:
REMARK  status: ('A' for Active; 'I' for Inactive)
REMARK    1  A    between atoms: C_1  and  O_2
REMARK    2  A    between atoms: O_2  and  C_3
REMARK    3  A    between atoms: C_9  and  C_11
REMARK    4  A    between atoms: C_11  and  C_12
REMARK    5  A    between atoms: C_20  and  C_21
REMARK    6  A    between atoms: C_21  and  N_22
REMARK                            x       y       z     vdW  Elec       q    Type
REMARK                         _______ _______ _______ _____ _____    ______ ____
ROOT
ATOM      1  C   UNL     1      -2.438  12.185  22.135  0.00  0.00    +0.000 C 
ATOM      2  O   UNL     1      -2.756  11.952  23.295  0.00  0.00    +0.000 OA
ATOM      3  N   UNL     1      -1.240  11.761  21.577  0.00  0.00    +0.000 N 
ATOM      4  C   UNL     1      -0.379  10.857  22.334  0.00  0.00    +0.000 C 
ATOM      5  C   UNL     1      -0.354   9.460  21.687  0.00  0.00    +0.000 C 
ATOM      6  N   UNL     1      -0.057   9.520  20.230  0.00  0.00    +0.000 N 
ATOM      7  C   UNL     1       1.172   8.977  19.852  0.00  0.00    +0.000 C 
ATOM      8  O   UNL     1       1.938   8.519  20.712  0.00  0.00    +0.000 OA
ATOM      9  C   UNL     1      -1.019  10.443  19.501  0.00  0.00    +0.000 C 
ATOM     10  C   UNL     1      -0.922  11.855  20.142  0.00  0.00    +0.000 C 
ENDROOT
BRANCH   1  12
ATOM     11  C   UNL     1      -4.005  13.915  21.851  0.00  0.00    +0.000 C 
ATOM     12  O   UNL     1      -3.214  12.874  21.264  0.00  0.00    +0.000 OA
ENDBRANCH   1  12
BRANCH   7  13
ATOM     13  C   UNL     1       1.606   8.809  18.398  0.00  0.00    +0.000 C 
BRANCH  13  14
ATOM     14  C   UNL     1       2.384   7.541  18.104  0.00  0.00    +0.000 A 
ATOM     15  C   UNL     1       1.775   6.293  18.277  0.00  0.00    +0.000 A 
ATOM     16  C   UNL     1       2.459   5.112  17.960  0.00  0.00    +0.000 A 
ATOM     17  C   UNL     1       3.763   5.168  17.467  0.00  0.00    +0.000 A 
ATOM     18 CL   UNL     1       4.541   3.676  17.076  0.00  0.00    +0.000 Cl
ATOM     19  C   UNL     1       4.388   6.407  17.298  0.00  0.00    +0.000 A 
ATOM     20 CL   UNL     1       5.998   6.560  16.690  0.00  0.00    +0.000 Cl
ATOM     21  C   UNL     1       3.696   7.585  17.608  0.00  0.00    +0.000 A 
ENDBRANCH  13  14
ENDBRANCH   7  13
BRANCH   9  22
ATOM     22  C   UNL     1      -0.939  10.490  17.962  0.00  0.00    +0.000 C 
BRANCH  22  23
ATOM     23  N   UNL     1      -1.986   9.868  17.130  0.00  0.00    +0.000 NA
ATOM     24  C   UNL     1      -2.535  10.757  16.097  0.00  0.00    +0.000 C 
ATOM     25  C   UNL     1      -3.661  11.519  16.769  0.00  0.00    +0.000 C 
ATOM     26  C   UNL     1      -4.275  10.486  17.691  0.00  0.00    +0.000 C 
ATOM     27  C   UNL     1      -3.147   9.502  17.983  0.00  0.00    +0.000 C 
ENDBRANCH  22  23
ENDBRANCH   9  22
TORSDOF 5
ENDMDL
MODEL 5
REMARK VINA RESULT:      -6.7      4.202      8.272
REMARK  Name = 
REMARK  6 active torsions:
REMARK  status: ('A' for Active; 'I' for Inactive)
REMARK    1  A    between atoms: C_1  and  O_2
REMARK    2  A    between atoms: O_2  and  C_3
REMARK    3  A    between atoms: C_9  and  C_11
REMARK    4  A    between atoms: C_11  and  C_12
REMARK    5  A    between atoms: C_20  and  C_21
REMARK    6  A    between atoms: C_21  and  N_22
REMARK                            x       y       z     vdW  Elec       q    Type
REMARK                         _______ _______ _______ _____ _____    ______ ____
ROOT
ATOM      1  C   UNL     1      -2.207  12.360  22.252  0.00  0.00    +0.000 C 
ATOM      2  O   UNL     1      -2.484  12.146  23.425  0.00  0.00    +0.000 OA
ATOM      3  N   UNL     1      -1.064  11.864  21.639  0.00  0.00    +0.000 N 
ATOM      4  C   UNL     1      -0.225  10.909  22.358  0.00  0.00    +0.000 C 
ATOM      5  C   UNL     1      -0.315   9.514  21.713  0.00  0.00    +0.000 C 
ATOM      6  N   UNL     1      -0.082   9.557  20.245  0.00  0.00    +0.000 N 
ATOM      7  C   UNL     1       1.091   8.939  19.811  0.00  0.00    +0.000 C 
ATOM      8  O   UNL     1       1.868   8.435  20.636  0.00  0.00    +0.000 OA
ATOM      9  C   UNL     1      -1.020  10.537  19.559  0.00  0.00    +0.000 C 
ATOM     10  C   UNL     1      -0.807  11.940  20.191  0.00  0.00    +0.000 C 
ENDROOT
BRANCH   1  12
ATOM     11  C   UNL     1      -4.275  12.546  21.148  0.00  0.00    +0.000 C 
ATOM     12  O   UNL     1      -2.979  13.096  21.415  0.00  0.00    +0.000 OA
ENDBRANCH   1  12
BRANCH   7  13
ATOM     13  C   UNL     1       1.447   8.747  18.339  0.00  0.00    +0.000 C 
BRANCH  13  14
ATOM     14  C   UNL     1       2.272   7.511  18.036  0.00  0.00    +0.000 A 
ATOM     15  C   UNL     1       3.612   7.643  17.656  0.00  0.00    +0.000 A 
ATOM     16  C   UNL     1       4.406   6.512  17.424  0.00  0.00    +0.000 A 
ATOM     17  C   UNL     1       3.865   5.234  17.568  0.00  0.00    +0.000 A 
ATOM     18 CL   UNL     1       4.903   3.883  17.287  0.00  0.00    +0.000 Cl
ATOM     19  C   UNL     1       2.525   5.086  17.937  0.00  0.00    +0.000 A 
ATOM     20 CL   UNL     1       1.782   3.539  18.138  0.00  0.00    +0.000 Cl
ATOM     21  C   UNL     1       1.738   6.221  18.177  0.00  0.00    +0.000 A 
ENDBRANCH  13  14
ENDBRANCH   7  13
BRANCH   9  22
ATOM     22  C   UNL     1      -1.008  10.580  18.018  0.00  0.00    +0.000 C 
BRANCH  22  23
ATOM     23  N   UNL     1      -2.011   9.835  17.232  0.00  0.00    +0.000 NA
ATOM     24  C   UNL     1      -2.479  10.546  16.034  0.00  0.00    +0.000 C 
ATOM     25  C   UNL     1      -3.633  11.414  16.499  0.00  0.00    +0.000 C 
ATOM     26  C   UNL     1      -4.320  10.549  17.535  0.00  0.00    +0.000 C 
ATOM     27  C   UNL     1      -3.228   9.620  18.056  0.00  0.00    +0.000 C 
ENDBRANCH  22  23
ENDBRANCH   9  22
TORSDOF 5
ENDMDL
MODEL 6
REMARK VINA RESULT:      -6.7      1.032      1.059
REMARK  Name = 
REMARK  6 active torsions:
REMARK  status: ('A' for Active; 'I' for Inactive)
REMARK    1  A    between atoms: C_1  and  O_2
REMARK    2  A    between atoms: O_2  and  C_3
REMARK    3  A    between atoms: C_9  and  C_11
REMARK    4  A    between atoms: C_11  and  C_12
REMARK    5  A    between atoms: C_20  and  C_21
REMARK    6  A    between atoms: C_21  and  N_22
REMARK                            x       y       z     vdW  Elec       q    Type
REMARK                         _______ _______ _______ _____ _____    ______ ____
ROOT
ATOM      1  C   UNL     1       3.152   3.008  19.944  0.00  0.00    +0.000 C 
ATOM      2  O   UNL     1       3.144   2.430  21.023  0.00  0.00    +0.000 OA
ATOM      3  N   UNL     1       2.367   4.119  19.672  0.00  0.00    +0.000 N 
ATOM      4  C   UNL     1       1.613   4.743  20.755  0.00  0.00    +0.000 C 
ATOM      5  C   UNL     1       2.197   6.125  21.099  0.00  0.00    +0.000 C 
ATOM      6  N   UNL     1       2.367   6.980  19.893  0.00  0.00    +0.000 N 
ATOM      7  C   UNL     1       1.533   8.097  19.834  0.00  0.00    +0.000 C 
ATOM      8  O   UNL     1       0.702   8.298  20.733  0.00  0.00    +0.000 OA
ATOM      9  C   UNL     1       3.199   6.284  18.828  0.00  0.00    +0.000 C 
ATOM     10  C   UNL     1       2.501   4.946  18.461  0.00  0.00    +0.000 C 
ENDROOT
BRANCH   1  12
ATOM     11  C   UNL     1       3.605   1.363  18.324  0.00  0.00    +0.000 C 
ATOM     12  O   UNL     1       3.928   2.638  18.895  0.00  0.00    +0.000 OA
ENDBRANCH   1  12
BRANCH   7  13
ATOM     13  C   UNL     1       1.644   9.175  18.759  0.00  0.00    +0.000 C 
BRANCH  13  14
ATOM     14  C   UNL     1       0.347   9.891  18.434  0.00  0.00    +0.000 A 
ATOM     15  C   UNL     1      -0.534   9.346  17.493  0.00  0.00    +0.000 A 
ATOM     16  C   UNL     1      -1.761   9.965  17.218  0.00  0.00    +0.000 A 
ATOM     17  C   UNL     1      -2.118  11.139  17.882  0.00  0.00    +0.000 A 
ATOM     18 CL   UNL     1      -3.654  11.838  17.511  0.00  0.00    +0.000 Cl
ATOM     19  C   UNL     1      -1.245  11.700  18.817  0.00  0.00    +0.000 A 
ATOM     20 CL   UNL     1      -1.616  13.149  19.682  0.00  0.00    +0.000 Cl
ATOM     21  C   UNL     1      -0.023  11.073  19.095  0.00  0.00    +0.000 A 
ENDBRANCH  13  14
ENDBRANCH   7  13
BRANCH   9  22
ATOM     22  C   UNL     1       3.594   7.101  17.582  0.00  0.00    +0.000 C 
BRANCH  22  23
ATOM     23  N   UNL     1       4.974   7.064  17.058  0.00  0.00    +0.000 NA
ATOM     24  C   UNL     1       5.084   6.505  15.705  0.00  0.00    +0.000 C 
ATOM     25  C   UNL     1       5.220   5.005  15.892  0.00  0.00    +0.000 C 
ATOM     26  C   UNL     1       6.067   4.889  17.142  0.00  0.00    +0.000 C 
ATOM     27  C   UNL     1       5.806   6.179  17.913  0.00  0.00    +0.000 C 
ENDBRANCH  22  23
ENDBRANCH   9  22
TORSDOF 5
ENDMDL
MODEL 7
REMARK VINA RESULT:      -6.6      1.931      2.064
REMARK  Name = 
REMARK  6 active torsions:
REMARK  status: ('A' for Active; 'I' for Inactive)
REMARK    1  A    between atoms: C_1  and  O_2
REMARK    2  A    between atoms: O_2  and  C_3
REMARK    3  A    between atoms: C_9  and  C_11
REMARK    4  A    between atoms: C_11  and  C_12
REMARK    5  A    between atoms: C_20  and  C_21
REMARK    6  A    between atoms: C_21  and  N_22
REMARK                            x       y       z     vdW  Elec       q    Type
REMARK                         _______ _______ _______ _____ _____    ______ ____
ROOT
ATOM      1  C   UNL     1       3.118   3.096  19.927  0.00  0.00    +0.000 C 
ATOM      2  O   UNL     1       3.021   2.628  21.054  0.00  0.00    +0.000 OA
ATOM      3  N   UNL     1       2.412   4.215  19.507  0.00  0.00    +0.000 N 
ATOM      4  C   UNL     1       1.641   4.981  20.482  0.00  0.00    +0.000 C 
ATOM      5  C   UNL     1       2.285   6.358  20.725  0.00  0.00    +0.000 C 
ATOM      6  N   UNL     1       2.564   7.080  19.456  0.00  0.00    +0.000 N 
ATOM      7  C   UNL     1       1.799   8.228  19.244  0.00  0.00    +0.000 C 
ATOM      8  O   UNL     1       0.937   8.559  20.072  0.00  0.00    +0.000 OA
ATOM      9  C   UNL     1       3.408   6.241  18.509  0.00  0.00    +0.000 C 
ATOM     10  C   UNL     1       2.654   4.911  18.233  0.00  0.00    +0.000 C 
ENDROOT
BRANCH   1  12
ATOM     11  C   UNL     1       3.448   1.376  18.357  0.00  0.00    +0.000 C 
ATOM     12  O   UNL     1       3.923   2.586  18.963  0.00  0.00    +0.000 OA
ENDBRANCH   1  12
BRANCH   7  13
ATOM     13  C   UNL     1       2.026   9.188  18.079  0.00  0.00    +0.000 C 
BRANCH  13  14
ATOM     14  C   UNL     1       1.438  10.573  18.268  0.00  0.00    +0.000 A 
ATOM     15  C   UNL     1       0.067  10.723  18.505  0.00  0.00    +0.000 A 
ATOM     16  C   UNL     1      -0.486  11.990  18.735  0.00  0.00    +0.000 A 
ATOM     17  C   UNL     1       0.329  13.123  18.727  0.00  0.00    +0.000 A 
ATOM     18 CL   UNL     1      -0.413  14.651  19.037  0.00  0.00    +0.000 Cl
ATOM     19  C   UNL     1       1.698  12.990  18.481  0.00  0.00    +0.000 A 
ATOM     20 CL   UNL     1       2.774  14.342  18.457  0.00  0.00    +0.000 Cl
ATOM     21  C   UNL     1       2.247  11.720  18.261  0.00  0.00    +0.000 A 
ENDBRANCH  13  14
ENDBRANCH   7  13
BRANCH   9  22
ATOM     22  C   UNL     1       3.912   6.911  17.215  0.00  0.00    +0.000 C 
BRANCH  22  23
ATOM     23  N   UNL     1       5.303   6.725  16.759  0.00  0.00    +0.000 NA
ATOM     24  C   UNL     1       5.431   5.890  15.557  0.00  0.00    +0.000 C 
ATOM     25  C   UNL     1       5.509   4.460  16.059  0.00  0.00    +0.000 C 
ATOM     26  C   UNL     1       6.317   4.585  17.334  0.00  0.00    +0.000 C 
ATOM     27  C   UNL     1       6.080   6.016  17.809  0.00  0.00    +0.000 C 
ENDBRANCH  22  23
ENDBRANCH   9  22
TORSDOF 5
ENDMDL
MODEL 8
REMARK VINA RESULT:      -6.5      2.172      4.197
REMARK  Name = 
REMARK  6 active torsions:
REMARK  status: ('A' for Active; 'I' for Inactive)
REMARK    1  A    between atoms: C_1  and  O_2
REMARK    2  A    between atoms: O_2  and  C_3
REMARK    3  A    between atoms: C_9  and  C_11
REMARK    4  A    between atoms: C_11  and  C_12
REMARK    5  A    between atoms: C_20  and  C_21
REMARK    6  A    between atoms: C_21  and  N_22
REMARK                            x       y       z     vdW  Elec       q    Type
REMARK                         _______ _______ _______ _____ _____    ______ ____
ROOT
ATOM      1  C   UNL     1       4.980   4.892  17.033  0.00  0.00    +0.000 C 
ATOM      2  O   UNL     1       5.142   5.107  15.838  0.00  0.00    +0.000 OA
ATOM      3  N   UNL     1       4.580   5.870  17.932  0.00  0.00    +0.000 N 
ATOM      4  C   UNL     1       4.170   7.179  17.430  0.00  0.00    +0.000 C 
ATOM      5  C   UNL     1       2.657   7.386  17.624  0.00  0.00    +0.000 C 
ATOM      6  N   UNL     1       2.224   7.098  19.018  0.00  0.00    +0.000 N 
ATOM      7  C   UNL     1       1.785   8.204  19.746  0.00  0.00    +0.000 C 
ATOM      8  O   UNL     1       1.807   9.332  19.230  0.00  0.00    +0.000 OA
ATOM      9  C   UNL     1       2.645   5.704  19.456  0.00  0.00    +0.000 C 
ATOM     10  C   UNL     1       4.189   5.598  19.326  0.00  0.00    +0.000 C 
ENDROOT
BRANCH   1  12
ATOM     11  C   UNL     1       4.136   2.720  17.349  0.00  0.00    +0.000 C 
ATOM     12  O   UNL     1       5.165   3.682  17.614  0.00  0.00    +0.000 OA
ENDBRANCH   1  12
BRANCH   7  13
ATOM     13  C   UNL     1       1.167   8.105  21.138  0.00  0.00    +0.000 C 
BRANCH  13  14
ATOM     14  C   UNL     1       0.445   9.353  21.608  0.00  0.00    +0.000 A 
ATOM     15  C   UNL     1      -0.397   9.294  22.724  0.00  0.00    +0.000 A 
ATOM     16  C   UNL     1      -1.031  10.447  23.206  0.00  0.00    +0.000 A 
ATOM     17  C   UNL     1      -0.829  11.674  22.573  0.00  0.00    +0.000 A 
ATOM     18 CL   UNL     1      -1.624  13.060  23.231  0.00  0.00    +0.000 Cl
ATOM     19  C   UNL     1       0.001  11.748  21.452  0.00  0.00    +0.000 A 
ATOM     20 CL   UNL     1       0.304  13.229  20.615  0.00  0.00    +0.000 Cl
ATOM     21  C   UNL     1       0.640  10.593  20.980  0.00  0.00    +0.000 A 
ENDBRANCH  13  14
ENDBRANCH   7  13
BRANCH   9  22
ATOM     22  C   UNL     1       2.135   5.198  20.820  0.00  0.00    +0.000 C 
BRANCH  22  23
ATOM     23  N   UNL     1       1.158   4.095  20.901  0.00  0.00    +0.000 NA
ATOM     24  C   UNL     1       1.631   2.933  21.664  0.00  0.00    +0.000 C 
ATOM     25  C   UNL     1       2.377   2.066  20.667  0.00  0.00    +0.000 C 
ATOM     26  C   UNL     1       1.565   2.222  19.398  0.00  0.00    +0.000 C 
ATOM     27  C   UNL     1       0.879   3.578  19.537  0.00  0.00    +0.000 C 
ENDBRANCH  22  23
ENDBRANCH   9  22
TORSDOF 5
ENDMDL
MODEL 9
REMARK VINA RESULT:      -6.3      2.166      4.329
REMARK  Name = 
REMARK  6 active torsions:
REMARK  status: ('A' for Active; 'I' for Inactive)
REMARK    1  A    between atoms: C_1  and  O_2
REMARK    2  A    between atoms: O_2  and  C_3
REMARK    3  A    between atoms: C_9  and  C_11
REMARK    4  A    between atoms: C_11  and  C_12
REMARK    5  A    between atoms: C_20  and  C_21
REMARK    6  A    between atoms: C_21  and  N_22
REMARK                            x       y       z     vdW  Elec       q    Type
REMARK                         _______ _______ _______ _____ _____    ______ ____
ROOT
ATOM      1  C   UNL     1       6.137   5.518  16.619  0.00  0.00    +0.000 C 
ATOM      2  O   UNL     1       6.315   5.831  15.449  0.00  0.00    +0.000 OA
ATOM      3  N   UNL     1       5.474   6.330  17.529  0.00  0.00    +0.000 N 
ATOM      4  C   UNL     1       4.809   7.540  17.055  0.00  0.00    +0.000 C 
ATOM      5  C   UNL     1       3.280   7.394  17.153  0.00  0.00    +0.000 C 
ATOM      6  N   UNL     1       2.843   6.937  18.500  0.00  0.00    +0.000 N 
ATOM      7  C   UNL     1       2.124   7.875  19.242  0.00  0.00    +0.000 C 
ATOM      8  O   UNL     1       1.920   9.007  18.778  0.00  0.00    +0.000 OA
ATOM      9  C   UNL     1       3.543   5.650  18.907  0.00  0.00    +0.000 C 
ATOM     10  C   UNL     1       5.076   5.898  18.879  0.00  0.00    +0.000 C 
ENDROOT
BRANCH   1  12
ATOM     11  C   UNL     1       7.859   4.392  17.758  0.00  0.00    +0.000 C 
ATOM     12  O   UNL     1       6.557   4.348  17.160  0.00  0.00    +0.000 OA
ENDBRANCH   1  12
BRANCH   7  13
ATOM     13  C   UNL     1       1.465   7.562  20.582  0.00  0.00    +0.000 C 
BRANCH  13  14
ATOM     14  C   UNL     1       0.639   8.690  21.169  0.00  0.00    +0.000 A 
ATOM     15  C   UNL     1       0.602   8.881  22.555  0.00  0.00    +0.000 A 
ATOM     16  C   UNL     1      -0.112   9.950  23.112  0.00  0.00    +0.000 A 
ATOM     17  C   UNL     1      -0.799  10.840  22.287  0.00  0.00    +0.000 A 
ATOM     18 CL   UNL     1      -1.642  12.148  23.037  0.00  0.00    +0.000 Cl
ATOM     19  C   UNL     1      -0.780  10.657  20.902  0.00  0.00    +0.000 A 
ATOM     20 CL   UNL     1      -1.603  11.717  19.813  0.00  0.00    +0.000 Cl
ATOM     21  C   UNL     1      -0.057   9.592  20.349  0.00  0.00    +0.000 A 
ENDBRANCH  13  14
ENDBRANCH   7  13
BRANCH   9  22
ATOM     22  C   UNL     1       3.082   4.966  20.210  0.00  0.00    +0.000 C 
BRANCH  22  23
ATOM     23  N   UNL     1       2.859   3.508  20.262  0.00  0.00    +0.000 NA
ATOM     24  C   UNL     1       2.978   2.839  18.960  0.00  0.00    +0.000 C 
ATOM     25  C   UNL     1       1.602   2.927  18.328  0.00  0.00    +0.000 C 
ATOM     26  C   UNL     1       0.668   2.756  19.508  0.00  0.00    +0.000 C 
ATOM     27  C   UNL     1       1.471   3.234  20.715  0.00  0.00    +0.000 C 
ENDBRANCH  22  23
ENDBRANCH   9  22
TORSDOF 5
ENDMDL
