MODEL 1
REMARK VINA RESULT:      -8.3      0.000      0.000
REMARK  Name = 
REMARK  6 active torsions:
REMARK  status: ('A' for Active; 'I' for Inactive)
REMARK    1  A    between atoms: C_2  and  C_3
REMARK    2  A    between atoms: C_3  and  C_4
REMARK    3  A    between atoms: C_4  and  N_5
REMARK    4  A    between atoms: C_18  and  C_19
REMARK    5  A    between atoms: C_19  and  O_20
REMARK    6  A    between atoms: O_20  and  C_21
REMARK                            x       y       z     vdW  Elec       q    Type
REMARK                         _______ _______ _______ _____ _____    ______ ____
ROOT
ATOM      1  O   UNL     1       2.175   3.050  22.110  0.00  0.00    +0.000 OA
ATOM      2  C   UNL     1       2.346   3.696  21.071  0.00  0.00    +0.000 C 
ATOM      3  N   UNL     1       2.178   5.047  21.121  0.00  0.00    +0.000 N 
ATOM      4  C   UNL     1       2.180   5.896  20.055  0.00  0.00    +0.000 A 
ATOM      5  N   UNL     1       2.263   5.644  18.774  0.00  0.00    +0.000 NA
ATOM      6  N   UNL     1       2.124   6.778  18.008  0.00  0.00    +0.000 NA
ATOM      7  C   UNL     1       1.981   7.856  18.752  0.00  0.00    +0.000 A 
ATOM      8  S   UNL     1       2.015   7.544  20.449  0.00  0.00    +0.000 S 
ATOM      9  H   UNL     1       1.941   5.432  22.025  0.00  0.00    +0.000 HD
ENDROOT
BRANCH   2  10
ATOM     10  C   UNL     1       2.867   3.031  19.813  0.00  0.00    +0.000 C 
BRANCH  10  11
ATOM     11  C   UNL     1       4.384   3.064  19.732  0.00  0.00    +0.000 C 
BRANCH  11  12
ATOM     12  N   UNL     1       4.858   3.656  18.498  0.00  0.00    +0.000 N 
ATOM     13  N   UNL     1       4.348   3.249  17.318  0.00  0.00    +0.000 NA
ATOM     14  N   UNL     1       4.961   3.931  16.361  0.00  0.00    +0.000 NA
ATOM     15  C   UNL     1       5.846   4.791  16.953  0.00  0.00    +0.000 A 
ATOM     16  C   UNL     1       6.720   5.731  16.393  0.00  0.00    +0.000 A 
ATOM     17  C   UNL     1       7.519   6.494  17.255  0.00  0.00    +0.000 A 
ATOM     18  C   UNL     1       7.451   6.319  18.640  0.00  0.00    +0.000 A 
ATOM     19  C   UNL     1       6.588   5.380  19.214  0.00  0.00    +0.000 A 
ATOM     20  C   UNL     1       5.796   4.637  18.334  0.00  0.00    +0.000 A 
ENDBRANCH  11  12
ENDBRANCH  10  11
ENDBRANCH   2  10
BRANCH   7  21
ATOM     21  C   UNL     1       1.714   9.227  18.239  0.00  0.00    +0.000 C 
BRANCH  21  22
ATOM     22  O   UNL     1       0.845   9.883  19.164  0.00  0.00    +0.000 OA
BRANCH  22  23
ATOM     23  C   UNL     1      -0.329  10.334  18.620  0.00  0.00    +0.000 A 
ATOM     24  C   UNL     1      -1.008   9.714  17.560  0.00  0.00    +0.000 A 
ATOM     25  C   UNL     1      -2.210  10.241  17.096  0.00  0.00    +0.000 A 
ATOM     26  C   UNL     1      -2.740  11.378  17.691  0.00  0.00    +0.000 A 
ATOM     27  F   UNL     1      -3.898  11.877  17.240  0.00  0.00    +0.000 F 
ATOM     28  C   UNL     1      -2.089  11.996  18.752  0.00  0.00    +0.000 A 
ATOM     29  C   UNL     1      -0.884  11.469  19.222  0.00  0.00    +0.000 A 
ENDBRANCH  22  23
ENDBRANCH  21  22
ENDBRANCH   7  21
TORSDOF 6
ENDMDL
MODEL 2
REMARK VINA RESULT:      -8.3      4.637      7.439
REMARK  Name = 
REMARK  6 active torsions:
REMARK  status: ('A' for Active; 'I' for Inactive)
REMARK    1  A    between atoms: C_2  and  C_3
REMARK    2  A    between atoms: C_3  and  C_4
REMARK    3  A    between atoms: C_4  and  N_5
REMARK    4  A    between atoms: C_18  and  C_19
REMARK    5  A    between atoms: C_19  and  O_20
REMARK    6  A    between atoms: O_20  and  C_21
REMARK                            x       y       z     vdW  Elec       q    Type
REMARK                         _______ _______ _______ _____ _____    ______ ____
ROOT
ATOM      1  O   UNL     1       4.758   2.677  19.750  0.00  0.00    +0.000 OA
ATOM      2  C   UNL     1       4.960   3.579  18.931  0.00  0.00    +0.000 C 
ATOM      3  N   UNL     1       6.037   4.391  19.123  0.00  0.00    +0.000 N 
ATOM      4  C   UNL     1       6.331   5.517  18.413  0.00  0.00    +0.000 A 
ATOM      5  N   UNL     1       5.656   6.120  17.468  0.00  0.00    +0.000 NA
ATOM      6  N   UNL     1       6.248   7.298  17.074  0.00  0.00    +0.000 NA
ATOM      7  C   UNL     1       7.377   7.516  17.716  0.00  0.00    +0.000 A 
ATOM      8  S   UNL     1       7.791   6.278  18.846  0.00  0.00    +0.000 S 
ATOM      9  H   UNL     1       6.615   4.180  19.924  0.00  0.00    +0.000 HD
ENDROOT
BRANCH   2  10
ATOM     10  C   UNL     1       4.123   3.695  17.673  0.00  0.00    +0.000 C 
BRANCH  10  11
ATOM     11  C   UNL     1       2.634   3.699  17.973  0.00  0.00    +0.000 C 
BRANCH  11  12
ATOM     12  N   UNL     1       2.279   4.664  18.994  0.00  0.00    +0.000 N 
ATOM     13  N   UNL     1       1.971   4.243  20.237  0.00  0.00    +0.000 NA
ATOM     14  N   UNL     1       1.672   5.315  20.959  0.00  0.00    +0.000 NA
ATOM     15  C   UNL     1       1.820   6.418  20.161  0.00  0.00    +0.000 A 
ATOM     16  C   UNL     1       1.643   7.779  20.442  0.00  0.00    +0.000 A 
ATOM     17  C   UNL     1       1.877   8.706  19.419  0.00  0.00    +0.000 A 
ATOM     18  C   UNL     1       2.273   8.286  18.146  0.00  0.00    +0.000 A 
ATOM     19  C   UNL     1       2.449   6.931  17.849  0.00  0.00    +0.000 A 
ATOM     20  C   UNL     1       2.217   6.026  18.888  0.00  0.00    +0.000 A 
ENDBRANCH  11  12
ENDBRANCH  10  11
ENDBRANCH   2  10
BRANCH   7  21
ATOM     21  C   UNL     1       8.213   8.741  17.594  0.00  0.00    +0.000 C 
BRANCH  21  22
ATOM     22  O   UNL     1       8.690   9.081  18.898  0.00  0.00    +0.000 OA
BRANCH  22  23
ATOM     23  C   UNL     1       9.224  10.339  18.997  0.00  0.00    +0.000 A 
ATOM     24  C   UNL     1       9.085  11.345  18.028  0.00  0.00    +0.000 A 
ATOM     25  C   UNL     1       9.648  12.600  18.238  0.00  0.00    +0.000 A 
ATOM     26  C   UNL     1      10.341  12.858  19.413  0.00  0.00    +0.000 A 
ATOM     27  F   UNL     1      10.877  14.070  19.607  0.00  0.00    +0.000 F 
ATOM     28  C   UNL     1      10.475  11.880  20.390  0.00  0.00    +0.000 A 
ATOM     29  C   UNL     1       9.909  10.619  20.185  0.00  0.00    +0.000 A 
ENDBRANCH  22  23
ENDBRANCH  21  22
ENDBRANCH   7  21
TORSDOF 6
ENDMDL
MODEL 3
REMARK VINA RESULT:      -8.3      2.240      4.032
REMARK  Name = 
REMARK  6 active torsions:
REMARK  status: ('A' for Active; 'I' for Inactive)
REMARK    1  A    between atoms: C_2  and  C_3
REMARK    2  A    between atoms: C_3  and  C_4
REMARK    3  A    between atoms: C_4  and  N_5
REMARK    4  A    between atoms: C_18  and  C_19
REMARK    5  A    between atoms: C_19  and  O_20
REMARK    6  A    between atoms: O_20  and  C_21
REMARK                            x       y       z     vdW  Elec       q    Type
REMARK                         _______ _______ _______ _____ _____    ______ ____
ROOT
ATOM      1  O   UNL     1       5.732   6.492  15.884  0.00  0.00    +0.000 OA
ATOM      2  C   UNL     1       4.964   6.442  16.850  0.00  0.00    +0.000 C 
ATOM      3  N   UNL     1       3.975   7.375  16.932  0.00  0.00    +0.000 N 
ATOM      4  C   UNL     1       3.135   7.564  17.990  0.00  0.00    +0.000 A 
ATOM      5  N   UNL     1       3.109   6.985  19.162  0.00  0.00    +0.000 NA
ATOM      6  N   UNL     1       2.163   7.534  19.996  0.00  0.00    +0.000 NA
ATOM      7  C   UNL     1       1.479   8.488  19.397  0.00  0.00    +0.000 A 
ATOM      8  S   UNL     1       1.953   8.768  17.761  0.00  0.00    +0.000 S 
ATOM      9  H   UNL     1       3.927   8.040  16.173  0.00  0.00    +0.000 HD
ENDROOT
BRANCH   2  10
ATOM     10  C   UNL     1       5.026   5.296  17.839  0.00  0.00    +0.000 C 
BRANCH  10  11
ATOM     11  C   UNL     1       4.395   4.028  17.288  0.00  0.00    +0.000 C 
BRANCH  11  12
ATOM     12  N   UNL     1       3.071   3.791  17.828  0.00  0.00    +0.000 N 
ATOM     13  N   UNL     1       1.990   3.916  17.032  0.00  0.00    +0.000 NA
ATOM     14  N   UNL     1       0.919   3.664  17.772  0.00  0.00    +0.000 NA
ATOM     15  C   UNL     1       1.341   3.353  19.037  0.00  0.00    +0.000 A 
ATOM     16  C   UNL     1       0.614   2.999  20.181  0.00  0.00    +0.000 A 
ATOM     17  C   UNL     1       1.319   2.722  21.359  0.00  0.00    +0.000 A 
ATOM     18  C   UNL     1       2.714   2.801  21.396  0.00  0.00    +0.000 A 
ATOM     19  C   UNL     1       3.453   3.159  20.263  0.00  0.00    +0.000 A 
ATOM     20  C   UNL     1       2.727   3.423  19.099  0.00  0.00    +0.000 A 
ENDBRANCH  11  12
ENDBRANCH  10  11
ENDBRANCH   2  10
BRANCH   7  21
ATOM     21  C   UNL     1       0.450   9.346  20.045  0.00  0.00    +0.000 C 
BRANCH  21  22
ATOM     22  O   UNL     1       0.290  10.521  19.248  0.00  0.00    +0.000 OA
BRANCH  22  23
ATOM     23  C   UNL     1      -1.008  10.814  18.922  0.00  0.00    +0.000 A 
ATOM     24  C   UNL     1      -1.792  11.788  19.561  0.00  0.00    +0.000 A 
ATOM     25  C   UNL     1      -3.095  12.026  19.136  0.00  0.00    +0.000 A 
ATOM     26  C   UNL     1      -3.617  11.303  18.071  0.00  0.00    +0.000 A 
ATOM     27  F   UNL     1      -4.872  11.541  17.668  0.00  0.00    +0.000 F 
ATOM     28  C   UNL     1      -2.851  10.346  17.417  0.00  0.00    +0.000 A 
ATOM     29  C   UNL     1      -1.541  10.106  17.838  0.00  0.00    +0.000 A 
ENDBRANCH  22  23
ENDBRANCH  21  22
ENDBRANCH   7  21
TORSDOF 6
ENDMDL
MODEL 4
REMARK VINA RESULT:      -7.8      5.786      8.089
REMARK  Name = 
REMARK  6 active torsions:
REMARK  status: ('A' for Active; 'I' for Inactive)
REMARK    1  A    between atoms: C_2  and  C_3
REMARK    2  A    between atoms: C_3  and  C_4
REMARK    3  A    between atoms: C_4  and  N_5
REMARK    4  A    between atoms: C_18  and  C_19
REMARK    5  A    between atoms: C_19  and  O_20
REMARK    6  A    between atoms: O_20  and  C_21
REMARK                            x       y       z     vdW  Elec       q    Type
REMARK                         _______ _______ _______ _____ _____    ______ ____
ROOT
ATOM      1  O   UNL     1       5.221   4.362  14.208  0.00  0.00    +0.000 OA
ATOM      2  C   UNL     1       5.619   4.599  15.353  0.00  0.00    +0.000 C 
ATOM      3  N   UNL     1       6.157   5.825  15.604  0.00  0.00    +0.000 N 
ATOM      4  C   UNL     1       6.775   6.211  16.757  0.00  0.00    +0.000 A 
ATOM      5  N   UNL     1       7.064   5.523  17.831  0.00  0.00    +0.000 NA
ATOM      6  N   UNL     1       7.790   6.255  18.741  0.00  0.00    +0.000 NA
ATOM      7  C   UNL     1       7.986   7.491  18.328  0.00  0.00    +0.000 A 
ATOM      8  S   UNL     1       7.280   7.836  16.791  0.00  0.00    +0.000 S 
ATOM      9  H   UNL     1       6.173   6.471  14.827  0.00  0.00    +0.000 HD
ENDROOT
BRANCH   2  10
ATOM     10  C   UNL     1       5.387   3.614  16.482  0.00  0.00    +0.000 C 
BRANCH  10  11
ATOM     11  C   UNL     1       4.001   3.753  17.089  0.00  0.00    +0.000 C 
BRANCH  11  12
ATOM     12  N   UNL     1       3.956   3.310  18.468  0.00  0.00    +0.000 N 
ATOM     13  N   UNL     1       5.081   2.878  19.072  0.00  0.00    +0.000 NA
ATOM     14  N   UNL     1       4.759   2.520  20.307  0.00  0.00    +0.000 NA
ATOM     15  C   UNL     1       3.422   2.756  20.482  0.00  0.00    +0.000 A 
ATOM     16  C   UNL     1       2.599   2.565  21.600  0.00  0.00    +0.000 A 
ATOM     17  C   UNL     1       1.245   2.907  21.496  0.00  0.00    +0.000 A 
ATOM     18  C   UNL     1       0.724   3.421  20.305  0.00  0.00    +0.000 A 
ATOM     19  C   UNL     1       1.531   3.612  19.179  0.00  0.00    +0.000 A 
ATOM     20  C   UNL     1       2.880   3.271  19.310  0.00  0.00    +0.000 A 
ENDBRANCH  11  12
ENDBRANCH  10  11
ENDBRANCH   2  10
BRANCH   7  21
ATOM     21  C   UNL     1       8.810   8.512  19.029  0.00  0.00    +0.000 C 
BRANCH  21  22
ATOM     22  O   UNL     1       8.782   9.711  18.252  0.00  0.00    +0.000 OA
BRANCH  22  23
ATOM     23  C   UNL     1       9.444  10.770  18.816  0.00  0.00    +0.000 A 
ATOM     24  C   UNL     1      10.114  11.770  18.093  0.00  0.00    +0.000 A 
ATOM     25  C   UNL     1      10.737  12.819  18.763  0.00  0.00    +0.000 A 
ATOM     26  C   UNL     1      10.686  12.879  20.149  0.00  0.00    +0.000 A 
ATOM     27  F   UNL     1      11.286  13.894  20.785  0.00  0.00    +0.000 F 
ATOM     28  C   UNL     1      10.015  11.907  20.880  0.00  0.00    +0.000 A 
ATOM     29  C   UNL     1       9.386  10.854  20.212  0.00  0.00    +0.000 A 
ENDBRANCH  22  23
ENDBRANCH  21  22
ENDBRANCH   7  21
TORSDOF 6
ENDMDL
MODEL 5
REMARK VINA RESULT:      -7.8      3.856      8.772
REMARK  Name = 
REMARK  6 active torsions:
REMARK  status: ('A' for Active; 'I' for Inactive)
REMARK    1  A    between atoms: C_2  and  C_3
REMARK    2  A    between atoms: C_3  and  C_4
REMARK    3  A    between atoms: C_4  and  N_5
REMARK    4  A    between atoms: C_18  and  C_19
REMARK    5  A    between atoms: C_19  and  O_20
REMARK    6  A    between atoms: O_20  and  C_21
REMARK                            x       y       z     vdW  Elec       q    Type
REMARK                         _______ _______ _______ _____ _____    ______ ____
ROOT
ATOM      1  O   UNL     1       0.907   9.316  22.135  0.00  0.00    +0.000 OA
ATOM      2  C   UNL     1       1.144   8.822  21.028  0.00  0.00    +0.000 C 
ATOM      3  N   UNL     1       1.641   7.554  20.985  0.00  0.00    +0.000 N 
ATOM      4  C   UNL     1       2.096   6.907  19.875  0.00  0.00    +0.000 A 
ATOM      5  N   UNL     1       2.237   7.334  18.647  0.00  0.00    +0.000 NA
ATOM      6  N   UNL     1       2.832   6.398  17.833  0.00  0.00    +0.000 NA
ATOM      7  C   UNL     1       3.080   5.277  18.478  0.00  0.00    +0.000 A 
ATOM      8  S   UNL     1       2.589   5.298  20.133  0.00  0.00    +0.000 S 
ATOM      9  H   UNL     1       1.762   7.094  21.876  0.00  0.00    +0.000 HD
ENDROOT
BRANCH   2  10
ATOM     10  C   UNL     1       0.763   9.543  19.752  0.00  0.00    +0.000 C 
BRANCH  10  11
ATOM     11  C   UNL     1       0.504  11.022  19.983  0.00  0.00    +0.000 C 
BRANCH  11  12
ATOM     12  N   UNL     1      -0.859  11.400  19.670  0.00  0.00    +0.000 N 
ATOM     13  N   UNL     1      -1.509  12.283  20.455  0.00  0.00    +0.000 NA
ATOM     14  N   UNL     1      -2.729  12.435  19.959  0.00  0.00    +0.000 NA
ATOM     15  C   UNL     1      -2.831  11.658  18.837  0.00  0.00    +0.000 A 
ATOM     16  C   UNL     1      -3.897  11.474  17.946  0.00  0.00    +0.000 A 
ATOM     17  C   UNL     1      -3.716  10.608  16.860  0.00  0.00    +0.000 A 
ATOM     18  C   UNL     1      -2.504   9.939  16.670  0.00  0.00    +0.000 A 
ATOM     19  C   UNL     1      -1.433  10.107  17.554  0.00  0.00    +0.000 A 
ATOM     20  C   UNL     1      -1.635  10.981  18.625  0.00  0.00    +0.000 A 
ENDBRANCH  11  12
ENDBRANCH  10  11
ENDBRANCH   2  10
BRANCH   7  21
ATOM     21  C   UNL     1       3.799   4.102  17.917  0.00  0.00    +0.000 C 
BRANCH  21  22
ATOM     22  O   UNL     1       4.770   4.582  16.985  0.00  0.00    +0.000 OA
BRANCH  22  23
ATOM     23  C   UNL     1       5.791   5.302  17.548  0.00  0.00    +0.000 A 
ATOM     24  C   UNL     1       6.462   4.947  18.729  0.00  0.00    +0.000 A 
ATOM     25  C   UNL     1       7.505   5.737  19.205  0.00  0.00    +0.000 A 
ATOM     26  C   UNL     1       7.885   6.874  18.503  0.00  0.00    +0.000 A 
ATOM     27  F   UNL     1       8.891   7.626  18.967  0.00  0.00    +0.000 F 
ATOM     28  C   UNL     1       7.242   7.232  17.325  0.00  0.00    +0.000 A 
ATOM     29  C   UNL     1       6.197   6.440  16.842  0.00  0.00    +0.000 A 
ENDBRANCH  22  23
ENDBRANCH  21  22
ENDBRANCH   7  21
TORSDOF 6
ENDMDL
MODEL 6
REMARK VINA RESULT:      -7.8      2.182      3.969
REMARK  Name = 
REMARK  6 active torsions:
REMARK  status: ('A' for Active; 'I' for Inactive)
REMARK    1  A    between atoms: C_2  and  C_3
REMARK    2  A    between atoms: C_3  and  C_4
REMARK    3  A    between atoms: C_4  and  N_5
REMARK    4  A    between atoms: C_18  and  C_19
REMARK    5  A    between atoms: C_19  and  O_20
REMARK    6  A    between atoms: O_20  and  C_21
REMARK                            x       y       z     vdW  Elec       q    Type
REMARK                         _______ _______ _______ _____ _____    ______ ____
ROOT
ATOM      1  O   UNL     1       6.546   4.928  15.980  0.00  0.00    +0.000 OA
ATOM      2  C   UNL     1       5.669   5.068  16.838  0.00  0.00    +0.000 C 
ATOM      3  N   UNL     1       4.857   6.159  16.752  0.00  0.00    +0.000 N 
ATOM      4  C   UNL     1       3.940   6.553  17.682  0.00  0.00    +0.000 A 
ATOM      5  N   UNL     1       3.669   6.060  18.863  0.00  0.00    +0.000 NA
ATOM      6  N   UNL     1       2.739   6.812  19.542  0.00  0.00    +0.000 NA
ATOM      7  C   UNL     1       2.312   7.828  18.821  0.00  0.00    +0.000 A 
ATOM      8  S   UNL     1       3.025   7.922  17.252  0.00  0.00    +0.000 S 
ATOM      9  H   UNL     1       5.020   6.774  15.968  0.00  0.00    +0.000 HD
ENDROOT
BRANCH   2  10
ATOM     10  C   UNL     1       5.407   3.992  17.872  0.00  0.00    +0.000 C 
BRANCH  10  11
ATOM     11  C   UNL     1       4.453   2.926  17.360  0.00  0.00    +0.000 C 
BRANCH  11  12
ATOM     12  N   UNL     1       3.116   3.077  17.898  0.00  0.00    +0.000 N 
ATOM     13  N   UNL     1       2.094   3.393  17.077  0.00  0.00    +0.000 NA
ATOM     14  N   UNL     1       0.999   3.486  17.820  0.00  0.00    +0.000 NA
ATOM     15  C   UNL     1       1.340   3.200  19.114  0.00  0.00    +0.000 A 
ATOM     16  C   UNL     1       0.557   3.147  20.275  0.00  0.00    +0.000 A 
ATOM     17  C   UNL     1       1.180   2.813  21.484  0.00  0.00    +0.000 A 
ATOM     18  C   UNL     1       2.550   2.546  21.536  0.00  0.00    +0.000 A 
ATOM     19  C   UNL     1       3.347   2.601  20.387  0.00  0.00    +0.000 A 
ATOM     20  C   UNL     1       2.701   2.928  19.192  0.00  0.00    +0.000 A 
ENDBRANCH  11  12
ENDBRANCH  10  11
ENDBRANCH   2  10
BRANCH   7  21
ATOM     21  C   UNL     1       1.378   8.886  19.293  0.00  0.00    +0.000 C 
BRANCH  21  22
ATOM     22  O   UNL     1       0.773   9.484  18.146  0.00  0.00    +0.000 OA
BRANCH  22  23
ATOM     23  C   UNL     1      -0.358  10.210  18.413  0.00  0.00    +0.000 A 
ATOM     24  C   UNL     1      -1.527  10.183  17.635  0.00  0.00    +0.000 A 
ATOM     25  C   UNL     1      -2.632  10.941  18.008  0.00  0.00    +0.000 A 
ATOM     26  C   UNL     1      -2.580  11.719  19.157  0.00  0.00    +0.000 A 
ATOM     27  F   UNL     1      -3.650  12.444  19.509  0.00  0.00    +0.000 F 
ATOM     28  C   UNL     1      -1.438  11.746  19.947  0.00  0.00    +0.000 A 
ATOM     29  C   UNL     1      -0.326  10.984  19.578  0.00  0.00    +0.000 A 
ENDBRANCH  22  23
ENDBRANCH  21  22
ENDBRANCH   7  21
TORSDOF 6
ENDMDL
MODEL 7
REMARK VINA RESULT:      -7.8      2.805      4.550
REMARK  Name = 
REMARK  6 active torsions:
REMARK  status: ('A' for Active; 'I' for Inactive)
REMARK    1  A    between atoms: C_2  and  C_3
REMARK    2  A    between atoms: C_3  and  C_4
REMARK    3  A    between atoms: C_4  and  N_5
REMARK    4  A    between atoms: C_18  and  C_19
REMARK    5  A    between atoms: C_19  and  O_20
REMARK    6  A    between atoms: O_20  and  C_21
REMARK                            x       y       z     vdW  Elec       q    Type
REMARK                         _______ _______ _______ _____ _____    ______ ____
ROOT
ATOM      1  O   UNL     1       6.426   6.124  16.246  0.00  0.00    +0.000 OA
ATOM      2  C   UNL     1       5.541   6.118  17.107  0.00  0.00    +0.000 C 
ATOM      3  N   UNL     1       4.550   7.048  17.014  0.00  0.00    +0.000 N 
ATOM      4  C   UNL     1       3.582   7.287  17.944  0.00  0.00    +0.000 A 
ATOM      5  N   UNL     1       3.406   6.768  19.132  0.00  0.00    +0.000 NA
ATOM      6  N   UNL     1       2.360   7.354  19.808  0.00  0.00    +0.000 NA
ATOM      7  C   UNL     1       1.759   8.271  19.079  0.00  0.00    +0.000 A 
ATOM      8  S   UNL     1       2.438   8.469  17.504  0.00  0.00    +0.000 S 
ATOM      9  H   UNL     1       4.599   7.673  16.221  0.00  0.00    +0.000 HD
ENDROOT
BRANCH   2  10
ATOM     10  C   UNL     1       5.475   5.026  18.155  0.00  0.00    +0.000 C 
BRANCH  10  11
ATOM     11  C   UNL     1       4.801   3.769  17.631  0.00  0.00    +0.000 C 
BRANCH  11  12
ATOM     12  N   UNL     1       3.413   3.678  18.036  0.00  0.00    +0.000 N 
ATOM     13  N   UNL     1       2.435   3.961  17.152  0.00  0.00    +0.000 NA
ATOM     14  N   UNL     1       1.275   3.818  17.780  0.00  0.00    +0.000 NA
ATOM     15  C   UNL     1       1.534   3.415  19.062  0.00  0.00    +0.000 A 
ATOM     16  C   UNL     1       0.664   3.114  20.118  0.00  0.00    +0.000 A 
ATOM     17  C   UNL     1       1.216   2.712  21.342  0.00  0.00    +0.000 A 
ATOM     18  C   UNL     1       2.600   2.619  21.508  0.00  0.00    +0.000 A 
ATOM     19  C   UNL     1       3.482   2.922  20.466  0.00  0.00    +0.000 A 
ATOM     20  C   UNL     1       2.907   3.312  19.253  0.00  0.00    +0.000 A 
ENDBRANCH  11  12
ENDBRANCH  10  11
ENDBRANCH   2  10
BRANCH   7  21
ATOM     21  C   UNL     1       0.656   9.154  19.544  0.00  0.00    +0.000 C 
BRANCH  21  22
ATOM     22  O   UNL     1       1.173  10.003  20.571  0.00  0.00    +0.000 OA
BRANCH  22  23
ATOM     23  C   UNL     1       0.216  10.628  21.327  0.00  0.00    +0.000 A 
ATOM     24  C   UNL     1      -0.405  11.840  20.986  0.00  0.00    +0.000 A 
ATOM     25  C   UNL     1      -1.385  12.380  21.813  0.00  0.00    +0.000 A 
ATOM     26  C   UNL     1      -1.754  11.712  22.973  0.00  0.00    +0.000 A 
ATOM     27  F   UNL     1      -2.700  12.238  23.762  0.00  0.00    +0.000 F 
ATOM     28  C   UNL     1      -1.161  10.504  23.318  0.00  0.00    +0.000 A 
ATOM     29  C   UNL     1      -0.178   9.957  22.489  0.00  0.00    +0.000 A 
ENDBRANCH  22  23
ENDBRANCH  21  22
ENDBRANCH   7  21
TORSDOF 6
ENDMDL
MODEL 8
REMARK VINA RESULT:      -7.8      3.074      3.728
REMARK  Name = 
REMARK  6 active torsions:
REMARK  status: ('A' for Active; 'I' for Inactive)
REMARK    1  A    between atoms: C_2  and  C_3
REMARK    2  A    between atoms: C_3  and  C_4
REMARK    3  A    between atoms: C_4  and  N_5
REMARK    4  A    between atoms: C_18  and  C_19
REMARK    5  A    between atoms: C_19  and  O_20
REMARK    6  A    between atoms: O_20  and  C_21
REMARK                            x       y       z     vdW  Elec       q    Type
REMARK                         _______ _______ _______ _____ _____    ______ ____
ROOT
ATOM      1  O   UNL     1       2.145   4.618  21.205  0.00  0.00    +0.000 OA
ATOM      2  C   UNL     1       2.316   5.591  20.464  0.00  0.00    +0.000 C 
ATOM      3  N   UNL     1       1.701   6.761  20.790  0.00  0.00    +0.000 N 
ATOM      4  C   UNL     1       1.655   7.886  20.021  0.00  0.00    +0.000 A 
ATOM      5  N   UNL     1       2.099   8.099  18.809  0.00  0.00    +0.000 NA
ATOM      6  N   UNL     1       1.762   9.349  18.341  0.00  0.00    +0.000 NA
ATOM      7  C   UNL     1       1.107  10.048  19.245  0.00  0.00    +0.000 A 
ATOM      8  S   UNL     1       0.868   9.215  20.737  0.00  0.00    +0.000 S 
ATOM      9  H   UNL     1       1.156   6.755  21.640  0.00  0.00    +0.000 HD
ENDROOT
BRANCH   2  10
ATOM     10  C   UNL     1       3.293   5.530  19.307  0.00  0.00    +0.000 C 
BRANCH  10  11
ATOM     11  C   UNL     1       4.177   4.296  19.366  0.00  0.00    +0.000 C 
BRANCH  11  12
ATOM     12  N   UNL     1       5.414   4.468  18.631  0.00  0.00    +0.000 N 
ATOM     13  N   UNL     1       6.569   4.666  19.298  0.00  0.00    +0.000 NA
ATOM     14  N   UNL     1       7.531   4.809  18.397  0.00  0.00    +0.000 NA
ATOM     15  C   UNL     1       6.973   4.672  17.155  0.00  0.00    +0.000 A 
ATOM     16  C   UNL     1       7.554   4.722  15.881  0.00  0.00    +0.000 A 
ATOM     17  C   UNL     1       6.728   4.536  14.765  0.00  0.00    +0.000 A 
ATOM     18  C   UNL     1       5.357   4.313  14.915  0.00  0.00    +0.000 A 
ATOM     19  C   UNL     1       4.761   4.267  16.180  0.00  0.00    +0.000 A 
ATOM     20  C   UNL     1       5.607   4.446  17.278  0.00  0.00    +0.000 A 
ENDBRANCH  11  12
ENDBRANCH  10  11
ENDBRANCH   2  10
BRANCH   7  21
ATOM     21  C   UNL     1       0.519  11.398  19.029  0.00  0.00    +0.000 C 
BRANCH  21  22
ATOM     22  O   UNL     1       1.133  12.300  19.952  0.00  0.00    +0.000 OA
BRANCH  22  23
ATOM     23  C   UNL     1       1.661  13.427  19.380  0.00  0.00    +0.000 A 
ATOM     24  C   UNL     1       2.741  13.437  18.483  0.00  0.00    +0.000 A 
ATOM     25  C   UNL     1       3.186  14.638  17.937  0.00  0.00    +0.000 A 
ATOM     26  C   UNL     1       2.553  15.826  18.277  0.00  0.00    +0.000 A 
ATOM     27  F   UNL     1       2.987  16.976  17.745  0.00  0.00    +0.000 F 
ATOM     28  C   UNL     1       1.473  15.834  19.150  0.00  0.00    +0.000 A 
ATOM     29  C   UNL     1       1.021  14.631  19.698  0.00  0.00    +0.000 A 
ENDBRANCH  22  23
ENDBRANCH  21  22
ENDBRANCH   7  21
TORSDOF 6
ENDMDL
MODEL 9
REMARK VINA RESULT:      -7.7      4.150      7.586
REMARK  Name = 
REMARK  6 active torsions:
REMARK  status: ('A' for Active; 'I' for Inactive)
REMARK    1  A    between atoms: C_2  and  C_3
REMARK    2  A    between atoms: C_3  and  C_4
REMARK    3  A    between atoms: C_4  and  N_5
REMARK    4  A    between atoms: C_18  and  C_19
REMARK    5  A    between atoms: C_19  and  O_20
REMARK    6  A    between atoms: O_20  and  C_21
REMARK                            x       y       z     vdW  Elec       q    Type
REMARK                         _______ _______ _______ _____ _____    ______ ____
ROOT
ATOM      1  O   UNL     1       1.256   8.532  18.534  0.00  0.00    +0.000 OA
ATOM      2  C   UNL     1       2.225   7.817  18.808  0.00  0.00    +0.000 C 
ATOM      3  N   UNL     1       3.212   7.691  17.877  0.00  0.00    +0.000 N 
ATOM      4  C   UNL     1       4.273   6.838  17.942  0.00  0.00    +0.000 A 
ATOM      5  N   UNL     1       4.565   5.918  18.826  0.00  0.00    +0.000 NA
ATOM      6  N   UNL     1       5.681   5.194  18.477  0.00  0.00    +0.000 NA
ATOM      7  C   UNL     1       6.214   5.629  17.354  0.00  0.00    +0.000 A 
ATOM      8  S   UNL     1       5.379   6.967  16.654  0.00  0.00    +0.000 S 
ATOM      9  H   UNL     1       3.088   8.218  17.024  0.00  0.00    +0.000 HD
ENDROOT
BRANCH   2  10
ATOM     10  C   UNL     1       2.386   7.211  20.187  0.00  0.00    +0.000 C 
BRANCH  10  11
ATOM     11  C   UNL     1       1.318   6.172  20.486  0.00  0.00    +0.000 C 
BRANCH  11  12
ATOM     12  N   UNL     1       1.833   4.819  20.427  0.00  0.00    +0.000 N 
ATOM     13  N   UNL     1       2.151   4.171  21.566  0.00  0.00    +0.000 NA
ATOM     14  N   UNL     1       2.609   2.973  21.229  0.00  0.00    +0.000 NA
ATOM     15  C   UNL     1       2.551   2.865  19.866  0.00  0.00    +0.000 A 
ATOM     16  C   UNL     1       2.901   1.806  19.018  0.00  0.00    +0.000 A 
ATOM     17  C   UNL     1       2.727   1.972  17.638  0.00  0.00    +0.000 A 
ATOM     18  C   UNL     1       2.222   3.166  17.117  0.00  0.00    +0.000 A 
ATOM     19  C   UNL     1       1.875   4.235  17.950  0.00  0.00    +0.000 A 
ATOM     20  C   UNL     1       2.050   4.042  19.323  0.00  0.00    +0.000 A 
ENDBRANCH  11  12
ENDBRANCH  10  11
ENDBRANCH   2  10
BRANCH   7  21
ATOM     21  C   UNL     1       7.370   5.007  16.652  0.00  0.00    +0.000 C 
BRANCH  21  22
ATOM     22  O   UNL     1       7.450   5.577  15.344  0.00  0.00    +0.000 OA
BRANCH  22  23
ATOM     23  C   UNL     1       6.899   4.807  14.354  0.00  0.00    +0.000 A 
ATOM     24  C   UNL     1       5.706   4.077  14.480  0.00  0.00    +0.000 A 
ATOM     25  C   UNL     1       5.217   3.344  13.403  0.00  0.00    +0.000 A 
ATOM     26  C   UNL     1       5.909   3.343  12.198  0.00  0.00    +0.000 A 
ATOM     27  F   UNL     1       5.429   2.637  11.167  0.00  0.00    +0.000 F 
ATOM     28  C   UNL     1       7.082   4.071  12.050  0.00  0.00    +0.000 A 
ATOM     29  C   UNL     1       7.575   4.811  13.128  0.00  0.00    +0.000 A 
ENDBRANCH  22  23
ENDBRANCH  21  22
ENDBRANCH   7  21
TORSDOF 6
ENDMDL
