MODEL 1
REMARK VINA RESULT:      -7.6      0.000      0.000
REMARK  Name = 
REMARK  7 active torsions:
REMARK  status: ('A' for Active; 'I' for Inactive)
REMARK    1  A    between atoms: C_1  and  C_2
REMARK    2  A    between atoms: C_8  and  C_9
REMARK    3  A    between atoms: C_9  and  C_10
REMARK    4  A    between atoms: C_10  and  C_11
REMARK    5  A    between atoms: C_11  and  C_12
REMARK    6  A    between atoms: C_12  and  N_13
REMARK    7  A    between atoms: N_13  and  C_14
REMARK                            x       y       z     vdW  Elec       q    Type
REMARK                         _______ _______ _______ _____ _____    ______ ____
ROOT
ATOM      1  N   UNL     1       3.729   2.277  17.871  0.00  0.00    +0.000 N 
ATOM      2  H   UNL     1       3.825   1.571  17.149  0.00  0.00    +0.000 HD
ENDROOT
BRANCH   1   3
ATOM      3  C   UNL     1       4.524   3.390  17.619  0.00  0.00    +0.000 A 
ATOM      4  C   UNL     1       4.508   4.009  16.419  0.00  0.00    +0.000 A 
ATOM      5  C   UNL     1       5.382   5.168  16.138  0.00  0.00    +0.000 A 
ATOM      6  O   UNL     1       5.358   5.715  15.040  0.00  0.00    +0.000 OA
ATOM      7  C   UNL     1       6.286   5.616  17.215  0.00  0.00    +0.000 A 
ATOM      8  C   UNL     1       7.157   6.691  17.007  0.00  0.00    +0.000 A 
ATOM      9  C   UNL     1       7.999   7.097  18.039  0.00  0.00    +0.000 A 
ATOM     10  C   UNL     1       7.966   6.429  19.265  0.00  0.00    +0.000 A 
ATOM     11  C   UNL     1       7.089   5.354  19.464  0.00  0.00    +0.000 A 
ATOM     12  C   UNL     1       6.244   4.930  18.435  0.00  0.00    +0.000 A 
ATOM     13  N   UNL     1       5.346   3.867  18.616  0.00  0.00    +0.000 N 
ATOM     14  H   UNL     1       5.395   3.337  19.474  0.00  0.00    +0.000 HD
ENDBRANCH   1   3
BRANCH   1  15
ATOM     15  C   UNL     1       2.367   2.390  18.394  0.00  0.00    +0.000 C 
BRANCH  15  16
ATOM     16  C   UNL     1       1.779   3.793  18.233  0.00  0.00    +0.000 C 
BRANCH  16  17
ATOM     17  C   UNL     1       1.633   4.417  19.630  0.00  0.00    +0.000 C 
BRANCH  17  18
ATOM     18  C   UNL     1       2.695   5.467  19.959  0.00  0.00    +0.000 C 
BRANCH  18  26
ATOM     19  C   UNL     1       2.992   7.398  17.613  0.00  0.00    +0.000 C 
ATOM     20  C   UNL     1       2.239   7.747  18.865  0.00  0.00    +0.000 A 
ATOM     21  C   UNL     1       1.638   9.011  18.968  0.00  0.00    +0.000 A 
ATOM     22  C   UNL     1       0.922   9.347  20.110  0.00  0.00    +0.000 A 
ATOM     23 BR   UNL     1       0.118  11.045  20.277  0.00  0.00    +0.000 Br
ATOM     24  C   UNL     1       0.815   8.408  21.115  0.00  0.00    +0.000 A 
ATOM     25  N   UNL     1       1.384   7.181  21.057  0.00  0.00    +0.000 NA
ATOM     26  C   UNL     1       2.099   6.860  19.946  0.00  0.00    +0.000 A 
ENDBRANCH  18  26
ENDBRANCH  17  18
ENDBRANCH  16  17
ENDBRANCH  15  16
ENDBRANCH   1  15
TORSDOF 6
ENDMDL
MODEL 2
REMARK VINA RESULT:      -7.5      0.935      1.070
REMARK  Name = 
REMARK  7 active torsions:
REMARK  status: ('A' for Active; 'I' for Inactive)
REMARK    1  A    between atoms: C_1  and  C_2
REMARK    2  A    between atoms: C_8  and  C_9
REMARK    3  A    between atoms: C_9  and  C_10
REMARK    4  A    between atoms: C_10  and  C_11
REMARK    5  A    between atoms: C_11  and  C_12
REMARK    6  A    between atoms: C_12  and  N_13
REMARK    7  A    between atoms: N_13  and  C_14
REMARK                            x       y       z     vdW  Elec       q    Type
REMARK                         _______ _______ _______ _____ _____    ______ ____
ROOT
ATOM      1  N   UNL     1       3.559   2.247  19.484  0.00  0.00    +0.000 N 
ATOM      2  H   UNL     1       3.057   1.577  18.911  0.00  0.00    +0.000 HD
ENDROOT
BRANCH   1   3
ATOM      3  C   UNL     1       4.296   3.140  18.712  0.00  0.00    +0.000 A 
ATOM      4  C   UNL     1       4.153   3.197  17.371  0.00  0.00    +0.000 A 
ATOM      5  C   UNL     1       4.966   4.118  16.547  0.00  0.00    +0.000 A 
ATOM      6  O   UNL     1       4.826   4.153  15.330  0.00  0.00    +0.000 OA
ATOM      7  C   UNL     1       5.952   4.965  17.246  0.00  0.00    +0.000 A 
ATOM      8  C   UNL     1       6.770   5.840  16.524  0.00  0.00    +0.000 A 
ATOM      9  C   UNL     1       7.693   6.631  17.205  0.00  0.00    +0.000 A 
ATOM     10  C   UNL     1       7.790   6.541  18.595  0.00  0.00    +0.000 A 
ATOM     11  C   UNL     1       6.965   5.662  19.310  0.00  0.00    +0.000 A 
ATOM     12  C   UNL     1       6.042   4.856  18.639  0.00  0.00    +0.000 A 
ATOM     13  N   UNL     1       5.193   3.981  19.335  0.00  0.00    +0.000 N 
ATOM     14  H   UNL     1       5.335   3.860  20.326  0.00  0.00    +0.000 HD
ENDBRANCH   1   3
BRANCH   1  15
ATOM     15  C   UNL     1       2.814   2.668  20.670  0.00  0.00    +0.000 C 
BRANCH  15  16
ATOM     16  C   UNL     1       1.374   3.078  20.359  0.00  0.00    +0.000 C 
BRANCH  16  17
ATOM     17  C   UNL     1       1.392   4.502  19.781  0.00  0.00    +0.000 C 
BRANCH  17  18
ATOM     18  C   UNL     1       2.203   5.501  20.607  0.00  0.00    +0.000 C 
BRANCH  18  26
ATOM     19  C   UNL     1       2.986   6.821  17.968  0.00  0.00    +0.000 C 
ATOM     20  C   UNL     1       2.198   7.531  19.032  0.00  0.00    +0.000 A 
ATOM     21  C   UNL     1       1.794   8.857  18.809  0.00  0.00    +0.000 A 
ATOM     22  C   UNL     1       1.048   9.525  19.772  0.00  0.00    +0.000 A 
ATOM     23 BR   UNL     1       0.507  11.311  19.501  0.00  0.00    +0.000 Br
ATOM     24  C   UNL     1       0.715   8.848  20.927  0.00  0.00    +0.000 A 
ATOM     25  N   UNL     1       1.089   7.572  21.182  0.00  0.00    +0.000 NA
ATOM     26  C   UNL     1       1.834   6.925  20.246  0.00  0.00    +0.000 A 
ENDBRANCH  18  26
ENDBRANCH  17  18
ENDBRANCH  16  17
ENDBRANCH  15  16
ENDBRANCH   1  15
TORSDOF 6
ENDMDL
MODEL 3
REMARK VINA RESULT:      -7.4      5.448      7.712
REMARK  Name = 
REMARK  7 active torsions:
REMARK  status: ('A' for Active; 'I' for Inactive)
REMARK    1  A    between atoms: C_1  and  C_2
REMARK    2  A    between atoms: C_8  and  C_9
REMARK    3  A    between atoms: C_9  and  C_10
REMARK    4  A    between atoms: C_10  and  C_11
REMARK    5  A    between atoms: C_11  and  C_12
REMARK    6  A    between atoms: C_12  and  N_13
REMARK    7  A    between atoms: N_13  and  C_14
REMARK                            x       y       z     vdW  Elec       q    Type
REMARK                         _______ _______ _______ _____ _____    ______ ____
ROOT
ATOM      1  N   UNL     1       8.889   9.199  18.888  0.00  0.00    +0.000 N 
ATOM      2  H   UNL     1       9.639   8.516  18.874  0.00  0.00    +0.000 HD
ENDROOT
BRANCH   1   3
ATOM      3  C   UNL     1       9.372  10.497  19.025  0.00  0.00    +0.000 A 
ATOM      4  C   UNL     1      10.043  11.107  18.025  0.00  0.00    +0.000 A 
ATOM      5  C   UNL     1      10.591  12.472  18.185  0.00  0.00    +0.000 A 
ATOM      6  O   UNL     1      11.202  13.009  17.268  0.00  0.00    +0.000 OA
ATOM      7  C   UNL     1      10.391  13.137  19.487  0.00  0.00    +0.000 A 
ATOM      8  C   UNL     1      10.905  14.418  19.713  0.00  0.00    +0.000 A 
ATOM      9  C   UNL     1      10.701  15.027  20.949  0.00  0.00    +0.000 A 
ATOM     10  C   UNL     1       9.990  14.355  21.945  0.00  0.00    +0.000 A 
ATOM     11  C   UNL     1       9.476  13.072  21.708  0.00  0.00    +0.000 A 
ATOM     12  C   UNL     1       9.681  12.445  20.476  0.00  0.00    +0.000 A 
ATOM     13  N   UNL     1       9.163  11.168  20.210  0.00  0.00    +0.000 N 
ATOM     14  H   UNL     1       8.729  10.659  20.965  0.00  0.00    +0.000 HD
ENDBRANCH   1   3
BRANCH   1  15
ATOM     15  C   UNL     1       7.784   8.867  17.990  0.00  0.00    +0.000 C 
BRANCH  15  16
ATOM     16  C   UNL     1       7.908   7.470  17.379  0.00  0.00    +0.000 C 
BRANCH  16  17
ATOM     17  C   UNL     1       7.512   6.439  18.448  0.00  0.00    +0.000 C 
BRANCH  17  18
ATOM     18  C   UNL     1       7.480   4.997  17.944  0.00  0.00    +0.000 C 
BRANCH  18  26
ATOM     19  C   UNL     1       5.690   4.802  15.479  0.00  0.00    +0.000 C 
ATOM     20  C   UNL     1       5.248   4.357  16.844  0.00  0.00    +0.000 A 
ATOM     21  C   UNL     1       3.960   3.820  17.002  0.00  0.00    +0.000 A 
ATOM     22  C   UNL     1       3.539   3.385  18.251  0.00  0.00    +0.000 A 
ATOM     23 BR   UNL     1       1.808   2.675  18.490  0.00  0.00    +0.000 Br
ATOM     24  C   UNL     1       4.418   3.486  19.310  0.00  0.00    +0.000 A 
ATOM     25  N   UNL     1       5.665   4.001  19.201  0.00  0.00    +0.000 NA
ATOM     26  C   UNL     1       6.070   4.443  17.980  0.00  0.00    +0.000 A 
ENDBRANCH  18  26
ENDBRANCH  17  18
ENDBRANCH  16  17
ENDBRANCH  15  16
ENDBRANCH   1  15
TORSDOF 6
ENDMDL
MODEL 4
REMARK VINA RESULT:      -7.2      5.327      7.315
REMARK  Name = 
REMARK  7 active torsions:
REMARK  status: ('A' for Active; 'I' for Inactive)
REMARK    1  A    between atoms: C_1  and  C_2
REMARK    2  A    between atoms: C_8  and  C_9
REMARK    3  A    between atoms: C_9  and  C_10
REMARK    4  A    between atoms: C_10  and  C_11
REMARK    5  A    between atoms: C_11  and  C_12
REMARK    6  A    between atoms: C_12  and  N_13
REMARK    7  A    between atoms: N_13  and  C_14
REMARK                            x       y       z     vdW  Elec       q    Type
REMARK                         _______ _______ _______ _____ _____    ______ ____
ROOT
ATOM      1  N   UNL     1       8.992   8.963  19.100  0.00  0.00    +0.000 N 
ATOM      2  H   UNL     1       9.800   8.387  19.312  0.00  0.00    +0.000 HD
ENDROOT
BRANCH   1   3
ATOM      3  C   UNL     1       9.292  10.320  19.158  0.00  0.00    +0.000 A 
ATOM      4  C   UNL     1       9.653  11.008  18.054  0.00  0.00    +0.000 A 
ATOM      5  C   UNL     1      10.011  12.442  18.122  0.00  0.00    +0.000 A 
ATOM      6  O   UNL     1      10.341  13.051  17.111  0.00  0.00    +0.000 OA
ATOM      7  C   UNL     1       9.974  13.090  19.448  0.00  0.00    +0.000 A 
ATOM      8  C   UNL     1      10.324  14.437  19.587  0.00  0.00    +0.000 A 
ATOM      9  C   UNL     1      10.279  15.028  20.848  0.00  0.00    +0.000 A 
ATOM     10  C   UNL     1       9.886  14.272  21.954  0.00  0.00    +0.000 A 
ATOM     11  C   UNL     1       9.535  12.923  21.804  0.00  0.00    +0.000 A 
ATOM     12  C   UNL     1       9.585  12.315  20.547  0.00  0.00    +0.000 A 
ATOM     13  N   UNL     1       9.222  10.971  20.370  0.00  0.00    +0.000 N 
ATOM     14  H   UNL     1       9.027  10.414  21.188  0.00  0.00    +0.000 HD
ENDBRANCH   1   3
BRANCH   1  15
ATOM     15  C   UNL     1       8.132   8.396  18.062  0.00  0.00    +0.000 C 
BRANCH  15  16
ATOM     16  C   UNL     1       7.863   6.902  18.256  0.00  0.00    +0.000 C 
BRANCH  16  17
ATOM     17  C   UNL     1       7.016   6.407  17.073  0.00  0.00    +0.000 C 
BRANCH  17  18
ATOM     18  C   UNL     1       5.634   7.052  16.981  0.00  0.00    +0.000 C 
BRANCH  18  26
ATOM     19  C   UNL     1       2.855   7.906  17.911  0.00  0.00    +0.000 C 
ATOM     20  C   UNL     1       3.274   6.468  17.813  0.00  0.00    +0.000 A 
ATOM     21  C   UNL     1       2.354   5.465  18.156  0.00  0.00    +0.000 A 
ATOM     22  C   UNL     1       2.715   4.128  18.055  0.00  0.00    +0.000 A 
ATOM     23 BR   UNL     1       1.500   2.763  18.524  0.00  0.00    +0.000 Br
ATOM     24  C   UNL     1       3.983   3.825  17.603  0.00  0.00    +0.000 A 
ATOM     25  N   UNL     1       4.902   4.762  17.268  0.00  0.00    +0.000 NA
ATOM     26  C   UNL     1       4.552   6.071  17.384  0.00  0.00    +0.000 A 
ENDBRANCH  18  26
ENDBRANCH  17  18
ENDBRANCH  16  17
ENDBRANCH  15  16
ENDBRANCH   1  15
TORSDOF 6
ENDMDL
MODEL 5
REMARK VINA RESULT:      -7.2      1.580      2.283
REMARK  Name = 
REMARK  7 active torsions:
REMARK  status: ('A' for Active; 'I' for Inactive)
REMARK    1  A    between atoms: C_1  and  C_2
REMARK    2  A    between atoms: C_8  and  C_9
REMARK    3  A    between atoms: C_9  and  C_10
REMARK    4  A    between atoms: C_10  and  C_11
REMARK    5  A    between atoms: C_11  and  C_12
REMARK    6  A    between atoms: C_12  and  N_13
REMARK    7  A    between atoms: N_13  and  C_14
REMARK                            x       y       z     vdW  Elec       q    Type
REMARK                         _______ _______ _______ _____ _____    ______ ____
ROOT
ATOM      1  N   UNL     1       4.600   2.253  19.004  0.00  0.00    +0.000 N 
ATOM      2  H   UNL     1       3.848   1.850  18.457  0.00  0.00    +0.000 HD
ENDROOT
BRANCH   1   3
ATOM      3  C   UNL     1       5.118   3.400  18.410  0.00  0.00    +0.000 A 
ATOM      4  C   UNL     1       4.766   3.763  17.158  0.00  0.00    +0.000 A 
ATOM      5  C   UNL     1       5.346   4.961  16.511  0.00  0.00    +0.000 A 
ATOM      6  O   UNL     1       5.019   5.273  15.372  0.00  0.00    +0.000 OA
ATOM      7  C   UNL     1       6.338   5.736  17.281  0.00  0.00    +0.000 A 
ATOM      8  C   UNL     1       6.944   6.865  16.719  0.00  0.00    +0.000 A 
ATOM      9  C   UNL     1       7.876   7.583  17.466  0.00  0.00    +0.000 A 
ATOM     10  C   UNL     1       8.194   7.169  18.760  0.00  0.00    +0.000 A 
ATOM     11  C   UNL     1       7.580   6.038  19.316  0.00  0.00    +0.000 A 
ATOM     12  C   UNL     1       6.650   5.303  18.575  0.00  0.00    +0.000 A 
ATOM     13  N   UNL     1       6.011   4.176  19.116  0.00  0.00    +0.000 N 
ATOM     14  H   UNL     1       6.314   3.837  20.016  0.00  0.00    +0.000 HD
ENDBRANCH   1   3
BRANCH   1  15
ATOM     15  C   UNL     1       4.389   2.148  20.448  0.00  0.00    +0.000 C 
BRANCH  15  16
ATOM     16  C   UNL     1       2.951   1.783  20.818  0.00  0.00    +0.000 C 
BRANCH  16  17
ATOM     17  C   UNL     1       2.340   2.959  21.596  0.00  0.00    +0.000 C 
BRANCH  17  18
ATOM     18  C   UNL     1       1.132   3.600  20.913  0.00  0.00    +0.000 C 
BRANCH  18  26
ATOM     19  C   UNL     1       1.272   3.416  17.870  0.00  0.00    +0.000 C 
ATOM     20  C   UNL     1       1.626   4.663  18.627  0.00  0.00    +0.000 A 
ATOM     21  C   UNL     1       2.033   5.801  17.913  0.00  0.00    +0.000 A 
ATOM     22  C   UNL     1       2.347   6.971  18.593  0.00  0.00    +0.000 A 
ATOM     23 BR   UNL     1       2.911   8.508  17.656  0.00  0.00    +0.000 Br
ATOM     24  C   UNL     1       2.234   6.979  19.968  0.00  0.00    +0.000 A 
ATOM     25  N   UNL     1       1.850   5.902  20.694  0.00  0.00    +0.000 NA
ATOM     26  C   UNL     1       1.561   4.752  20.027  0.00  0.00    +0.000 A 
ENDBRANCH  18  26
ENDBRANCH  17  18
ENDBRANCH  16  17
ENDBRANCH  15  16
ENDBRANCH   1  15
TORSDOF 6
ENDMDL
MODEL 6
REMARK VINA RESULT:      -7.2      4.986      7.432
REMARK  Name = 
REMARK  7 active torsions:
REMARK  status: ('A' for Active; 'I' for Inactive)
REMARK    1  A    between atoms: C_1  and  C_2
REMARK    2  A    between atoms: C_8  and  C_9
REMARK    3  A    between atoms: C_9  and  C_10
REMARK    4  A    between atoms: C_10  and  C_11
REMARK    5  A    between atoms: C_11  and  C_12
REMARK    6  A    between atoms: C_12  and  N_13
REMARK    7  A    between atoms: N_13  and  C_14
REMARK                            x       y       z     vdW  Elec       q    Type
REMARK                         _______ _______ _______ _____ _____    ______ ____
ROOT
ATOM      1  N   UNL     1       7.315   8.069  17.007  0.00  0.00    +0.000 N 
ATOM      2  H   UNL     1       7.794   8.180  16.120  0.00  0.00    +0.000 HD
ENDROOT
BRANCH   1   3
ATOM      3  C   UNL     1       6.477   6.957  17.009  0.00  0.00    +0.000 A 
ATOM      4  C   UNL     1       6.858   5.789  16.451  0.00  0.00    +0.000 A 
ATOM      5  C   UNL     1       5.952   4.619  16.418  0.00  0.00    +0.000 A 
ATOM      6  O   UNL     1       6.312   3.567  15.903  0.00  0.00    +0.000 OA
ATOM      7  C   UNL     1       4.608   4.783  17.006  0.00  0.00    +0.000 A 
ATOM      8  C   UNL     1       3.694   3.724  16.986  0.00  0.00    +0.000 A 
ATOM      9  C   UNL     1       2.432   3.902  17.548  0.00  0.00    +0.000 A 
ATOM     10  C   UNL     1       2.095   5.129  18.123  0.00  0.00    +0.000 A 
ATOM     11  C   UNL     1       3.019   6.182  18.140  0.00  0.00    +0.000 A 
ATOM     12  C   UNL     1       4.285   6.022  17.571  0.00  0.00    +0.000 A 
ATOM     13  N   UNL     1       5.232   7.058  17.591  0.00  0.00    +0.000 N 
ATOM     14  H   UNL     1       4.946   7.965  17.928  0.00  0.00    +0.000 HD
ENDBRANCH   1   3
BRANCH   1  15
ATOM     15  C   UNL     1       8.138   8.430  18.161  0.00  0.00    +0.000 C 
BRANCH  15  16
ATOM     16  C   UNL     1       8.653   9.869  18.102  0.00  0.00    +0.000 C 
BRANCH  16  17
ATOM     17  C   UNL     1       9.309  10.202  19.451  0.00  0.00    +0.000 C 
BRANCH  17  18
ATOM     18  C   UNL     1      10.429  11.238  19.363  0.00  0.00    +0.000 C 
BRANCH  18  26
ATOM     19  C   UNL     1      11.303  12.973  17.009  0.00  0.00    +0.000 C 
ATOM     20  C   UNL     1      10.273  13.415  18.008  0.00  0.00    +0.000 A 
ATOM     21  C   UNL     1       9.676  14.677  17.857  0.00  0.00    +0.000 A 
ATOM     22  C   UNL     1       8.707  15.098  18.760  0.00  0.00    +0.000 A 
ATOM     23 BR   UNL     1       7.902  16.795  18.586  0.00  0.00    +0.000 Br
ATOM     24  C   UNL     1       8.351  14.243  19.783  0.00  0.00    +0.000 A 
ATOM     25  N   UNL     1       8.906  13.022  19.966  0.00  0.00    +0.000 NA
ATOM     26  C   UNL     1       9.867  12.619  19.091  0.00  0.00    +0.000 A 
ENDBRANCH  18  26
ENDBRANCH  17  18
ENDBRANCH  16  17
ENDBRANCH  15  16
ENDBRANCH   1  15
TORSDOF 6
ENDMDL
MODEL 7
REMARK VINA RESULT:      -7.1      2.565      6.123
REMARK  Name = 
REMARK  7 active torsions:
REMARK  status: ('A' for Active; 'I' for Inactive)
REMARK    1  A    between atoms: C_1  and  C_2
REMARK    2  A    between atoms: C_8  and  C_9
REMARK    3  A    between atoms: C_9  and  C_10
REMARK    4  A    between atoms: C_10  and  C_11
REMARK    5  A    between atoms: C_11  and  C_12
REMARK    6  A    between atoms: C_12  and  N_13
REMARK    7  A    between atoms: N_13  and  C_14
REMARK                            x       y       z     vdW  Elec       q    Type
REMARK                         _______ _______ _______ _____ _____    ______ ____
ROOT
ATOM      1  N   UNL     1       2.339   5.511  20.023  0.00  0.00    +0.000 N 
ATOM      2  H   UNL     1       2.839   5.151  19.217  0.00  0.00    +0.000 HD
ENDROOT
BRANCH   1   3
ATOM      3  C   UNL     1       1.963   6.840  19.850  0.00  0.00    +0.000 A 
ATOM      4  C   UNL     1       2.191   7.490  18.689  0.00  0.00    +0.000 A 
ATOM      5  C   UNL     1       1.828   8.914  18.519  0.00  0.00    +0.000 A 
ATOM      6  O   UNL     1       2.046   9.489  17.459  0.00  0.00    +0.000 OA
ATOM      7  C   UNL     1       1.219   9.603  19.673  0.00  0.00    +0.000 A 
ATOM      8  C   UNL     1       0.875  10.956  19.588  0.00  0.00    +0.000 A 
ATOM      9  C   UNL     1       0.300  11.585  20.690  0.00  0.00    +0.000 A 
ATOM     10  C   UNL     1       0.076  10.862  21.862  0.00  0.00    +0.000 A 
ATOM     11  C   UNL     1       0.422   9.506  21.938  0.00  0.00    +0.000 A 
ATOM     12  C   UNL     1       1.008   8.864  20.844  0.00  0.00    +0.000 A 
ATOM     13  N   UNL     1       1.349   7.503  20.890  0.00  0.00    +0.000 N 
ATOM     14  H   UNL     1       1.265   7.016  21.770  0.00  0.00    +0.000 HD
ENDBRANCH   1   3
BRANCH   1  15
ATOM     15  C   UNL     1       1.459   4.524  20.649  0.00  0.00    +0.000 C 
BRANCH  15  16
ATOM     16  C   UNL     1       1.192   3.310  19.758  0.00  0.00    +0.000 C 
BRANCH  16  17
ATOM     17  C   UNL     1       1.342   3.745  18.292  0.00  0.00    +0.000 C 
BRANCH  17  18
ATOM     18  C   UNL     1       2.525   3.104  17.567  0.00  0.00    +0.000 C 
BRANCH  18  26
ATOM     19  C   UNL     1       4.533   2.419  19.762  0.00  0.00    +0.000 C 
ATOM     20  C   UNL     1       4.718   3.574  18.820  0.00  0.00    +0.000 A 
ATOM     21  C   UNL     1       5.865   4.376  18.942  0.00  0.00    +0.000 A 
ATOM     22  C   UNL     1       6.064   5.438  18.070  0.00  0.00    +0.000 A 
ATOM     23 BR   UNL     1       7.589   6.537  18.225  0.00  0.00    +0.000 Br
ATOM     24  C   UNL     1       5.120   5.665  17.090  0.00  0.00    +0.000 A 
ATOM     25  N   UNL     1       4.000   4.920  16.942  0.00  0.00    +0.000 NA
ATOM     26  C   UNL     1       3.797   3.891  17.808  0.00  0.00    +0.000 A 
ENDBRANCH  18  26
ENDBRANCH  17  18
ENDBRANCH  16  17
ENDBRANCH  15  16
ENDBRANCH   1  15
TORSDOF 6
ENDMDL
MODEL 8
REMARK VINA RESULT:      -7.1      3.787      6.203
REMARK  Name = 
REMARK  7 active torsions:
REMARK  status: ('A' for Active; 'I' for Inactive)
REMARK    1  A    between atoms: C_1  and  C_2
REMARK    2  A    between atoms: C_8  and  C_9
REMARK    3  A    between atoms: C_9  and  C_10
REMARK    4  A    between atoms: C_10  and  C_11
REMARK    5  A    between atoms: C_11  and  C_12
REMARK    6  A    between atoms: C_12  and  N_13
REMARK    7  A    between atoms: N_13  and  C_14
REMARK                            x       y       z     vdW  Elec       q    Type
REMARK                         _______ _______ _______ _____ _____    ______ ____
ROOT
ATOM      1  N   UNL     1       1.669   8.089  21.178  0.00  0.00    +0.000 N 
ATOM      2  H   UNL     1       1.811   7.854  22.155  0.00  0.00    +0.000 HD
ENDROOT
BRANCH   1   3
ATOM      3  C   UNL     1       1.938   7.011  20.340  0.00  0.00    +0.000 A 
ATOM      4  C   UNL     1       2.691   7.155  19.229  0.00  0.00    +0.000 A 
ATOM      5  C   UNL     1       2.944   6.017  18.317  0.00  0.00    +0.000 A 
ATOM      6  O   UNL     1       3.626   6.167  17.309  0.00  0.00    +0.000 OA
ATOM      7  C   UNL     1       2.329   4.720  18.660  0.00  0.00    +0.000 A 
ATOM      8  C   UNL     1       2.508   3.610  17.828  0.00  0.00    +0.000 A 
ATOM      9  C   UNL     1       1.920   2.396  18.173  0.00  0.00    +0.000 A 
ATOM     10  C   UNL     1       1.161   2.301  19.341  0.00  0.00    +0.000 A 
ATOM     11  C   UNL     1       0.989   3.417  20.170  0.00  0.00    +0.000 A 
ATOM     12  C   UNL     1       1.565   4.645  19.831  0.00  0.00    +0.000 A 
ATOM     13  N   UNL     1       1.421   5.773  20.653  0.00  0.00    +0.000 N 
ATOM     14  H   UNL     1       0.798   5.714  21.445  0.00  0.00    +0.000 HD
ENDBRANCH   1   3
BRANCH   1  15
ATOM     15  C   UNL     1       0.537   8.988  20.956  0.00  0.00    +0.000 C 
BRANCH  15  16
ATOM     16  C   UNL     1       0.771   9.973  19.810  0.00  0.00    +0.000 C 
BRANCH  16  17
ATOM     17  C   UNL     1      -0.574  10.628  19.455  0.00  0.00    +0.000 C 
BRANCH  17  18
ATOM     18  C   UNL     1      -1.137  10.203  18.100  0.00  0.00    +0.000 C 
BRANCH  18  26
ATOM     19  C   UNL     1      -2.725   9.843  15.518  0.00  0.00    +0.000 C 
ATOM     20  C   UNL     1      -3.251  10.610  16.697  0.00  0.00    +0.000 A 
ATOM     21  C   UNL     1      -4.529  11.185  16.620  0.00  0.00    +0.000 A 
ATOM     22  C   UNL     1      -5.041  11.883  17.706  0.00  0.00    +0.000 A 
ATOM     23 BR   UNL     1      -6.751  12.677  17.621  0.00  0.00    +0.000 Br
ATOM     24  C   UNL     1      -4.269  11.980  18.845  0.00  0.00    +0.000 A 
ATOM     25  N   UNL     1      -3.031  11.444  18.958  0.00  0.00    +0.000 NA
ATOM     26  C   UNL     1      -2.523  10.776  17.887  0.00  0.00    +0.000 A 
ENDBRANCH  18  26
ENDBRANCH  17  18
ENDBRANCH  16  17
ENDBRANCH  15  16
ENDBRANCH   1  15
TORSDOF 6
ENDMDL
MODEL 9
REMARK VINA RESULT:      -7.1      4.955      7.667
REMARK  Name = 
REMARK  7 active torsions:
REMARK  status: ('A' for Active; 'I' for Inactive)
REMARK    1  A    between atoms: C_1  and  C_2
REMARK    2  A    between atoms: C_8  and  C_9
REMARK    3  A    between atoms: C_9  and  C_10
REMARK    4  A    between atoms: C_10  and  C_11
REMARK    5  A    between atoms: C_11  and  C_12
REMARK    6  A    between atoms: C_12  and  N_13
REMARK    7  A    between atoms: N_13  and  C_14
REMARK                            x       y       z     vdW  Elec       q    Type
REMARK                         _______ _______ _______ _____ _____    ______ ____
ROOT
ATOM      1  N   UNL     1       7.146   6.460  17.604  0.00  0.00    +0.000 N 
ATOM      2  H   UNL     1       7.688   5.995  18.326  0.00  0.00    +0.000 HD
ENDROOT
BRANCH   1   3
ATOM      3  C   UNL     1       5.805   6.090  17.643  0.00  0.00    +0.000 A 
ATOM      4  C   UNL     1       4.824   7.013  17.738  0.00  0.00    +0.000 A 
ATOM      5  C   UNL     1       3.401   6.619  17.819  0.00  0.00    +0.000 A 
ATOM      6  O   UNL     1       2.523   7.470  17.910  0.00  0.00    +0.000 OA
ATOM      7  C   UNL     1       3.093   5.175  17.808  0.00  0.00    +0.000 A 
ATOM      8  C   UNL     1       1.769   4.733  17.906  0.00  0.00    +0.000 A 
ATOM      9  C   UNL     1       1.503   3.366  17.891  0.00  0.00    +0.000 A 
ATOM     10  C   UNL     1       2.555   2.456  17.779  0.00  0.00    +0.000 A 
ATOM     11  C   UNL     1       3.878   2.908  17.678  0.00  0.00    +0.000 A 
ATOM     12  C   UNL     1       4.161   4.277  17.702  0.00  0.00    +0.000 A 
ATOM     13  N   UNL     1       5.476   4.754  17.586  0.00  0.00    +0.000 N 
ATOM     14  H   UNL     1       6.232   4.086  17.595  0.00  0.00    +0.000 HD
ENDBRANCH   1   3
BRANCH   1  15
ATOM     15  C   UNL     1       7.572   7.836  17.355  0.00  0.00    +0.000 C 
BRANCH  15  16
ATOM     16  C   UNL     1       8.374   8.434  18.512  0.00  0.00    +0.000 C 
BRANCH  16  17
ATOM     17  C   UNL     1       8.785   9.864  18.126  0.00  0.00    +0.000 C 
BRANCH  17  18
ATOM     18  C   UNL     1       9.193  10.739  19.311  0.00  0.00    +0.000 C 
BRANCH  18  26
ATOM     19  C   UNL     1      12.149  11.461  19.077  0.00  0.00    +0.000 C 
ATOM     20  C   UNL     1      11.047  12.421  18.735  0.00  0.00    +0.000 A 
ATOM     21  C   UNL     1      11.380  13.707  18.281  0.00  0.00    +0.000 A 
ATOM     22  C   UNL     1      10.376  14.605  17.942  0.00  0.00    +0.000 A 
ATOM     23 BR   UNL     1      10.800  16.343  17.344  0.00  0.00    +0.000 Br
ATOM     24  C   UNL     1       9.064  14.192  18.053  0.00  0.00    +0.000 A 
ATOM     25  N   UNL     1       8.701  12.963  18.491  0.00  0.00    +0.000 NA
ATOM     26  C   UNL     1       9.685  12.092  18.840  0.00  0.00    +0.000 A 
ENDBRANCH  18  26
ENDBRANCH  17  18
ENDBRANCH  16  17
ENDBRANCH  15  16
ENDBRANCH   1  15
TORSDOF 6
ENDMDL
