MODEL 1
REMARK VINA RESULT:      -8.7      0.000      0.000
REMARK  Name = 
REMARK  5 active torsions:
REMARK  status: ('A' for Active; 'I' for Inactive)
REMARK    1  A    between atoms: C_1  and  C_2
REMARK    2  A    between atoms: C_2  and  N_3
REMARK    3  A    between atoms: C_2  and  C_25
REMARK    4  A    between atoms: C_8  and  N_9
REMARK    5  A    between atoms: C_14  and  C_15
REMARK                            x       y       z     vdW  Elec       q    Type
REMARK                         _______ _______ _______ _____ _____    ______ ____
ROOT
ATOM      1  N   UNL     1      -3.115  12.800  19.126  0.00  0.00    +0.000 N 
ATOM      2  C   UNL     1      -1.974  12.728  19.874  0.00  0.00    +0.000 A 
ATOM      3  N   UNL     1      -1.445  13.895  20.253  0.00  0.00    +0.000 NA
ATOM      4  C   UNL     1      -0.330  13.847  21.001  0.00  0.00    +0.000 A 
ATOM      5  C   UNL     1       0.326  12.682  21.318  0.00  0.00    +0.000 A 
ATOM      6  C   UNL     1      -0.251  11.527  20.832  0.00  0.00    +0.000 A 
ATOM      7  N   UNL     1      -1.418  11.548  20.153  0.00  0.00    +0.000 NA
ATOM      8  H   UNL     1      -3.148  13.617  18.537  0.00  0.00    +0.000 HD
ENDROOT
BRANCH   6   9
ATOM      9  N   UNL     1       0.391  10.264  21.015  0.00  0.00    +0.000 N 
ATOM     10  C   UNL     1       0.518   9.559  22.194  0.00  0.00    +0.000 A 
ATOM     11  N   UNL     1       1.137   8.411  22.045  0.00  0.00    +0.000 NA
ATOM     12  C   UNL     1       1.469   8.362  20.719  0.00  0.00    +0.000 A 
ATOM     13  C   UNL     1       2.168   7.361  20.019  0.00  0.00    +0.000 A 
ATOM     14  C   UNL     1       2.454   7.510  18.646  0.00  0.00    +0.000 A 
ATOM     15  C   UNL     1       2.008   8.680  18.009  0.00  0.00    +0.000 A 
ATOM     16  C   UNL     1       1.307   9.685  18.686  0.00  0.00    +0.000 A 
ATOM     17  C   UNL     1       1.038   9.501  20.048  0.00  0.00    +0.000 A 
BRANCH  14  18
ATOM     18  C   UNL     1       3.215   6.479  17.905  0.00  0.00    +0.000 A 
ATOM     19  C   UNL     1       4.291   6.814  17.073  0.00  0.00    +0.000 A 
ATOM     20  C   UNL     1       4.958   5.810  16.384  0.00  0.00    +0.000 A 
ATOM     21  N   UNL     1       4.647   4.502  16.471  0.00  0.00    +0.000 NA
ATOM     22  C   UNL     1       3.618   4.186  17.280  0.00  0.00    +0.000 A 
ATOM     23  C   UNL     1       2.884   5.119  17.997  0.00  0.00    +0.000 A 
ENDBRANCH  14  18
ENDBRANCH   6   9
BRANCH   1  25
ATOM     24  C   UNL     1      -5.392  12.113  18.855  0.00  0.00    +0.000 C 
ATOM     25  C   UNL     1      -3.927  11.646  18.802  0.00  0.00    +0.000 C 
BRANCH  25  26
ATOM     26  C   UNL     1      -3.617  10.999  17.458  0.00  0.00    +0.000 A 
ATOM     27  C   UNL     1      -4.156  11.442  16.241  0.00  0.00    +0.000 A 
ATOM     28  C   UNL     1      -3.793  10.842  15.033  0.00  0.00    +0.000 A 
ATOM     29  C   UNL     1      -2.891   9.781  15.017  0.00  0.00    +0.000 A 
ATOM     30  C   UNL     1      -2.337   9.328  16.210  0.00  0.00    +0.000 A 
ATOM     31  C   UNL     1      -2.688   9.938  17.415  0.00  0.00    +0.000 A 
ENDBRANCH  25  26
ENDBRANCH   1  25
TORSDOF 4
ENDMDL
MODEL 2
REMARK VINA RESULT:      -8.7      0.142      1.233
REMARK  Name = 
REMARK  5 active torsions:
REMARK  status: ('A' for Active; 'I' for Inactive)
REMARK    1  A    between atoms: C_1  and  C_2
REMARK    2  A    between atoms: C_2  and  N_3
REMARK    3  A    between atoms: C_2  and  C_25
REMARK    4  A    between atoms: C_8  and  N_9
REMARK    5  A    between atoms: C_14  and  C_15
REMARK                            x       y       z     vdW  Elec       q    Type
REMARK                         _______ _______ _______ _____ _____    ______ ____
ROOT
ATOM      1  N   UNL     1      -3.109  12.868  19.293  0.00  0.00    +0.000 N 
ATOM      2  C   UNL     1      -1.960  12.773  20.026  0.00  0.00    +0.000 A 
ATOM      3  N   UNL     1      -1.418  13.929  20.422  0.00  0.00    +0.000 NA
ATOM      4  C   UNL     1      -0.296  13.858  21.156  0.00  0.00    +0.000 A 
ATOM      5  C   UNL     1       0.355  12.683  21.444  0.00  0.00    +0.000 A 
ATOM      6  C   UNL     1      -0.235  11.542  20.941  0.00  0.00    +0.000 A 
ATOM      7  N   UNL     1      -1.410  11.583  20.277  0.00  0.00    +0.000 NA
ATOM      8  H   UNL     1      -3.142  13.696  18.720  0.00  0.00    +0.000 HD
ENDROOT
BRANCH   6   9
ATOM      9  N   UNL     1       0.400  10.270  21.092  0.00  0.00    +0.000 N 
ATOM     10  C   UNL     1       0.518   9.533  22.253  0.00  0.00    +0.000 A 
ATOM     11  N   UNL     1       1.132   8.386  22.075  0.00  0.00    +0.000 NA
ATOM     12  C   UNL     1       1.469   8.372  20.749  0.00  0.00    +0.000 A 
ATOM     13  C   UNL     1       2.166   7.387  20.026  0.00  0.00    +0.000 A 
ATOM     14  C   UNL     1       2.459   7.571  18.658  0.00  0.00    +0.000 A 
ATOM     15  C   UNL     1       2.021   8.761  18.051  0.00  0.00    +0.000 A 
ATOM     16  C   UNL     1       1.322   9.750  18.753  0.00  0.00    +0.000 A 
ATOM     17  C   UNL     1       1.047   9.531  20.108  0.00  0.00    +0.000 A 
BRANCH  14  18
ATOM     18  C   UNL     1       3.217   6.556  17.893  0.00  0.00    +0.000 A 
ATOM     19  C   UNL     1       2.921   5.190  17.985  0.00  0.00    +0.000 A 
ATOM     20  C   UNL     1       3.677   4.278  17.262  0.00  0.00    +0.000 A 
ATOM     21  N   UNL     1       4.692   4.621  16.446  0.00  0.00    +0.000 NA
ATOM     22  C   UNL     1       4.966   5.937  16.355  0.00  0.00    +0.000 A 
ATOM     23  C   UNL     1       4.276   6.919  17.048  0.00  0.00    +0.000 A 
ENDBRANCH  14  18
ENDBRANCH   6   9
BRANCH   1  25
ATOM     24  C   UNL     1      -5.385  12.233  18.906  0.00  0.00    +0.000 C 
ATOM     25  C   UNL     1      -3.932  11.726  18.955  0.00  0.00    +0.000 C 
BRANCH  25  26
ATOM     26  C   UNL     1      -3.562  11.028  17.652  0.00  0.00    +0.000 A 
ATOM     27  C   UNL     1      -2.628   9.984  17.571  0.00  0.00    +0.000 A 
ATOM     28  C   UNL     1      -2.368   9.346  16.355  0.00  0.00    +0.000 A 
ATOM     29  C   UNL     1      -3.028   9.743  15.196  0.00  0.00    +0.000 A 
ATOM     30  C   UNL     1      -3.964  10.771  15.253  0.00  0.00    +0.000 A 
ATOM     31  C   UNL     1      -4.235  11.397  16.470  0.00  0.00    +0.000 A 
ENDBRANCH  25  26
ENDBRANCH   1  25
TORSDOF 4
ENDMDL
MODEL 3
REMARK VINA RESULT:      -8.7      3.361      9.317
REMARK  Name = 
REMARK  5 active torsions:
REMARK  status: ('A' for Active; 'I' for Inactive)
REMARK    1  A    between atoms: C_1  and  C_2
REMARK    2  A    between atoms: C_2  and  N_3
REMARK    3  A    between atoms: C_2  and  C_25
REMARK    4  A    between atoms: C_8  and  N_9
REMARK    5  A    between atoms: C_14  and  C_15
REMARK                            x       y       z     vdW  Elec       q    Type
REMARK                         _______ _______ _______ _____ _____    ______ ____
ROOT
ATOM      1  N   UNL     1       5.295   4.107  18.146  0.00  0.00    +0.000 N 
ATOM      2  C   UNL     1       4.215   4.572  18.841  0.00  0.00    +0.000 A 
ATOM      3  N   UNL     1       3.570   3.675  19.593  0.00  0.00    +0.000 NA
ATOM      4  C   UNL     1       2.513   4.115  20.296  0.00  0.00    +0.000 A 
ATOM      5  C   UNL     1       2.023   5.396  20.217  0.00  0.00    +0.000 A 
ATOM      6  C   UNL     1       2.708   6.239  19.367  0.00  0.00    +0.000 A 
ATOM      7  N   UNL     1       3.824   5.842  18.720  0.00  0.00    +0.000 NA
ATOM      8  H   UNL     1       5.195   3.146  17.861  0.00  0.00    +0.000 HD
ENDROOT
BRANCH   6   9
ATOM      9  N   UNL     1       2.236   7.567  19.128  0.00  0.00    +0.000 N 
ATOM     10  C   UNL     1       2.362   8.297  17.964  0.00  0.00    +0.000 A 
ATOM     11  N   UNL     1       1.803   9.483  18.035  0.00  0.00    +0.000 NA
ATOM     12  C   UNL     1       1.315   9.563  19.311  0.00  0.00    +0.000 A 
ATOM     13  C   UNL     1       0.641  10.630  19.934  0.00  0.00    +0.000 A 
ATOM     14  C   UNL     1       0.246  10.540  21.285  0.00  0.00    +0.000 A 
ATOM     15  C   UNL     1       0.539   9.351  21.974  0.00  0.00    +0.000 A 
ATOM     16  C   UNL     1       1.204   8.276  21.370  0.00  0.00    +0.000 A 
ATOM     17  C   UNL     1       1.577   8.400  20.026  0.00  0.00    +0.000 A 
BRANCH  14  18
ATOM     18  C   UNL     1      -0.436  11.667  21.961  0.00  0.00    +0.000 A 
ATOM     19  C   UNL     1      -0.044  12.996  21.754  0.00  0.00    +0.000 A 
ATOM     20  C   UNL     1      -0.703  14.014  22.428  0.00  0.00    +0.000 A 
ATOM     21  N   UNL     1      -1.728  13.813  23.279  0.00  0.00    +0.000 NA
ATOM     22  C   UNL     1      -2.106  12.534  23.467  0.00  0.00    +0.000 A 
ATOM     23  C   UNL     1      -1.500  11.450  22.848  0.00  0.00    +0.000 A 
ENDBRANCH  14  18
ENDBRANCH   6   9
BRANCH   1  25
ATOM     24  C   UNL     1       7.597   4.766  18.108  0.00  0.00    +0.000 C 
ATOM     25  C   UNL     1       6.222   4.971  17.446  0.00  0.00    +0.000 C 
BRANCH  25  26
ATOM     26  C   UNL     1       6.308   4.740  15.943  0.00  0.00    +0.000 A 
ATOM     27  C   UNL     1       7.405   5.130  15.160  0.00  0.00    +0.000 A 
ATOM     28  C   UNL     1       7.451   4.844  13.793  0.00  0.00    +0.000 A 
ATOM     29  C   UNL     1       6.398   4.170  13.179  0.00  0.00    +0.000 A 
ATOM     30  C   UNL     1       5.303   3.766  13.936  0.00  0.00    +0.000 A 
ATOM     31  C   UNL     1       5.265   4.039  15.304  0.00  0.00    +0.000 A 
ENDBRANCH  25  26
ENDBRANCH   1  25
TORSDOF 4
ENDMDL
MODEL 4
REMARK VINA RESULT:      -8.7      3.034      9.339
REMARK  Name = 
REMARK  5 active torsions:
REMARK  status: ('A' for Active; 'I' for Inactive)
REMARK    1  A    between atoms: C_1  and  C_2
REMARK    2  A    between atoms: C_2  and  N_3
REMARK    3  A    between atoms: C_2  and  C_25
REMARK    4  A    between atoms: C_8  and  N_9
REMARK    5  A    between atoms: C_14  and  C_15
REMARK                            x       y       z     vdW  Elec       q    Type
REMARK                         _______ _______ _______ _____ _____    ______ ____
ROOT
ATOM      1  N   UNL     1       5.425   4.037  18.335  0.00  0.00    +0.000 N 
ATOM      2  C   UNL     1       4.337   4.526  19.000  0.00  0.00    +0.000 A 
ATOM      3  N   UNL     1       3.726   3.676  19.832  0.00  0.00    +0.000 NA
ATOM      4  C   UNL     1       2.662   4.141  20.507  0.00  0.00    +0.000 A 
ATOM      5  C   UNL     1       2.131   5.395  20.325  0.00  0.00    +0.000 A 
ATOM      6  C   UNL     1       2.782   6.185  19.399  0.00  0.00    +0.000 A 
ATOM      7  N   UNL     1       3.905   5.768  18.776  0.00  0.00    +0.000 NA
ATOM      8  H   UNL     1       5.353   3.052  18.133  0.00  0.00    +0.000 HD
ENDROOT
BRANCH   6   9
ATOM      9  N   UNL     1       2.267   7.472  19.054  0.00  0.00    +0.000 N 
ATOM     10  C   UNL     1       2.433   8.141  17.859  0.00  0.00    +0.000 A 
ATOM     11  N   UNL     1       1.818   9.300  17.825  0.00  0.00    +0.000 NA
ATOM     12  C   UNL     1       1.247   9.428  19.062  0.00  0.00    +0.000 A 
ATOM     13  C   UNL     1       0.488  10.494  19.578  0.00  0.00    +0.000 A 
ATOM     14  C   UNL     1       0.012  10.461  20.906  0.00  0.00    +0.000 A 
ATOM     15  C   UNL     1       0.314   9.328  21.681  0.00  0.00    +0.000 A 
ATOM     16  C   UNL     1       1.064   8.255  21.183  0.00  0.00    +0.000 A 
ATOM     17  C   UNL     1       1.516   8.321  19.860  0.00  0.00    +0.000 A 
BRANCH  14  18
ATOM     18  C   UNL     1      -0.762  11.589  21.471  0.00  0.00    +0.000 A 
ATOM     19  C   UNL     1      -1.067  11.662  22.837  0.00  0.00    +0.000 A 
ATOM     20  C   UNL     1      -1.813  12.731  23.313  0.00  0.00    +0.000 A 
ATOM     21  N   UNL     1      -2.265  13.737  22.539  0.00  0.00    +0.000 NA
ATOM     22  C   UNL     1      -1.961  13.666  21.229  0.00  0.00    +0.000 A 
ATOM     23  C   UNL     1      -1.233  12.632  20.660  0.00  0.00    +0.000 A 
ENDBRANCH  14  18
ENDBRANCH   6   9
BRANCH   1  25
ATOM     24  C   UNL     1       7.727   4.665  18.141  0.00  0.00    +0.000 C 
ATOM     25  C   UNL     1       6.319   4.867  17.555  0.00  0.00    +0.000 C 
BRANCH  25  26
ATOM     26  C   UNL     1       6.314   4.587  16.057  0.00  0.00    +0.000 A 
ATOM     27  C   UNL     1       5.251   3.960  15.389  0.00  0.00    +0.000 A 
ATOM     28  C   UNL     1       5.280   3.778  14.004  0.00  0.00    +0.000 A 
ATOM     29  C   UNL     1       6.375   4.209  13.260  0.00  0.00    +0.000 A 
ATOM     30  C   UNL     1       7.438   4.841  13.898  0.00  0.00    +0.000 A 
ATOM     31  C   UNL     1       7.401   5.036  15.280  0.00  0.00    +0.000 A 
ENDBRANCH  25  26
ENDBRANCH   1  25
TORSDOF 4
ENDMDL
MODEL 5
REMARK VINA RESULT:      -8.5      3.333      9.236
REMARK  Name = 
REMARK  5 active torsions:
REMARK  status: ('A' for Active; 'I' for Inactive)
REMARK    1  A    between atoms: C_1  and  C_2
REMARK    2  A    between atoms: C_2  and  N_3
REMARK    3  A    between atoms: C_2  and  C_25
REMARK    4  A    between atoms: C_8  and  N_9
REMARK    5  A    between atoms: C_14  and  C_15
REMARK                            x       y       z     vdW  Elec       q    Type
REMARK                         _______ _______ _______ _____ _____    ______ ____
ROOT
ATOM      1  N   UNL     1       4.920   4.426  18.746  0.00  0.00    +0.000 N 
ATOM      2  C   UNL     1       3.839   4.900  19.436  0.00  0.00    +0.000 A 
ATOM      3  N   UNL     1       3.211   4.019  20.220  0.00  0.00    +0.000 NA
ATOM      4  C   UNL     1       2.154   4.468  20.917  0.00  0.00    +0.000 A 
ATOM      5  C   UNL     1       1.648   5.740  20.802  0.00  0.00    +0.000 A 
ATOM      6  C   UNL     1       2.316   6.565  19.921  0.00  0.00    +0.000 A 
ATOM      7  N   UNL     1       3.433   6.161  19.278  0.00  0.00    +0.000 NA
ATOM      8  H   UNL     1       4.828   3.455  18.492  0.00  0.00    +0.000 HD
ENDROOT
BRANCH   6   9
ATOM      9  N   UNL     1       1.827   7.879  19.645  0.00  0.00    +0.000 N 
ATOM     10  C   UNL     1       1.954   8.581  18.464  0.00  0.00    +0.000 A 
ATOM     11  N   UNL     1       1.376   9.760  18.500  0.00  0.00    +0.000 NA
ATOM     12  C   UNL     1       0.874   9.864  19.769  0.00  0.00    +0.000 A 
ATOM     13  C   UNL     1       0.179  10.936  20.358  0.00  0.00    +0.000 A 
ATOM     14  C   UNL     1      -0.229  10.874  21.708  0.00  0.00    +0.000 A 
ATOM     15  C   UNL     1       0.075   9.706  22.429  0.00  0.00    +0.000 A 
ATOM     16  C   UNL     1       0.762   8.627  21.858  0.00  0.00    +0.000 A 
ATOM     17  C   UNL     1       1.147   8.724  20.515  0.00  0.00    +0.000 A 
BRANCH  14  18
ATOM     18  C   UNL     1      -0.934  12.006  22.349  0.00  0.00    +0.000 A 
ATOM     19  C   UNL     1      -0.429  13.312  22.298  0.00  0.00    +0.000 A 
ATOM     20  C   UNL     1      -1.119  14.335  22.934  0.00  0.00    +0.000 A 
ATOM     21  N   UNL     1      -2.277  14.161  23.601  0.00  0.00    +0.000 NA
ATOM     22  C   UNL     1      -2.761  12.905  23.638  0.00  0.00    +0.000 A 
ATOM     23  C   UNL     1      -2.137  11.818  23.045  0.00  0.00    +0.000 A 
ENDBRANCH  14  18
ENDBRANCH   6   9
BRANCH   1  25
ATOM     24  C   UNL     1       7.170   5.243  18.771  0.00  0.00    +0.000 C 
ATOM     25  C   UNL     1       5.831   5.279  18.013  0.00  0.00    +0.000 C 
BRANCH  25  26
ATOM     26  C   UNL     1       6.030   4.901  16.551  0.00  0.00    +0.000 A 
ATOM     27  C   UNL     1       5.055   4.251  15.778  0.00  0.00    +0.000 A 
ATOM     28  C   UNL     1       5.275   3.978  14.426  0.00  0.00    +0.000 A 
ATOM     29  C   UNL     1       6.475   4.338  13.820  0.00  0.00    +0.000 A 
ATOM     30  C   UNL     1       7.454   4.991  14.563  0.00  0.00    +0.000 A 
ATOM     31  C   UNL     1       7.229   5.277  15.910  0.00  0.00    +0.000 A 
ENDBRANCH  25  26
ENDBRANCH   1  25
TORSDOF 4
ENDMDL
MODEL 6
REMARK VINA RESULT:      -8.5      3.257      9.306
REMARK  Name = 
REMARK  5 active torsions:
REMARK  status: ('A' for Active; 'I' for Inactive)
REMARK    1  A    between atoms: C_1  and  C_2
REMARK    2  A    between atoms: C_2  and  N_3
REMARK    3  A    between atoms: C_2  and  C_25
REMARK    4  A    between atoms: C_8  and  N_9
REMARK    5  A    between atoms: C_14  and  C_15
REMARK                            x       y       z     vdW  Elec       q    Type
REMARK                         _______ _______ _______ _____ _____    ______ ____
ROOT
ATOM      1  N   UNL     1       5.304   4.583  17.247  0.00  0.00    +0.000 N 
ATOM      2  C   UNL     1       4.371   4.976  18.165  0.00  0.00    +0.000 A 
ATOM      3  N   UNL     1       4.020   4.062  19.074  0.00  0.00    +0.000 NA
ATOM      4  C   UNL     1       3.115   4.432  19.995  0.00  0.00    +0.000 A 
ATOM      5  C   UNL     1       2.483   5.652  19.997  0.00  0.00    +0.000 A 
ATOM      6  C   UNL     1       2.855   6.512  18.984  0.00  0.00    +0.000 A 
ATOM      7  N   UNL     1       3.827   6.192  18.102  0.00  0.00    +0.000 NA
ATOM      8  H   UNL     1       5.245   3.602  17.023  0.00  0.00    +0.000 HD
ENDROOT
BRANCH   6   9
ATOM      9  N   UNL     1       2.199   7.772  18.825  0.00  0.00    +0.000 N 
ATOM     10  C   UNL     1       2.078   8.504  17.662  0.00  0.00    +0.000 A 
ATOM     11  N   UNL     1       1.395   9.614  17.821  0.00  0.00    +0.000 NA
ATOM     12  C   UNL     1       1.077   9.642  19.151  0.00  0.00    +0.000 A 
ATOM     13  C   UNL     1       0.369  10.623  19.870  0.00  0.00    +0.000 A 
ATOM     14  C   UNL     1       0.173  10.494  21.261  0.00  0.00    +0.000 A 
ATOM     15  C   UNL     1       0.697   9.353  21.891  0.00  0.00    +0.000 A 
ATOM     16  C   UNL     1       1.399   8.363  21.193  0.00  0.00    +0.000 A 
ATOM     17  C   UNL     1       1.571   8.524  19.812  0.00  0.00    +0.000 A 
BRANCH  14  18
ATOM     18  C   UNL     1      -0.543  11.533  22.034  0.00  0.00    +0.000 A 
ATOM     19  C   UNL     1      -0.190  12.887  21.950  0.00  0.00    +0.000 A 
ATOM     20  C   UNL     1      -0.880  13.819  22.712  0.00  0.00    +0.000 A 
ATOM     21  N   UNL     1      -1.900  13.512  23.538  0.00  0.00    +0.000 NA
ATOM     22  C   UNL     1      -2.239  12.210  23.606  0.00  0.00    +0.000 A 
ATOM     23  C   UNL     1      -1.601  11.206  22.894  0.00  0.00    +0.000 A 
ENDBRANCH  14  18
ENDBRANCH   6   9
BRANCH   1  25
ATOM     24  C   UNL     1       7.247   5.959  16.995  0.00  0.00    +0.000 C 
ATOM     25  C   UNL     1       5.943   5.496  16.323  0.00  0.00    +0.000 C 
BRANCH  25  26
ATOM     26  C   UNL     1       6.225   4.919  14.941  0.00  0.00    +0.000 A 
ATOM     27  C   UNL     1       5.360   4.033  14.279  0.00  0.00    +0.000 A 
ATOM     28  C   UNL     1       5.647   3.579  12.990  0.00  0.00    +0.000 A 
ATOM     29  C   UNL     1       6.806   3.992  12.338  0.00  0.00    +0.000 A 
ATOM     30  C   UNL     1       7.675   4.876  12.970  0.00  0.00    +0.000 A 
ATOM     31  C   UNL     1       7.380   5.342  14.252  0.00  0.00    +0.000 A 
ENDBRANCH  25  26
ENDBRANCH   1  25
TORSDOF 4
ENDMDL
MODEL 7
REMARK VINA RESULT:      -8.5      3.344      9.285
REMARK  Name = 
REMARK  5 active torsions:
REMARK  status: ('A' for Active; 'I' for Inactive)
REMARK    1  A    between atoms: C_1  and  C_2
REMARK    2  A    between atoms: C_2  and  N_3
REMARK    3  A    between atoms: C_2  and  C_25
REMARK    4  A    between atoms: C_8  and  N_9
REMARK    5  A    between atoms: C_14  and  C_15
REMARK                            x       y       z     vdW  Elec       q    Type
REMARK                         _______ _______ _______ _____ _____    ______ ____
ROOT
ATOM      1  N   UNL     1       5.158   3.462  17.481  0.00  0.00    +0.000 N 
ATOM      2  C   UNL     1       4.232   4.023  18.316  0.00  0.00    +0.000 A 
ATOM      3  N   UNL     1       3.679   3.203  19.214  0.00  0.00    +0.000 NA
ATOM      4  C   UNL     1       2.777   3.737  20.054  0.00  0.00    +0.000 A 
ATOM      5  C   UNL     1       2.343   5.038  19.981  0.00  0.00    +0.000 A 
ATOM      6  C   UNL     1       2.916   5.798  18.983  0.00  0.00    +0.000 A 
ATOM      7  N   UNL     1       3.889   5.305  18.186  0.00  0.00    +0.000 NA
ATOM      8  H   UNL     1       4.965   2.495  17.273  0.00  0.00    +0.000 HD
ENDROOT
BRANCH   6   9
ATOM      9  N   UNL     1       2.476   7.137  18.747  0.00  0.00    +0.000 N 
ATOM     10  C   UNL     1       2.609   7.862  17.581  0.00  0.00    +0.000 A 
ATOM     11  N   UNL     1       2.081   9.062  17.656  0.00  0.00    +0.000 NA
ATOM     12  C   UNL     1       1.608   9.156  18.936  0.00  0.00    +0.000 A 
ATOM     13  C   UNL     1       0.968  10.240  19.564  0.00  0.00    +0.000 A 
ATOM     14  C   UNL     1       0.584  10.162  20.920  0.00  0.00    +0.000 A 
ATOM     15  C   UNL     1       0.854   8.966  21.607  0.00  0.00    +0.000 A 
ATOM     16  C   UNL     1       1.485   7.874  20.998  0.00  0.00    +0.000 A 
ATOM     17  C   UNL     1       1.848   7.987  19.650  0.00  0.00    +0.000 A 
BRANCH  14  18
ATOM     18  C   UNL     1      -0.062  11.306  21.601  0.00  0.00    +0.000 A 
ATOM     19  C   UNL     1       0.295  12.630  21.315  0.00  0.00    +0.000 A 
ATOM     20  C   UNL     1      -0.327  13.667  21.997  0.00  0.00    +0.000 A 
ATOM     21  N   UNL     1      -1.284  13.487  22.929  0.00  0.00    +0.000 NA
ATOM     22  C   UNL     1      -1.628  12.212  23.193  0.00  0.00    +0.000 A 
ATOM     23  C   UNL     1      -1.054  11.113  22.573  0.00  0.00    +0.000 A 
ENDBRANCH  14  18
ENDBRANCH   6   9
BRANCH   1  25
ATOM     24  C   UNL     1       5.072   4.794  15.493  0.00  0.00    +0.000 C 
ATOM     25  C   UNL     1       5.996   4.236  16.590  0.00  0.00    +0.000 C 
BRANCH  25  26
ATOM     26  C   UNL     1       6.779   5.360  17.257  0.00  0.00    +0.000 A 
ATOM     27  C   UNL     1       6.798   6.680  16.781  0.00  0.00    +0.000 A 
ATOM     28  C   UNL     1       7.491   7.681  17.466  0.00  0.00    +0.000 A 
ATOM     29  C   UNL     1       8.187   7.382  18.635  0.00  0.00    +0.000 A 
ATOM     30  C   UNL     1       8.177   6.082  19.131  0.00  0.00    +0.000 A 
ATOM     31  C   UNL     1       7.471   5.086  18.455  0.00  0.00    +0.000 A 
ENDBRANCH  25  26
ENDBRANCH   1  25
TORSDOF 4
ENDMDL
MODEL 8
REMARK VINA RESULT:      -8.5      3.385      9.445
REMARK  Name = 
REMARK  5 active torsions:
REMARK  status: ('A' for Active; 'I' for Inactive)
REMARK    1  A    between atoms: C_1  and  C_2
REMARK    2  A    between atoms: C_2  and  N_3
REMARK    3  A    between atoms: C_2  and  C_25
REMARK    4  A    between atoms: C_8  and  N_9
REMARK    5  A    between atoms: C_14  and  C_15
REMARK                            x       y       z     vdW  Elec       q    Type
REMARK                         _______ _______ _______ _____ _____    ______ ____
ROOT
ATOM      1  N   UNL     1       5.463   3.247  16.664  0.00  0.00    +0.000 N 
ATOM      2  C   UNL     1       4.480   3.704  17.495  0.00  0.00    +0.000 A 
ATOM      3  N   UNL     1       3.824   2.775  18.196  0.00  0.00    +0.000 NA
ATOM      4  C   UNL     1       2.863   3.205  19.030  0.00  0.00    +0.000 A 
ATOM      5  C   UNL     1       2.472   4.519  19.132  0.00  0.00    +0.000 A 
ATOM      6  C   UNL     1       3.156   5.403  18.324  0.00  0.00    +0.000 A 
ATOM      7  N   UNL     1       4.184   5.005  17.545  0.00  0.00    +0.000 NA
ATOM      8  H   UNL     1       5.264   2.334  16.286  0.00  0.00    +0.000 HD
ENDROOT
BRANCH   6   9
ATOM      9  N   UNL     1       2.775   6.780  18.272  0.00  0.00    +0.000 N 
ATOM     10  C   UNL     1       3.052   7.681  17.264  0.00  0.00    +0.000 A 
ATOM     11  N   UNL     1       2.547   8.873  17.484  0.00  0.00    +0.000 NA
ATOM     12  C   UNL     1       1.938   8.774  18.705  0.00  0.00    +0.000 A 
ATOM     13  C   UNL     1       1.258   9.766  19.436  0.00  0.00    +0.000 A 
ATOM     14  C   UNL     1       0.726   9.482  20.711  0.00  0.00    +0.000 A 
ATOM     15  C   UNL     1       0.891   8.179  21.212  0.00  0.00    +0.000 A 
ATOM     16  C   UNL     1       1.559   7.177  20.498  0.00  0.00    +0.000 A 
ATOM     17  C   UNL     1       2.071   7.495  19.234  0.00  0.00    +0.000 A 
BRANCH  14  18
ATOM     18  C   UNL     1       0.035  10.524  21.503  0.00  0.00    +0.000 A 
ATOM     19  C   UNL     1      -0.708  10.207  22.648  0.00  0.00    +0.000 A 
ATOM     20  C   UNL     1      -1.354  11.220  23.344  0.00  0.00    +0.000 A 
ATOM     21  N   UNL     1      -1.305  12.521  22.997  0.00  0.00    +0.000 NA
ATOM     22  C   UNL     1      -0.581  12.820  21.900  0.00  0.00    +0.000 A 
ATOM     23  C   UNL     1       0.086  11.876  21.135  0.00  0.00    +0.000 A 
ENDBRANCH  14  18
ENDBRANCH   6   9
BRANCH   1  25
ATOM     24  C   UNL     1       5.644   4.735  14.797  0.00  0.00    +0.000 C 
ATOM     25  C   UNL     1       6.401   4.117  15.986  0.00  0.00    +0.000 C 
BRANCH  25  26
ATOM     26  C   UNL     1       7.014   5.205  16.858  0.00  0.00    +0.000 A 
ATOM     27  C   UNL     1       6.990   6.569  16.528  0.00  0.00    +0.000 A 
ATOM     28  C   UNL     1       7.522   7.527  17.395  0.00  0.00    +0.000 A 
ATOM     29  C   UNL     1       8.097   7.143  18.603  0.00  0.00    +0.000 A 
ATOM     30  C   UNL     1       8.125   5.797  18.956  0.00  0.00    +0.000 A 
ATOM     31  C   UNL     1       7.580   4.842  18.098  0.00  0.00    +0.000 A 
ENDBRANCH  25  26
ENDBRANCH   1  25
TORSDOF 4
ENDMDL
MODEL 9
REMARK VINA RESULT:      -8.4      1.644      2.316
REMARK  Name = 
REMARK  5 active torsions:
REMARK  status: ('A' for Active; 'I' for Inactive)
REMARK    1  A    between atoms: C_1  and  C_2
REMARK    2  A    between atoms: C_2  and  N_3
REMARK    3  A    between atoms: C_2  and  C_25
REMARK    4  A    between atoms: C_8  and  N_9
REMARK    5  A    between atoms: C_14  and  C_15
REMARK                            x       y       z     vdW  Elec       q    Type
REMARK                         _______ _______ _______ _____ _____    ______ ____
ROOT
ATOM      1  N   UNL     1      -2.833  13.784  20.112  0.00  0.00    +0.000 N 
ATOM      2  C   UNL     1      -1.507  13.465  20.031  0.00  0.00    +0.000 A 
ATOM      3  N   UNL     1      -0.711  14.392  19.491  0.00  0.00    +0.000 NA
ATOM      4  C   UNL     1       0.599  14.104  19.414  0.00  0.00    +0.000 A 
ATOM      5  C   UNL     1       1.136  12.894  19.780  0.00  0.00    +0.000 A 
ATOM      6  C   UNL     1       0.236  11.969  20.266  0.00  0.00    +0.000 A 
ATOM      7  N   UNL     1      -1.070  12.270  20.433  0.00  0.00    +0.000 NA
ATOM      8  H   UNL     1      -3.141  14.378  19.358  0.00  0.00    +0.000 HD
ENDROOT
BRANCH   6   9
ATOM      9  N   UNL     1       0.660  10.643  20.588  0.00  0.00    +0.000 N 
ATOM     10  C   UNL     1       0.618  10.035  21.826  0.00  0.00    +0.000 A 
ATOM     11  N   UNL     1       1.054   8.796  21.807  0.00  0.00    +0.000 NA
ATOM     12  C   UNL     1       1.437   8.580  20.511  0.00  0.00    +0.000 A 
ATOM     13  C   UNL     1       2.000   7.426  19.938  0.00  0.00    +0.000 A 
ATOM     14  C   UNL     1       2.370   7.405  18.577  0.00  0.00    +0.000 A 
ATOM     15  C   UNL     1       2.146   8.569  17.822  0.00  0.00    +0.000 A 
ATOM     16  C   UNL     1       1.581   9.726  18.373  0.00  0.00    +0.000 A 
ATOM     17  C   UNL     1       1.223   9.707  19.727  0.00  0.00    +0.000 A 
BRANCH  14  18
ATOM     18  C   UNL     1       2.992   6.208  17.969  0.00  0.00    +0.000 A 
ATOM     19  C   UNL     1       4.195   6.286  17.255  0.00  0.00    +0.000 A 
ATOM     20  C   UNL     1       4.726   5.136  16.686  0.00  0.00    +0.000 A 
ATOM     21  N   UNL     1       4.161   3.917  16.785  0.00  0.00    +0.000 NA
ATOM     22  C   UNL     1       3.009   3.848  17.481  0.00  0.00    +0.000 A 
ATOM     23  C   UNL     1       2.397   4.943  18.072  0.00  0.00    +0.000 A 
ENDBRANCH  14  18
ENDBRANCH   6   9
BRANCH   1  25
ATOM     24  C   UNL     1      -4.436  13.928  21.885  0.00  0.00    +0.000 C 
ATOM     25  C   UNL     1      -3.798  12.991  20.843  0.00  0.00    +0.000 C 
BRANCH  25  26
ATOM     26  C   UNL     1      -4.870  12.331  19.985  0.00  0.00    +0.000 A 
ATOM     27  C   UNL     1      -4.648  11.888  18.672  0.00  0.00    +0.000 A 
ATOM     28  C   UNL     1      -5.655  11.240  17.952  0.00  0.00    +0.000 A 
ATOM     29  C   UNL     1      -6.907  11.030  18.525  0.00  0.00    +0.000 A 
ATOM     30  C   UNL     1      -7.149  11.453  19.828  0.00  0.00    +0.000 A 
ATOM     31  C   UNL     1      -6.138  12.086  20.552  0.00  0.00    +0.000 A 
ENDBRANCH  25  26
ENDBRANCH   1  25
TORSDOF 4
ENDMDL
