MODEL 1
REMARK VINA RESULT:      -7.7      0.000      0.000
REMARK  Name = 
REMARK  11 active torsions:
REMARK  status: ('A' for Active; 'I' for Inactive)
REMARK    1  A    between atoms: C_2  and  C_3
REMARK    2  A    between atoms: N_5  and  C_6
REMARK    3  A    between atoms: C_6  and  C_7
REMARK    4  A    between atoms: C_7  and  C_8
REMARK    5  A    between atoms: C_8  and  C_9
REMARK    6  A    between atoms: C_9  and  C_10
REMARK    7  A    between atoms: C_10  and  N_11
REMARK    8  A    between atoms: C_10  and  C_22
REMARK    9  A    between atoms: C_12  and  O_14
REMARK   10  A    between atoms: O_14  and  C_15
REMARK   11  A    between atoms: C_15  and  C_16
REMARK                            x       y       z     vdW  Elec       q    Type
REMARK                         _______ _______ _______ _____ _____    ______ ____
ROOT
ATOM      1  C   UNL     1       4.403   6.084  17.829  0.00  0.00    +0.000 C 
ENDROOT
BRANCH   1   2
ATOM      2  C   UNL     1       3.479   6.255  19.094  0.00  0.00    +0.000 C 
ATOM      3  O   UNL     1       3.770   5.687  20.150  0.00  0.00    +0.000 OA
ATOM      4  N   UNL     1       2.444   7.189  19.044  0.00  0.00    +0.000 N 
ATOM      5  C   UNL     1       1.754   7.651  20.260  0.00  0.00    +0.000 C 
ATOM      6  C   UNL     1       1.511   9.197  20.295  0.00  0.00    +0.000 C 
ATOM      7  N   UNL     1       1.173   9.790  18.979  0.00  0.00    +0.000 N 
ATOM      8  C   UNL     1      -0.094  10.311  18.740  0.00  0.00    +0.000 A 
ATOM      9  C   UNL     1      -0.758  11.083  19.696  0.00  0.00    +0.000 A 
ATOM     10  C   UNL     1      -2.032  11.595  19.435  0.00  0.00    +0.000 A 
ATOM     11  C   UNL     1      -2.621  11.351  18.206  0.00  0.00    +0.000 A 
ATOM     12  C   UNL     1      -1.894  10.621  17.288  0.00  0.00    +0.000 A 
ATOM     13  N   UNL     1      -0.668  10.104  17.532  0.00  0.00    +0.000 NA
ATOM     14  C   UNL     1       1.893   9.227  17.821  0.00  0.00    +0.000 C 
ATOM     15  C   UNL     1       1.799   7.700  17.833  0.00  0.00    +0.000 C 
ENDBRANCH   1   2
BRANCH   1  16
ATOM     16  N   UNL     1       5.285   7.245  17.753  0.00  0.00    +0.000 N 
ATOM     17  C   UNL     1       6.420   7.251  16.995  0.00  0.00    +0.000 C 
ATOM     18  O   UNL     1       6.762   6.335  16.263  0.00  0.00    +0.000 OA
ATOM     19  H   UNL     1       5.173   8.007  18.411  0.00  0.00    +0.000 HD
BRANCH  17  20
ATOM     20  O   UNL     1       7.102   8.406  17.187  0.00  0.00    +0.000 OA
BRANCH  20  21
ATOM     21  C   UNL     1       8.242   8.337  18.060  0.00  0.00    +0.000 C 
BRANCH  21  22
ATOM     22  C   UNL     1       8.669   9.732  18.451  0.00  0.00    +0.000 A 
ATOM     23  C   UNL     1       8.448  10.823  17.596  0.00  0.00    +0.000 A 
ATOM     24  C   UNL     1       8.871  12.105  17.957  0.00  0.00    +0.000 A 
ATOM     25  C   UNL     1       9.519  12.311  19.171  0.00  0.00    +0.000 A 
ATOM     26  C   UNL     1       9.737  11.237  20.034  0.00  0.00    +0.000 A 
ATOM     27  C   UNL     1       9.318   9.953  19.673  0.00  0.00    +0.000 A 
ENDBRANCH  21  22
ENDBRANCH  20  21
ENDBRANCH  17  20
ENDBRANCH   1  16
BRANCH   1  28
ATOM     28  C   UNL     1       5.244   4.779  17.847  0.00  0.00    +0.000 C 
BRANCH  28  29
ATOM     29  C   UNL     1       4.349   3.535  17.904  0.00  0.00    +0.000 C 
BRANCH  29  30
ATOM     30  C   UNL     1       3.230   3.436  16.851  0.00  0.00    +0.000 C 
BRANCH  30  31
ATOM     31  C   UNL     1       1.833   3.676  17.418  0.00  0.00    +0.000 C 
BRANCH  31  34
ATOM     32  C   UNL     1       0.998   2.789  19.572  0.00  0.00    +0.000 C 
ATOM     33  O   UNL     1       0.184   2.035  19.069  0.00  0.00    +0.000 OA
ATOM     34  N   UNL     1       1.821   3.639  18.869  0.00  0.00    +0.000 N 
ATOM     35  H   UNL     1       2.461   4.245  19.365  0.00  0.00    +0.000 HD
BRANCH  32  37
ATOM     36  C   UNL     1       2.437   2.686  21.560  0.00  0.00    +0.000 C 
ATOM     37  C   UNL     1       1.216   2.872  21.042  0.00  0.00    +0.000 C 
ENDBRANCH  32  37
ENDBRANCH  31  34
ENDBRANCH  30  31
ENDBRANCH  29  30
ENDBRANCH  28  29
ENDBRANCH   1  28
TORSDOF 11
ENDMDL
MODEL 2
REMARK VINA RESULT:      -7.6      4.664      8.565
REMARK  Name = 
REMARK  11 active torsions:
REMARK  status: ('A' for Active; 'I' for Inactive)
REMARK    1  A    between atoms: C_2  and  C_3
REMARK    2  A    between atoms: N_5  and  C_6
REMARK    3  A    between atoms: C_6  and  C_7
REMARK    4  A    between atoms: C_7  and  C_8
REMARK    5  A    between atoms: C_8  and  C_9
REMARK    6  A    between atoms: C_9  and  C_10
REMARK    7  A    between atoms: C_10  and  N_11
REMARK    8  A    between atoms: C_10  and  C_22
REMARK    9  A    between atoms: C_12  and  O_14
REMARK   10  A    between atoms: O_14  and  C_15
REMARK   11  A    between atoms: C_15  and  C_16
REMARK                            x       y       z     vdW  Elec       q    Type
REMARK                         _______ _______ _______ _____ _____    ______ ____
ROOT
ATOM      1  C   UNL     1      -1.132  10.604  18.148  0.00  0.00    +0.000 C 
ENDROOT
BRANCH   1   2
ATOM      2  C   UNL     1      -1.530  11.840  19.040  0.00  0.00    +0.000 C 
ATOM      3  O   UNL     1      -2.640  11.879  19.578  0.00  0.00    +0.000 OA
ATOM      4  N   UNL     1      -0.551  12.785  19.349  0.00  0.00    +0.000 N 
ATOM      5  C   UNL     1      -0.735  13.772  20.425  0.00  0.00    +0.000 C 
ATOM      6  C   UNL     1       0.531  13.959  21.328  0.00  0.00    +0.000 C 
ATOM      7  N   UNL     1       1.817  13.891  20.595  0.00  0.00    +0.000 N 
ATOM      8  C   UNL     1       2.618  15.020  20.462  0.00  0.00    +0.000 A 
ATOM      9  C   UNL     1       2.824  15.898  21.528  0.00  0.00    +0.000 A 
ATOM     10  C   UNL     1       3.633  17.028  21.371  0.00  0.00    +0.000 A 
ATOM     11  C   UNL     1       4.250  17.255  20.153  0.00  0.00    +0.000 A 
ATOM     12  C   UNL     1       4.043  16.327  19.154  0.00  0.00    +0.000 A 
ATOM     13  N   UNL     1       3.249  15.238  19.285  0.00  0.00    +0.000 NA
ATOM     14  C   UNL     1       1.881  12.895  19.508  0.00  0.00    +0.000 C 
ATOM     15  C   UNL     1       0.671  13.044  18.584  0.00  0.00    +0.000 C 
ENDBRANCH   1   2
BRANCH   1  16
ATOM     16  N   UNL     1      -0.202   9.776  18.910  0.00  0.00    +0.000 N 
ATOM     17  C   UNL     1       1.031   9.436  18.435  0.00  0.00    +0.000 C 
ATOM     18  O   UNL     1       1.498   9.843  17.382  0.00  0.00    +0.000 OA
ATOM     19  H   UNL     1      -0.526   9.280  19.731  0.00  0.00    +0.000 HD
BRANCH  17  20
ATOM     20  O   UNL     1       1.642   8.582  19.291  0.00  0.00    +0.000 OA
BRANCH  20  21
ATOM     21  C   UNL     1       2.566   7.646  18.709  0.00  0.00    +0.000 C 
BRANCH  21  22
ATOM     22  C   UNL     1       2.130   6.235  19.029  0.00  0.00    +0.000 A 
ATOM     23  C   UNL     1       1.952   5.285  18.013  0.00  0.00    +0.000 A 
ATOM     24  C   UNL     1       1.523   3.990  18.319  0.00  0.00    +0.000 A 
ATOM     25  C   UNL     1       1.265   3.633  19.639  0.00  0.00    +0.000 A 
ATOM     26  C   UNL     1       1.446   4.566  20.660  0.00  0.00    +0.000 A 
ATOM     27  C   UNL     1       1.872   5.863  20.356  0.00  0.00    +0.000 A 
ENDBRANCH  21  22
ENDBRANCH  20  21
ENDBRANCH  17  20
ENDBRANCH   1  16
BRANCH   1  28
ATOM     28  C   UNL     1      -2.346   9.754  17.689  0.00  0.00    +0.000 C 
BRANCH  28  29
ATOM     29  C   UNL     1      -3.321  10.578  16.840  0.00  0.00    +0.000 C 
BRANCH  29  30
ATOM     30  C   UNL     1      -2.828  11.019  15.449  0.00  0.00    +0.000 C 
BRANCH  30  31
ATOM     31  C   UNL     1      -2.949   9.933  14.384  0.00  0.00    +0.000 C 
BRANCH  31  34
ATOM     32  C   UNL     1      -4.300   9.729  12.320  0.00  0.00    +0.000 C 
ATOM     33  O   UNL     1      -3.360   9.429  11.606  0.00  0.00    +0.000 OA
ATOM     34  N   UNL     1      -4.206  10.016  13.662  0.00  0.00    +0.000 N 
ATOM     35  H   UNL     1      -5.036  10.272  14.182  0.00  0.00    +0.000 HD
BRANCH  32  37
ATOM     36  C   UNL     1      -6.551   8.793  12.016  0.00  0.00    +0.000 C 
ATOM     37  C   UNL     1      -5.699   9.807  11.818  0.00  0.00    +0.000 C 
ENDBRANCH  32  37
ENDBRANCH  31  34
ENDBRANCH  30  31
ENDBRANCH  29  30
ENDBRANCH  28  29
ENDBRANCH   1  28
TORSDOF 11
ENDMDL
MODEL 3
REMARK VINA RESULT:      -7.5      2.976      6.633
REMARK  Name = 
REMARK  11 active torsions:
REMARK  status: ('A' for Active; 'I' for Inactive)
REMARK    1  A    between atoms: C_2  and  C_3
REMARK    2  A    between atoms: N_5  and  C_6
REMARK    3  A    between atoms: C_6  and  C_7
REMARK    4  A    between atoms: C_7  and  C_8
REMARK    5  A    between atoms: C_8  and  C_9
REMARK    6  A    between atoms: C_9  and  C_10
REMARK    7  A    between atoms: C_10  and  N_11
REMARK    8  A    between atoms: C_10  and  C_22
REMARK    9  A    between atoms: C_12  and  O_14
REMARK   10  A    between atoms: O_14  and  C_15
REMARK   11  A    between atoms: C_15  and  C_16
REMARK                            x       y       z     vdW  Elec       q    Type
REMARK                         _______ _______ _______ _____ _____    ______ ____
ROOT
ATOM      1  C   UNL     1       2.977   7.104  18.933  0.00  0.00    +0.000 C 
ENDROOT
BRANCH   1   2
ATOM      2  C   UNL     1       2.385   8.344  18.163  0.00  0.00    +0.000 C 
ATOM      3  O   UNL     1       2.531   8.437  16.941  0.00  0.00    +0.000 OA
ATOM      4  N   UNL     1       1.553   9.226  18.854  0.00  0.00    +0.000 N 
ATOM      5  C   UNL     1       0.702  10.202  18.154  0.00  0.00    +0.000 C 
ATOM      6  C   UNL     1      -0.749  10.300  18.735  0.00  0.00    +0.000 C 
ATOM      7  N   UNL     1      -0.825  10.172  20.209  0.00  0.00    +0.000 N 
ATOM      8  C   UNL     1      -1.198  11.255  20.997  0.00  0.00    +0.000 A 
ATOM      9  C   UNL     1      -2.246  12.101  20.626  0.00  0.00    +0.000 A 
ATOM     10  C   UNL     1      -2.603  13.185  21.433  0.00  0.00    +0.000 A 
ATOM     11  C   UNL     1      -1.923  13.398  22.620  0.00  0.00    +0.000 A 
ATOM     12  C   UNL     1      -0.929  12.501  22.952  0.00  0.00    +0.000 A 
ATOM     13  N   UNL     1      -0.560  11.458  22.173  0.00  0.00    +0.000 NA
ATOM     14  C   UNL     1       0.099   9.194  20.814  0.00  0.00    +0.000 C 
ATOM     15  C   UNL     1       1.523   9.428  20.304  0.00  0.00    +0.000 C 
ENDBRANCH   1   2
BRANCH   1  16
ATOM     16  N   UNL     1       1.886   6.167  19.189  0.00  0.00    +0.000 N 
ATOM     17  C   UNL     1       1.643   5.650  20.427  0.00  0.00    +0.000 C 
ATOM     18  O   UNL     1       2.251   5.969  21.438  0.00  0.00    +0.000 OA
ATOM     19  H   UNL     1       1.401   5.735  18.412  0.00  0.00    +0.000 HD
BRANCH  17  20
ATOM     20  O   UNL     1       0.647   4.734  20.363  0.00  0.00    +0.000 OA
BRANCH  20  21
ATOM     21  C   UNL     1       0.979   3.399  20.783  0.00  0.00    +0.000 C 
BRANCH  21  22
ATOM     22  C   UNL     1       1.974   2.796  19.820  0.00  0.00    +0.000 A 
ATOM     23  C   UNL     1       1.646   2.596  18.471  0.00  0.00    +0.000 A 
ATOM     24  C   UNL     1       2.567   2.013  17.595  0.00  0.00    +0.000 A 
ATOM     25  C   UNL     1       3.820   1.622  18.057  0.00  0.00    +0.000 A 
ATOM     26  C   UNL     1       4.161   1.823  19.395  0.00  0.00    +0.000 A 
ATOM     27  C   UNL     1       3.241   2.403  20.273  0.00  0.00    +0.000 A 
ENDBRANCH  21  22
ENDBRANCH  20  21
ENDBRANCH  17  20
ENDBRANCH   1  16
BRANCH   1  28
ATOM     28  C   UNL     1       4.122   6.388  18.169  0.00  0.00    +0.000 C 
BRANCH  28  29
ATOM     29  C   UNL     1       4.914   5.454  19.092  0.00  0.00    +0.000 C 
BRANCH  29  30
ATOM     30  C   UNL     1       6.262   4.932  18.560  0.00  0.00    +0.000 C 
BRANCH  30  31
ATOM     31  C   UNL     1       6.921   5.861  17.545  0.00  0.00    +0.000 C 
BRANCH  31  34
ATOM     32  C   UNL     1       6.383   5.255  15.206  0.00  0.00    +0.000 C 
ATOM     33  O   UNL     1       5.316   5.842  15.185  0.00  0.00    +0.000 OA
ATOM     34  N   UNL     1       7.218   5.181  16.297  0.00  0.00    +0.000 N 
ATOM     35  H   UNL     1       8.083   4.660  16.236  0.00  0.00    +0.000 HD
BRANCH  32  37
ATOM     36  C   UNL     1       7.805   5.152  13.205  0.00  0.00    +0.000 C 
ATOM     37  C   UNL     1       6.933   4.544  14.019  0.00  0.00    +0.000 C 
ENDBRANCH  32  37
ENDBRANCH  31  34
ENDBRANCH  30  31
ENDBRANCH  29  30
ENDBRANCH  28  29
ENDBRANCH   1  28
TORSDOF 11
ENDMDL
MODEL 4
REMARK VINA RESULT:      -7.4      4.288      8.357
REMARK  Name = 
REMARK  11 active torsions:
REMARK  status: ('A' for Active; 'I' for Inactive)
REMARK    1  A    between atoms: C_2  and  C_3
REMARK    2  A    between atoms: N_5  and  C_6
REMARK    3  A    between atoms: C_6  and  C_7
REMARK    4  A    between atoms: C_7  and  C_8
REMARK    5  A    between atoms: C_8  and  C_9
REMARK    6  A    between atoms: C_9  and  C_10
REMARK    7  A    between atoms: C_10  and  N_11
REMARK    8  A    between atoms: C_10  and  C_22
REMARK    9  A    between atoms: C_12  and  O_14
REMARK   10  A    between atoms: O_14  and  C_15
REMARK   11  A    between atoms: C_15  and  C_16
REMARK                            x       y       z     vdW  Elec       q    Type
REMARK                         _______ _______ _______ _____ _____    ______ ____
ROOT
ATOM      1  C   UNL     1      -0.317  10.208  17.906  0.00  0.00    +0.000 C 
ENDROOT
BRANCH   1   2
ATOM      2  C   UNL     1      -0.445  10.811  19.356  0.00  0.00    +0.000 C 
ATOM      3  O   UNL     1      -0.716  10.075  20.308  0.00  0.00    +0.000 OA
ATOM      4  N   UNL     1      -0.076  12.141  19.562  0.00  0.00    +0.000 N 
ATOM      5  C   UNL     1       0.153  12.685  20.910  0.00  0.00    +0.000 C 
ATOM      6  C   UNL     1       1.427  13.589  21.014  0.00  0.00    +0.000 C 
ATOM      7  N   UNL     1       1.674  14.434  19.822  0.00  0.00    +0.000 N 
ATOM      8  C   UNL     1       1.553  15.817  19.896  0.00  0.00    +0.000 A 
ATOM      9  C   UNL     1       2.044  16.535  20.989  0.00  0.00    +0.000 A 
ATOM     10  C   UNL     1       1.910  17.926  21.042  0.00  0.00    +0.000 A 
ATOM     11  C   UNL     1       1.308  18.590  19.986  0.00  0.00    +0.000 A 
ATOM     12  C   UNL     1       0.887  17.828  18.916  0.00  0.00    +0.000 A 
ATOM     13  N   UNL     1       0.993  16.480  18.857  0.00  0.00    +0.000 NA
ATOM     14  C   UNL     1       1.374  13.806  18.521  0.00  0.00    +0.000 C 
ATOM     15  C   UNL     1      -0.027  13.192  18.543  0.00  0.00    +0.000 C 
ENDBRANCH   1   2
BRANCH   1  16
ATOM     16  N   UNL     1       0.513   9.009  17.988  0.00  0.00    +0.000 N 
ATOM     17  C   UNL     1       1.863   9.040  17.793  0.00  0.00    +0.000 C 
ATOM     18  O   UNL     1       2.508  10.062  17.610  0.00  0.00    +0.000 OA
ATOM     19  H   UNL     1       0.077   8.094  18.005  0.00  0.00    +0.000 HD
BRANCH  17  20
ATOM     20  O   UNL     1       2.368   7.783  17.820  0.00  0.00    +0.000 OA
BRANCH  20  21
ATOM     21  C   UNL     1       2.651   7.237  19.120  0.00  0.00    +0.000 C 
BRANCH  21  22
ATOM     22  C   UNL     1       2.095   5.836  19.215  0.00  0.00    +0.000 A 
ATOM     23  C   UNL     1       1.667   5.308  20.442  0.00  0.00    +0.000 A 
ATOM     24  C   UNL     1       1.178   4.000  20.521  0.00  0.00    +0.000 A 
ATOM     25  C   UNL     1       1.116   3.208  19.379  0.00  0.00    +0.000 A 
ATOM     26  C   UNL     1       1.531   3.723  18.151  0.00  0.00    +0.000 A 
ATOM     27  C   UNL     1       2.023   5.029  18.071  0.00  0.00    +0.000 A 
ENDBRANCH  21  22
ENDBRANCH  20  21
ENDBRANCH  17  20
ENDBRANCH   1  16
BRANCH   1  28
ATOM     28  C   UNL     1      -1.682   9.865  17.254  0.00  0.00    +0.000 C 
BRANCH  28  29
ATOM     29  C   UNL     1      -2.811  10.730  17.827  0.00  0.00    +0.000 C 
BRANCH  29  30
ATOM     30  C   UNL     1      -4.071  10.893  16.957  0.00  0.00    +0.000 C 
BRANCH  30  31
ATOM     31  C   UNL     1      -5.082  11.886  17.524  0.00  0.00    +0.000 C 
BRANCH  31  34
ATOM     32  C   UNL     1      -5.406  12.341  19.935  0.00  0.00    +0.000 C 
ATOM     33  O   UNL     1      -6.510  11.831  19.994  0.00  0.00    +0.000 OA
ATOM     34  N   UNL     1      -4.646  12.442  18.792  0.00  0.00    +0.000 N 
ATOM     35  H   UNL     1      -3.742  12.895  18.825  0.00  0.00    +0.000 HD
BRANCH  32  37
ATOM     36  C   UNL     1      -3.536  13.528  21.000  0.00  0.00    +0.000 C 
ATOM     37  C   UNL     1      -4.721  12.916  21.125  0.00  0.00    +0.000 C 
ENDBRANCH  32  37
ENDBRANCH  31  34
ENDBRANCH  30  31
ENDBRANCH  29  30
ENDBRANCH  28  29
ENDBRANCH   1  28
TORSDOF 11
ENDMDL
MODEL 5
REMARK VINA RESULT:      -7.4      4.067     10.187
REMARK  Name = 
REMARK  11 active torsions:
REMARK  status: ('A' for Active; 'I' for Inactive)
REMARK    1  A    between atoms: C_2  and  C_3
REMARK    2  A    between atoms: N_5  and  C_6
REMARK    3  A    between atoms: C_6  and  C_7
REMARK    4  A    between atoms: C_7  and  C_8
REMARK    5  A    between atoms: C_8  and  C_9
REMARK    6  A    between atoms: C_9  and  C_10
REMARK    7  A    between atoms: C_10  and  N_11
REMARK    8  A    between atoms: C_10  and  C_22
REMARK    9  A    between atoms: C_12  and  O_14
REMARK   10  A    between atoms: O_14  and  C_15
REMARK   11  A    between atoms: C_15  and  C_16
REMARK                            x       y       z     vdW  Elec       q    Type
REMARK                         _______ _______ _______ _____ _____    ______ ____
ROOT
ATOM      1  C   UNL     1      -0.494  10.759  18.487  0.00  0.00    +0.000 C 
ENDROOT
BRANCH   1   2
ATOM      2  C   UNL     1       0.166  10.031  19.719  0.00  0.00    +0.000 C 
ATOM      3  O   UNL     1      -0.352  10.118  20.836  0.00  0.00    +0.000 OA
ATOM      4  N   UNL     1       1.227   9.155  19.487  0.00  0.00    +0.000 N 
ATOM      5  C   UNL     1       1.679   8.195  20.507  0.00  0.00    +0.000 C 
ATOM      6  C   UNL     1       1.972   6.766  19.938  0.00  0.00    +0.000 C 
ATOM      7  N   UNL     1       2.589   6.762  18.590  0.00  0.00    +0.000 N 
ATOM      8  C   UNL     1       3.898   6.329  18.410  0.00  0.00    +0.000 A 
ATOM      9  C   UNL     1       4.389   5.198  19.065  0.00  0.00    +0.000 A 
ATOM     10  C   UNL     1       5.710   4.781  18.870  0.00  0.00    +0.000 A 
ATOM     11  C   UNL     1       6.521   5.489  17.999  0.00  0.00    +0.000 A 
ATOM     12  C   UNL     1       5.963   6.569  17.349  0.00  0.00    +0.000 A 
ATOM     13  N   UNL     1       4.692   6.995  17.540  0.00  0.00    +0.000 NA
ATOM     14  C   UNL     1       2.092   7.792  17.658  0.00  0.00    +0.000 C 
ATOM     15  C   UNL     1       2.121   9.167  18.327  0.00  0.00    +0.000 C 
ENDBRANCH   1   2
BRANCH   1  16
ATOM     16  N   UNL     1      -1.919  10.440  18.483  0.00  0.00    +0.000 N 
ATOM     17  C   UNL     1      -2.600  10.161  17.334  0.00  0.00    +0.000 C 
ATOM     18  O   UNL     1      -2.084  10.079  16.230  0.00  0.00    +0.000 OA
ATOM     19  H   UNL     1      -2.474  10.602  19.314  0.00  0.00    +0.000 HD
BRANCH  17  20
ATOM     20  O   UNL     1      -3.920  10.004  17.601  0.00  0.00    +0.000 OA
BRANCH  20  21
ATOM     21  C   UNL     1      -4.745  11.172  17.451  0.00  0.00    +0.000 C 
BRANCH  21  22
ATOM     22  C   UNL     1      -5.606  11.348  18.680  0.00  0.00    +0.000 A 
ATOM     23  C   UNL     1      -6.552  10.378  19.046  0.00  0.00    +0.000 A 
ATOM     24  C   UNL     1      -7.361  10.564  20.171  0.00  0.00    +0.000 A 
ATOM     25  C   UNL     1      -7.237  11.718  20.937  0.00  0.00    +0.000 A 
ATOM     26  C   UNL     1      -6.295  12.686  20.589  0.00  0.00    +0.000 A 
ATOM     27  C   UNL     1      -5.487  12.504  19.463  0.00  0.00    +0.000 A 
ENDBRANCH  21  22
ENDBRANCH  20  21
ENDBRANCH  17  20
ENDBRANCH   1  16
BRANCH   1  28
ATOM     28  C   UNL     1      -0.296  12.298  18.498  0.00  0.00    +0.000 C 
BRANCH  28  29
ATOM     29  C   UNL     1       1.129  12.678  18.921  0.00  0.00    +0.000 C 
BRANCH  29  30
ATOM     30  C   UNL     1       1.309  13.211  20.354  0.00  0.00    +0.000 C 
BRANCH  30  31
ATOM     31  C   UNL     1       0.122  14.027  20.858  0.00  0.00    +0.000 C 
BRANCH  31  34
ATOM     32  C   UNL     1      -2.201  13.403  21.443  0.00  0.00    +0.000 C 
ATOM     33  O   UNL     1      -2.718  14.292  20.791  0.00  0.00    +0.000 OA
ATOM     34  N   UNL     1      -0.844  13.203  21.562  0.00  0.00    +0.000 N 
ATOM     35  H   UNL     1      -0.494  12.447  22.136  0.00  0.00    +0.000 HD
BRANCH  32  37
ATOM     36  C   UNL     1      -2.771  12.181  23.497  0.00  0.00    +0.000 C 
ATOM     37  C   UNL     1      -2.993  12.390  22.193  0.00  0.00    +0.000 C 
ENDBRANCH  32  37
ENDBRANCH  31  34
ENDBRANCH  30  31
ENDBRANCH  29  30
ENDBRANCH  28  29
ENDBRANCH   1  28
TORSDOF 11
ENDMDL
MODEL 6
REMARK VINA RESULT:      -7.4      2.403      3.807
REMARK  Name = 
REMARK  11 active torsions:
REMARK  status: ('A' for Active; 'I' for Inactive)
REMARK    1  A    between atoms: C_2  and  C_3
REMARK    2  A    between atoms: N_5  and  C_6
REMARK    3  A    between atoms: C_6  and  C_7
REMARK    4  A    between atoms: C_7  and  C_8
REMARK    5  A    between atoms: C_8  and  C_9
REMARK    6  A    between atoms: C_9  and  C_10
REMARK    7  A    between atoms: C_10  and  N_11
REMARK    8  A    between atoms: C_10  and  C_22
REMARK    9  A    between atoms: C_12  and  O_14
REMARK   10  A    between atoms: O_14  and  C_15
REMARK   11  A    between atoms: C_15  and  C_16
REMARK                            x       y       z     vdW  Elec       q    Type
REMARK                         _______ _______ _______ _____ _____    ______ ____
ROOT
ATOM      1  C   UNL     1       4.536   5.532  17.969  0.00  0.00    +0.000 C 
ENDROOT
BRANCH   1   2
ATOM      2  C   UNL     1       3.511   5.588  19.165  0.00  0.00    +0.000 C 
ATOM      3  O   UNL     1       3.668   4.856  20.146  0.00  0.00    +0.000 OA
ATOM      4  N   UNL     1       2.543   6.593  19.169  0.00  0.00    +0.000 N 
ATOM      5  C   UNL     1       1.772   6.926  20.378  0.00  0.00    +0.000 C 
ATOM      6  C   UNL     1       1.621   8.464  20.622  0.00  0.00    +0.000 C 
ATOM      7  N   UNL     1       1.442   9.262  19.386  0.00  0.00    +0.000 N 
ATOM      8  C   UNL     1       0.237   9.903  19.123  0.00  0.00    +0.000 A 
ATOM      9  C   UNL     1      -0.465  10.577  20.125  0.00  0.00    +0.000 A 
ATOM     10  C   UNL     1      -1.677  11.213  19.838  0.00  0.00    +0.000 A 
ATOM     11  C   UNL     1      -2.163  11.191  18.542  0.00  0.00    +0.000 A 
ATOM     12  C   UNL     1      -1.400  10.548  17.589  0.00  0.00    +0.000 A 
ATOM     13  N   UNL     1      -0.235   9.913  17.855  0.00  0.00    +0.000 NA
ATOM     14  C   UNL     1       2.231   8.819  18.221  0.00  0.00    +0.000 C 
ATOM     15  C   UNL     1       2.044   7.317  17.998  0.00  0.00    +0.000 C 
ENDBRANCH   1   2
BRANCH   1  16
ATOM     16  N   UNL     1       5.704   6.326  18.338  0.00  0.00    +0.000 N 
ATOM     17  C   UNL     1       6.413   7.050  17.424  0.00  0.00    +0.000 C 
ATOM     18  O   UNL     1       6.103   7.164  16.248  0.00  0.00    +0.000 OA
ATOM     19  H   UNL     1       6.128   6.207  19.251  0.00  0.00    +0.000 HD
BRANCH  17  20
ATOM     20  O   UNL     1       7.502   7.603  18.010  0.00  0.00    +0.000 OA
BRANCH  20  21
ATOM     21  C   UNL     1       8.222   8.575  17.231  0.00  0.00    +0.000 C 
BRANCH  21  22
ATOM     22  C   UNL     1       8.588   9.754  18.101  0.00  0.00    +0.000 A 
ATOM     23  C   UNL     1       8.468  11.069  17.626  0.00  0.00    +0.000 A 
ATOM     24  C   UNL     1       8.834  12.151  18.433  0.00  0.00    +0.000 A 
ATOM     25  C   UNL     1       9.326  11.931  19.716  0.00  0.00    +0.000 A 
ATOM     26  C   UNL     1       9.442  10.629  20.203  0.00  0.00    +0.000 A 
ATOM     27  C   UNL     1       9.079   9.546  19.397  0.00  0.00    +0.000 A 
ENDBRANCH  21  22
ENDBRANCH  20  21
ENDBRANCH  17  20
ENDBRANCH   1  16
BRANCH   1  28
ATOM     28  C   UNL     1       4.971   4.091  17.593  0.00  0.00    +0.000 C 
BRANCH  28  29
ATOM     29  C   UNL     1       4.948   3.875  16.075  0.00  0.00    +0.000 C 
BRANCH  29  30
ATOM     30  C   UNL     1       6.302   3.616  15.390  0.00  0.00    +0.000 C 
BRANCH  30  31
ATOM     31  C   UNL     1       6.506   4.424  14.112  0.00  0.00    +0.000 C 
BRANCH  31  34
ATOM     32  C   UNL     1       5.945   3.207  12.030  0.00  0.00    +0.000 C 
ATOM     33  O   UNL     1       7.067   2.765  11.858  0.00  0.00    +0.000 OA
ATOM     34  N   UNL     1       5.576   4.034  13.067  0.00  0.00    +0.000 N 
ATOM     35  H   UNL     1       4.624   4.370  13.130  0.00  0.00    +0.000 HD
BRANCH  32  37
ATOM     36  C   UNL     1       3.563   3.279  11.432  0.00  0.00    +0.000 C 
ATOM     37  C   UNL     1       4.806   2.885  11.128  0.00  0.00    +0.000 C 
ENDBRANCH  32  37
ENDBRANCH  31  34
ENDBRANCH  30  31
ENDBRANCH  29  30
ENDBRANCH  28  29
ENDBRANCH   1  28
TORSDOF 11
ENDMDL
MODEL 7
REMARK VINA RESULT:      -7.4      2.922      6.410
REMARK  Name = 
REMARK  11 active torsions:
REMARK  status: ('A' for Active; 'I' for Inactive)
REMARK    1  A    between atoms: C_2  and  C_3
REMARK    2  A    between atoms: N_5  and  C_6
REMARK    3  A    between atoms: C_6  and  C_7
REMARK    4  A    between atoms: C_7  and  C_8
REMARK    5  A    between atoms: C_8  and  C_9
REMARK    6  A    between atoms: C_9  and  C_10
REMARK    7  A    between atoms: C_10  and  N_11
REMARK    8  A    between atoms: C_10  and  C_22
REMARK    9  A    between atoms: C_12  and  O_14
REMARK   10  A    between atoms: O_14  and  C_15
REMARK   11  A    between atoms: C_15  and  C_16
REMARK                            x       y       z     vdW  Elec       q    Type
REMARK                         _______ _______ _______ _____ _____    ______ ____
ROOT
ATOM      1  C   UNL     1       4.170   5.979  18.265  0.00  0.00    +0.000 C 
ENDROOT
BRANCH   1   2
ATOM      2  C   UNL     1       3.205   6.267  19.476  0.00  0.00    +0.000 C 
ATOM      3  O   UNL     1       3.443   5.776  20.583  0.00  0.00    +0.000 OA
ATOM      4  N   UNL     1       2.196   7.217  19.316  0.00  0.00    +0.000 N 
ATOM      5  C   UNL     1       1.473   7.786  20.465  0.00  0.00    +0.000 C 
ATOM      6  C   UNL     1       1.268   9.335  20.373  0.00  0.00    +0.000 C 
ATOM      7  N   UNL     1       0.993   9.833  19.004  0.00  0.00    +0.000 N 
ATOM      8  C   UNL     1      -0.251  10.361  18.678  0.00  0.00    +0.000 A 
ATOM      9  C   UNL     1      -0.930  11.218  19.547  0.00  0.00    +0.000 A 
ATOM     10  C   UNL     1      -2.181  11.736  19.198  0.00  0.00    +0.000 A 
ATOM     11  C   UNL     1      -2.730  11.412  17.969  0.00  0.00    +0.000 A 
ATOM     12  C   UNL     1      -1.989  10.598  17.138  0.00  0.00    +0.000 A 
ATOM     13  N   UNL     1      -0.785  10.074  17.468  0.00  0.00    +0.000 NA
ATOM     14  C   UNL     1       1.741   9.167  17.921  0.00  0.00    +0.000 C 
ATOM     15  C   UNL     1       1.609   7.648  18.045  0.00  0.00    +0.000 C 
ENDBRANCH   1   2
BRANCH   1  16
ATOM     16  N   UNL     1       3.890   4.633  17.773  0.00  0.00    +0.000 N 
ATOM     17  C   UNL     1       4.653   3.556  18.120  0.00  0.00    +0.000 C 
ATOM     18  O   UNL     1       5.578   3.596  18.917  0.00  0.00    +0.000 OA
ATOM     19  H   UNL     1       3.235   4.500  17.012  0.00  0.00    +0.000 HD
BRANCH  17  20
ATOM     20  O   UNL     1       4.240   2.456  17.445  0.00  0.00    +0.000 OA
BRANCH  20  21
ATOM     21  C   UNL     1       3.600   1.431  18.225  0.00  0.00    +0.000 C 
BRANCH  21  22
ATOM     22  C   UNL     1       2.731   2.067  19.285  0.00  0.00    +0.000 A 
ATOM     23  C   UNL     1       3.170   2.174  20.614  0.00  0.00    +0.000 A 
ATOM     24  C   UNL     1       2.347   2.741  21.590  0.00  0.00    +0.000 A 
ATOM     25  C   UNL     1       1.079   3.204  21.253  0.00  0.00    +0.000 A 
ATOM     26  C   UNL     1       0.634   3.112  19.934  0.00  0.00    +0.000 A 
ATOM     27  C   UNL     1       1.454   2.542  18.956  0.00  0.00    +0.000 A 
ENDBRANCH  21  22
ENDBRANCH  20  21
ENDBRANCH  17  20
ENDBRANCH   1  16
BRANCH   1  28
ATOM     28  C   UNL     1       4.036   7.005  17.108  0.00  0.00    +0.000 C 
BRANCH  28  29
ATOM     29  C   UNL     1       5.000   6.685  15.959  0.00  0.00    +0.000 C 
BRANCH  29  30
ATOM     30  C   UNL     1       6.488   6.538  16.322  0.00  0.00    +0.000 C 
BRANCH  30  31
ATOM     31  C   UNL     1       7.044   5.139  16.070  0.00  0.00    +0.000 C 
BRANCH  31  34
ATOM     32  C   UNL     1       7.370   4.953  13.624  0.00  0.00    +0.000 C 
ATOM     33  O   UNL     1       8.322   5.712  13.584  0.00  0.00    +0.000 OA
ATOM     34  N   UNL     1       6.669   4.631  14.763  0.00  0.00    +0.000 N 
ATOM     35  H   UNL     1       5.879   4.001  14.708  0.00  0.00    +0.000 HD
BRANCH  32  37
ATOM     36  C   UNL     1       5.836   3.383  12.521  0.00  0.00    +0.000 C 
ATOM     37  C   UNL     1       6.848   4.253  12.418  0.00  0.00    +0.000 C 
ENDBRANCH  32  37
ENDBRANCH  31  34
ENDBRANCH  30  31
ENDBRANCH  29  30
ENDBRANCH  28  29
ENDBRANCH   1  28
TORSDOF 11
ENDMDL
MODEL 8
REMARK VINA RESULT:      -7.4      4.144      8.493
REMARK  Name = 
REMARK  11 active torsions:
REMARK  status: ('A' for Active; 'I' for Inactive)
REMARK    1  A    between atoms: C_2  and  C_3
REMARK    2  A    between atoms: N_5  and  C_6
REMARK    3  A    between atoms: C_6  and  C_7
REMARK    4  A    between atoms: C_7  and  C_8
REMARK    5  A    between atoms: C_8  and  C_9
REMARK    6  A    between atoms: C_9  and  C_10
REMARK    7  A    between atoms: C_10  and  N_11
REMARK    8  A    between atoms: C_10  and  C_22
REMARK    9  A    between atoms: C_12  and  O_14
REMARK   10  A    between atoms: O_14  and  C_15
REMARK   11  A    between atoms: C_15  and  C_16
REMARK                            x       y       z     vdW  Elec       q    Type
REMARK                         _______ _______ _______ _____ _____    ______ ____
ROOT
ATOM      1  C   UNL     1       0.301  10.497  18.505  0.00  0.00    +0.000 C 
ENDROOT
BRANCH   1   2
ATOM      2  C   UNL     1       0.893  11.841  19.075  0.00  0.00    +0.000 C 
ATOM      3  O   UNL     1       1.898  12.338  18.561  0.00  0.00    +0.000 OA
ATOM      4  N   UNL     1       0.164  12.536  20.041  0.00  0.00    +0.000 N 
ATOM      5  C   UNL     1       0.463  13.937  20.381  0.00  0.00    +0.000 C 
ATOM      6  C   UNL     1      -0.813  14.833  20.527  0.00  0.00    +0.000 C 
ATOM      7  N   UNL     1      -1.970  14.149  21.151  0.00  0.00    +0.000 N 
ATOM      8  C   UNL     1      -2.425  14.528  22.409  0.00  0.00    +0.000 A 
ATOM      9  C   UNL     1      -2.527  15.873  22.773  0.00  0.00    +0.000 A 
ATOM     10  C   UNL     1      -2.986  16.231  24.045  0.00  0.00    +0.000 A 
ATOM     11  C   UNL     1      -3.365  15.238  24.932  0.00  0.00    +0.000 A 
ATOM     12  C   UNL     1      -3.284  13.932  24.496  0.00  0.00    +0.000 A 
ATOM     13  N   UNL     1      -2.825  13.569  23.276  0.00  0.00    +0.000 NA
ATOM     14  C   UNL     1      -2.156  12.735  20.772  0.00  0.00    +0.000 C 
ATOM     15  C   UNL     1      -0.843  11.967  20.939  0.00  0.00    +0.000 C 
ENDBRANCH   1   2
BRANCH   1  16
ATOM     16  N   UNL     1       1.027   9.387  19.116  0.00  0.00    +0.000 N 
ATOM     17  C   UNL     1       1.947   8.651  18.428  0.00  0.00    +0.000 C 
ATOM     18  O   UNL     1       2.302   8.888  17.283  0.00  0.00    +0.000 OA
ATOM     19  H   UNL     1       0.727   9.020  20.011  0.00  0.00    +0.000 HD
BRANCH  17  20
ATOM     20  O   UNL     1       2.391   7.626  19.194  0.00  0.00    +0.000 OA
BRANCH  20  21
ATOM     21  C   UNL     1       2.955   6.503  18.495  0.00  0.00    +0.000 C 
BRANCH  21  22
ATOM     22  C   UNL     1       2.245   5.236  18.910  0.00  0.00    +0.000 A 
ATOM     23  C   UNL     1       1.993   4.211  17.986  0.00  0.00    +0.000 A 
ATOM     24  C   UNL     1       1.312   3.054  18.377  0.00  0.00    +0.000 A 
ATOM     25  C   UNL     1       0.875   2.911  19.691  0.00  0.00    +0.000 A 
ATOM     26  C   UNL     1       1.127   3.919  20.621  0.00  0.00    +0.000 A 
ATOM     27  C   UNL     1       1.805   5.078  20.232  0.00  0.00    +0.000 A 
ENDBRANCH  21  22
ENDBRANCH  20  21
ENDBRANCH  17  20
ENDBRANCH   1  16
BRANCH   1  28
ATOM     28  C   UNL     1      -1.222  10.335  18.756  0.00  0.00    +0.000 C 
BRANCH  28  29
ATOM     29  C   UNL     1      -1.993  10.162  17.442  0.00  0.00    +0.000 C 
BRANCH  29  30
ATOM     30  C   UNL     1      -2.882  11.338  16.998  0.00  0.00    +0.000 C 
BRANCH  30  31
ATOM     31  C   UNL     1      -4.180  10.904  16.324  0.00  0.00    +0.000 C 
BRANCH  31  34
ATOM     32  C   UNL     1      -6.070  11.362  17.855  0.00  0.00    +0.000 C 
ATOM     33  O   UNL     1      -5.906  10.362  18.531  0.00  0.00    +0.000 OA
ATOM     34  N   UNL     1      -5.312  11.702  16.758  0.00  0.00    +0.000 N 
ATOM     35  H   UNL     1      -5.524  12.546  16.241  0.00  0.00    +0.000 HD
BRANCH  32  37
ATOM     36  C   UNL     1      -7.261  13.459  17.387  0.00  0.00    +0.000 C 
ATOM     37  C   UNL     1      -7.125  12.369  18.153  0.00  0.00    +0.000 C 
ENDBRANCH  32  37
ENDBRANCH  31  34
ENDBRANCH  30  31
ENDBRANCH  29  30
ENDBRANCH  28  29
ENDBRANCH   1  28
TORSDOF 11
ENDMDL
MODEL 9
REMARK VINA RESULT:      -7.4      4.168      8.409
REMARK  Name = 
REMARK  11 active torsions:
REMARK  status: ('A' for Active; 'I' for Inactive)
REMARK    1  A    between atoms: C_2  and  C_3
REMARK    2  A    between atoms: N_5  and  C_6
REMARK    3  A    between atoms: C_6  and  C_7
REMARK    4  A    between atoms: C_7  and  C_8
REMARK    5  A    between atoms: C_8  and  C_9
REMARK    6  A    between atoms: C_9  and  C_10
REMARK    7  A    between atoms: C_10  and  N_11
REMARK    8  A    between atoms: C_10  and  C_22
REMARK    9  A    between atoms: C_12  and  O_14
REMARK   10  A    between atoms: O_14  and  C_15
REMARK   11  A    between atoms: C_15  and  C_16
REMARK                            x       y       z     vdW  Elec       q    Type
REMARK                         _______ _______ _______ _____ _____    ______ ____
ROOT
ATOM      1  C   UNL     1       0.419  10.385  18.533  0.00  0.00    +0.000 C 
ENDROOT
BRANCH   1   2
ATOM      2  C   UNL     1       0.881  11.814  19.008  0.00  0.00    +0.000 C 
ATOM      3  O   UNL     1       1.828  12.373  18.448  0.00  0.00    +0.000 OA
ATOM      4  N   UNL     1       0.095  12.496  19.938  0.00  0.00    +0.000 N 
ATOM      5  C   UNL     1       0.257  13.938  20.185  0.00  0.00    +0.000 C 
ATOM      6  C   UNL     1      -1.099  14.713  20.292  0.00  0.00    +0.000 C 
ATOM      7  N   UNL     1      -2.179  13.960  20.974  0.00  0.00    +0.000 N 
ATOM      8  C   UNL     1      -2.659  14.374  22.212  0.00  0.00    +0.000 A 
ATOM      9  C   UNL     1      -2.889  15.723  22.492  0.00  0.00    +0.000 A 
ATOM     10  C   UNL     1      -3.371  16.116  23.744  0.00  0.00    +0.000 A 
ATOM     11  C   UNL     1      -3.643  15.150  24.698  0.00  0.00    +0.000 A 
ATOM     12  C   UNL     1      -3.438  13.833  24.344  0.00  0.00    +0.000 A 
ATOM     13  N   UNL     1      -2.955  13.438  23.143  0.00  0.00    +0.000 NA
ATOM     14  C   UNL     1      -2.227  12.514  20.688  0.00  0.00    +0.000 C 
ATOM     15  C   UNL     1      -0.844  11.891  20.885  0.00  0.00    +0.000 C 
ENDBRANCH   1   2
BRANCH   1  16
ATOM     16  N   UNL     1       1.113   9.392  19.348  0.00  0.00    +0.000 N 
ATOM     17  C   UNL     1       1.876   8.402  18.800  0.00  0.00    +0.000 C 
ATOM     18  O   UNL     1       2.112   8.297  17.606  0.00  0.00    +0.000 OA
ATOM     19  H   UNL     1       0.890   9.302  20.332  0.00  0.00    +0.000 HD
BRANCH  17  20
ATOM     20  O   UNL     1       2.316   7.562  19.768  0.00  0.00    +0.000 OA
BRANCH  20  21
ATOM     21  C   UNL     1       3.114   6.448  19.332  0.00  0.00    +0.000 C 
BRANCH  21  22
ATOM     22  C   UNL     1       2.291   5.182  19.385  0.00  0.00    +0.000 A 
ATOM     23  C   UNL     1       1.811   4.681  20.605  0.00  0.00    +0.000 A 
ATOM     24  C   UNL     1       1.072   3.495  20.643  0.00  0.00    +0.000 A 
ATOM     25  C   UNL     1       0.809   2.797  19.469  0.00  0.00    +0.000 A 
ATOM     26  C   UNL     1       1.274   3.288  18.249  0.00  0.00    +0.000 A 
ATOM     27  C   UNL     1       2.015   4.473  18.208  0.00  0.00    +0.000 A 
ENDBRANCH  21  22
ENDBRANCH  20  21
ENDBRANCH  17  20
ENDBRANCH   1  16
BRANCH   1  28
ATOM     28  C   UNL     1      -1.115  10.167  18.623  0.00  0.00    +0.000 C 
BRANCH  28  29
ATOM     29  C   UNL     1      -1.825  10.640  17.349  0.00  0.00    +0.000 C 
BRANCH  29  30
ATOM     30  C   UNL     1      -3.245  10.098  17.104  0.00  0.00    +0.000 C 
BRANCH  30  31
ATOM     31  C   UNL     1      -4.252  11.176  16.713  0.00  0.00    +0.000 C 
BRANCH  31  34
ATOM     32  C   UNL     1      -5.683  11.988  18.562  0.00  0.00    +0.000 C 
ATOM     33  O   UNL     1      -6.580  11.188  18.363  0.00  0.00    +0.000 OA
ATOM     34  N   UNL     1      -4.534  12.083  17.811  0.00  0.00    +0.000 N 
ATOM     35  H   UNL     1      -3.842  12.786  18.034  0.00  0.00    +0.000 HD
BRANCH  32  37
ATOM     36  C   UNL     1      -5.970  12.570  20.931  0.00  0.00    +0.000 C 
ATOM     37  C   UNL     1      -5.715  12.971  19.679  0.00  0.00    +0.000 C 
ENDBRANCH  32  37
ENDBRANCH  31  34
ENDBRANCH  30  31
ENDBRANCH  29  30
ENDBRANCH  28  29
ENDBRANCH   1  28
TORSDOF 11
ENDMDL
