MODEL 1
REMARK VINA RESULT:      -8.1      0.000      0.000
REMARK  Name = 
REMARK  6 active torsions:
REMARK  status: ('A' for Active; 'I' for Inactive)
REMARK    1  A    between atoms: C_1  and  C_2
REMARK    2  A    between atoms: C_2  and  N_3
REMARK    3  A    between atoms: C_2  and  C_20
REMARK    4  A    between atoms: C_4  and  C_6
REMARK    5  A    between atoms: C_9  and  C_10
REMARK    6  A    between atoms: C_13  and  C_14
REMARK                            x       y       z     vdW  Elec       q    Type
REMARK                         _______ _______ _______ _____ _____    ______ ____
ROOT
ATOM      1  N   UNL     1       4.176   6.562  17.397  0.00  0.00    +0.000 N 
ATOM      2  C   UNL     1       3.020   6.210  18.046  0.00  0.00    +0.000 C 
ATOM      3  O   UNL     1       2.532   5.087  17.997  0.00  0.00    +0.000 OA
ATOM      4  H   UNL     1       4.497   7.520  17.363  0.00  0.00    +0.000 HD
ENDROOT
BRANCH   2   5
ATOM      5  C   UNL     1       2.343   7.302  18.799  0.00  0.00    +0.000 A 
ATOM      6  C   UNL     1       2.037   8.489  18.126  0.00  0.00    +0.000 A 
ATOM      7  C   UNL     1       1.438   9.552  18.811  0.00  0.00    +0.000 A 
ATOM      8  C   UNL     1       1.123   9.441  20.176  0.00  0.00    +0.000 A 
ATOM      9  C   UNL     1       1.410   8.237  20.835  0.00  0.00    +0.000 A 
ATOM     10  C   UNL     1       2.005   7.171  20.151  0.00  0.00    +0.000 A 
BRANCH   8  11
ATOM     11  C   UNL     1       0.484  10.539  20.893  0.00  0.00    +0.000 A 
ATOM     12  N   UNL     1       1.157  11.554  21.458  0.00  0.00    +0.000 NA
ATOM     13  O   UNL     1       0.156  12.385  21.945  0.00  0.00    +0.000 OA
ATOM     14  C   UNL     1      -1.036  11.789  21.644  0.00  0.00    +0.000 A 
ATOM     15  N   UNL     1      -0.888  10.642  21.020  0.00  0.00    +0.000 NA
BRANCH  14  16
ATOM     16  C   UNL     1      -2.373  12.428  21.985  0.00  0.00    +0.000 C 
ATOM     17  C   UNL     1      -2.969  12.177  23.356  0.00  0.00    +0.000 C 
ATOM     18  C   UNL     1      -2.431  13.526  23.025  0.00  0.00    +0.000 C 
ENDBRANCH  14  16
ENDBRANCH   8  11
ENDBRANCH   2   5
BRANCH   1  20
ATOM     19  C   UNL     1       5.322   6.287  15.254  0.00  0.00    +0.000 C 
ATOM     20  C   UNL     1       4.947   5.634  16.582  0.00  0.00    +0.000 C 
BRANCH  20  21
ATOM     21  C   UNL     1       6.166   5.222  17.368  0.00  0.00    +0.000 A 
ATOM     22  N   UNL     1       7.087   4.356  16.900  0.00  0.00    +0.000 NA
ATOM     23  N   UNL     1       7.996   4.390  17.893  0.00  0.00    +0.000 N 
ATOM     24  C   UNL     1       7.602   5.215  18.907  0.00  0.00    +0.000 A 
ATOM     25  N   UNL     1       8.339   5.422  20.007  0.00  0.00    +0.000 N 
ATOM     26  N   UNL     1       6.447   5.746  18.608  0.00  0.00    +0.000 NA
ATOM     27  H   UNL     1       8.852   3.857  17.812  0.00  0.00    +0.000 HD
ATOM     28  H   UNL     1       9.084   4.803  20.301  0.00  0.00    +0.000 HD
ATOM     29  H   UNL     1       7.886   5.919  20.769  0.00  0.00    +0.000 HD
ENDBRANCH  20  21
ENDBRANCH   1  20
TORSDOF 5
ENDMDL
MODEL 2
REMARK VINA RESULT:      -8.1      1.189      1.420
REMARK  Name = 
REMARK  6 active torsions:
REMARK  status: ('A' for Active; 'I' for Inactive)
REMARK    1  A    between atoms: C_1  and  C_2
REMARK    2  A    between atoms: C_2  and  N_3
REMARK    3  A    between atoms: C_2  and  C_20
REMARK    4  A    between atoms: C_4  and  C_6
REMARK    5  A    between atoms: C_9  and  C_10
REMARK    6  A    between atoms: C_13  and  C_14
REMARK                            x       y       z     vdW  Elec       q    Type
REMARK                         _______ _______ _______ _____ _____    ______ ____
ROOT
ATOM      1  N   UNL     1       4.179   6.822  17.625  0.00  0.00    +0.000 N 
ATOM      2  C   UNL     1       3.209   6.538  18.553  0.00  0.00    +0.000 C 
ATOM      3  O   UNL     1       3.064   5.434  19.065  0.00  0.00    +0.000 OA
ATOM      4  H   UNL     1       4.207   7.707  17.139  0.00  0.00    +0.000 HD
ENDROOT
BRANCH   2   5
ATOM      5  C   UNL     1       2.284   7.658  18.885  0.00  0.00    +0.000 A 
ATOM      6  C   UNL     1       1.907   8.538  17.866  0.00  0.00    +0.000 A 
ATOM      7  C   UNL     1       1.073   9.626  18.149  0.00  0.00    +0.000 A 
ATOM      8  C   UNL     1       0.593   9.843  19.452  0.00  0.00    +0.000 A 
ATOM      9  C   UNL     1       0.955   8.940  20.460  0.00  0.00    +0.000 A 
ATOM     10  C   UNL     1       1.786   7.849  20.179  0.00  0.00    +0.000 A 
BRANCH   8  11
ATOM     11  C   UNL     1      -0.291  10.965  19.751  0.00  0.00    +0.000 A 
ATOM     12  N   UNL     1      -0.866  11.733  18.812  0.00  0.00    +0.000 NA
ATOM     13  O   UNL     1      -1.667  12.603  19.541  0.00  0.00    +0.000 OA
ATOM     14  C   UNL     1      -1.491  12.294  20.860  0.00  0.00    +0.000 A 
ATOM     15  N   UNL     1      -0.638  11.311  21.043  0.00  0.00    +0.000 NA
BRANCH  14  16
ATOM     16  C   UNL     1      -2.242  13.011  21.971  0.00  0.00    +0.000 C 
ATOM     17  C   UNL     1      -3.668  12.593  22.271  0.00  0.00    +0.000 C 
ATOM     18  C   UNL     1      -2.586  12.263  23.241  0.00  0.00    +0.000 C 
ENDBRANCH  14  16
ENDBRANCH   8  11
ENDBRANCH   2   5
BRANCH   1  20
ATOM     19  C   UNL     1       5.401   6.028  15.662  0.00  0.00    +0.000 C 
ATOM     20  C   UNL     1       5.142   5.838  17.153  0.00  0.00    +0.000 C 
BRANCH  20  21
ATOM     21  C   UNL     1       6.403   5.990  17.965  0.00  0.00    +0.000 A 
ATOM     22  N   UNL     1       7.275   7.004  17.790  0.00  0.00    +0.000 NA
ATOM     23  N   UNL     1       8.152   6.760  18.783  0.00  0.00    +0.000 N 
ATOM     24  C   UNL     1       7.820   5.634  19.481  0.00  0.00    +0.000 A 
ATOM     25  N   UNL     1       8.534   5.184  20.521  0.00  0.00    +0.000 N 
ATOM     26  N   UNL     1       6.728   5.123  18.981  0.00  0.00    +0.000 NA
ATOM     27  H   UNL     1       8.924   7.393  18.941  0.00  0.00    +0.000 HD
ATOM     28  H   UNL     1       9.491   5.463  20.700  0.00  0.00    +0.000 HD
ATOM     29  H   UNL     1       8.300   4.256  20.866  0.00  0.00    +0.000 HD
ENDBRANCH  20  21
ENDBRANCH   1  20
TORSDOF 5
ENDMDL
MODEL 3
REMARK VINA RESULT:      -8.0      2.365      3.002
REMARK  Name = 
REMARK  6 active torsions:
REMARK  status: ('A' for Active; 'I' for Inactive)
REMARK    1  A    between atoms: C_1  and  C_2
REMARK    2  A    between atoms: C_2  and  N_3
REMARK    3  A    between atoms: C_2  and  C_20
REMARK    4  A    between atoms: C_4  and  C_6
REMARK    5  A    between atoms: C_9  and  C_10
REMARK    6  A    between atoms: C_13  and  C_14
REMARK                            x       y       z     vdW  Elec       q    Type
REMARK                         _______ _______ _______ _____ _____    ______ ____
ROOT
ATOM      1  N   UNL     1       3.886   5.515  18.398  0.00  0.00    +0.000 N 
ATOM      2  C   UNL     1       3.070   5.813  19.461  0.00  0.00    +0.000 C 
ATOM      3  O   UNL     1       2.898   5.061  20.413  0.00  0.00    +0.000 OA
ATOM      4  H   UNL     1       3.925   6.101  17.577  0.00  0.00    +0.000 HD
ENDROOT
BRANCH   2   5
ATOM      5  C   UNL     1       2.348   7.113  19.376  0.00  0.00    +0.000 A 
ATOM      6  C   UNL     1       2.318   7.783  18.150  0.00  0.00    +0.000 A 
ATOM      7  C   UNL     1       1.685   9.027  18.043  0.00  0.00    +0.000 A 
ATOM      8  C   UNL     1       1.060   9.613  19.156  0.00  0.00    +0.000 A 
ATOM      9  C   UNL     1       1.073   8.920  20.375  0.00  0.00    +0.000 A 
ATOM     10  C   UNL     1       1.702   7.675  20.483  0.00  0.00    +0.000 A 
BRANCH   8  11
ATOM     11  C   UNL     1       0.383  10.901  19.048  0.00  0.00    +0.000 A 
ATOM     12  N   UNL     1      -0.934  11.071  19.244  0.00  0.00    +0.000 NA
ATOM     13  O   UNL     1      -1.112  12.443  19.120  0.00  0.00    +0.000 OA
ATOM     14  C   UNL     1       0.113  12.980  18.844  0.00  0.00    +0.000 A 
ATOM     15  N   UNL     1       1.060  12.072  18.766  0.00  0.00    +0.000 NA
BRANCH  14  16
ATOM     16  C   UNL     1       0.328  14.477  18.679  0.00  0.00    +0.000 C 
ATOM     17  C   UNL     1       0.608  15.310  19.915  0.00  0.00    +0.000 C 
ATOM     18  C   UNL     1       1.699  15.064  18.931  0.00  0.00    +0.000 C 
ENDBRANCH  14  16
ENDBRANCH   8  11
ENDBRANCH   2   5
BRANCH   1  20
ATOM     19  C   UNL     1       3.764   3.181  17.679  0.00  0.00    +0.000 C 
ATOM     20  C   UNL     1       4.636   4.272  18.294  0.00  0.00    +0.000 C 
BRANCH  20  21
ATOM     21  C   UNL     1       5.869   4.536  17.467  0.00  0.00    +0.000 A 
ATOM     22  N   UNL     1       7.122   4.393  17.943  0.00  0.00    +0.000 NA
ATOM     23  N   UNL     1       7.845   4.639  16.834  0.00  0.00    +0.000 N 
ATOM     24  C   UNL     1       7.046   4.945  15.770  0.00  0.00    +0.000 A 
ATOM     25  N   UNL     1       7.528   5.224  14.552  0.00  0.00    +0.000 N 
ATOM     26  N   UNL     1       5.795   4.896  16.142  0.00  0.00    +0.000 NA
ATOM     27  H   UNL     1       8.854   4.566  16.863  0.00  0.00    +0.000 HD
ATOM     28  H   UNL     1       8.489   5.496  14.384  0.00  0.00    +0.000 HD
ATOM     29  H   UNL     1       6.867   5.596  13.875  0.00  0.00    +0.000 HD
ENDBRANCH  20  21
ENDBRANCH   1  20
TORSDOF 5
ENDMDL
MODEL 4
REMARK VINA RESULT:      -8.0      0.933      1.418
REMARK  Name = 
REMARK  6 active torsions:
REMARK  status: ('A' for Active; 'I' for Inactive)
REMARK    1  A    between atoms: C_1  and  C_2
REMARK    2  A    between atoms: C_2  and  N_3
REMARK    3  A    between atoms: C_2  and  C_20
REMARK    4  A    between atoms: C_4  and  C_6
REMARK    5  A    between atoms: C_9  and  C_10
REMARK    6  A    between atoms: C_13  and  C_14
REMARK                            x       y       z     vdW  Elec       q    Type
REMARK                         _______ _______ _______ _____ _____    ______ ____
ROOT
ATOM      1  N   UNL     1       4.104   6.589  17.685  0.00  0.00    +0.000 N 
ATOM      2  C   UNL     1       2.850   6.257  18.133  0.00  0.00    +0.000 C 
ATOM      3  O   UNL     1       2.265   5.230  17.808  0.00  0.00    +0.000 OA
ATOM      4  H   UNL     1       4.517   7.491  17.880  0.00  0.00    +0.000 HD
ENDROOT
BRANCH   2   5
ATOM      5  C   UNL     1       2.195   7.257  19.022  0.00  0.00    +0.000 A 
ATOM      6  C   UNL     1       1.920   6.897  20.345  0.00  0.00    +0.000 A 
ATOM      7  C   UNL     1       1.269   7.795  21.198  0.00  0.00    +0.000 A 
ATOM      8  C   UNL     1       0.895   9.072  20.746  0.00  0.00    +0.000 A 
ATOM      9  C   UNL     1       1.199   9.432  19.426  0.00  0.00    +0.000 A 
ATOM     10  C   UNL     1       1.853   8.537  18.572  0.00  0.00    +0.000 A 
BRANCH   8  11
ATOM     11  C   UNL     1       0.230  10.020  21.634  0.00  0.00    +0.000 A 
ATOM     12  N   UNL     1       0.282   9.950  22.974  0.00  0.00    +0.000 NA
ATOM     13  O   UNL     1      -0.411  11.080  23.391  0.00  0.00    +0.000 OA
ATOM     14  C   UNL     1      -0.836  11.724  22.264  0.00  0.00    +0.000 A 
ATOM     15  N   UNL     1      -0.488  11.101  21.160  0.00  0.00    +0.000 NA
BRANCH  14  16
ATOM     16  C   UNL     1      -1.602  13.037  22.318  0.00  0.00    +0.000 C 
ATOM     17  C   UNL     1      -1.002  14.196  23.088  0.00  0.00    +0.000 C 
ATOM     18  C   UNL     1      -1.051  14.250  21.600  0.00  0.00    +0.000 C 
ENDBRANCH  14  16
ENDBRANCH   8  11
ENDBRANCH   2   5
BRANCH   1  20
ATOM     19  C   UNL     1       5.204   6.520  15.503  0.00  0.00    +0.000 C 
ATOM     20  C   UNL     1       4.874   5.750  16.779  0.00  0.00    +0.000 C 
BRANCH  20  21
ATOM     21  C   UNL     1       6.120   5.301  17.499  0.00  0.00    +0.000 A 
ATOM     22  N   UNL     1       7.026   4.464  16.956  0.00  0.00    +0.000 NA
ATOM     23  N   UNL     1       7.968   4.449  17.918  0.00  0.00    +0.000 N 
ATOM     24  C   UNL     1       7.608   5.219  18.986  0.00  0.00    +0.000 A 
ATOM     25  N   UNL     1       8.382   5.371  20.069  0.00  0.00    +0.000 N 
ATOM     26  N   UNL     1       6.443   5.761  18.755  0.00  0.00    +0.000 NA
ATOM     27  H   UNL     1       8.822   3.924  17.780  0.00  0.00    +0.000 HD
ATOM     28  H   UNL     1       9.138   4.739  20.305  0.00  0.00    +0.000 HD
ATOM     29  H   UNL     1       7.955   5.826  20.872  0.00  0.00    +0.000 HD
ENDBRANCH  20  21
ENDBRANCH   1  20
TORSDOF 5
ENDMDL
MODEL 5
REMARK VINA RESULT:      -7.9      2.655      9.679
REMARK  Name = 
REMARK  6 active torsions:
REMARK  status: ('A' for Active; 'I' for Inactive)
REMARK    1  A    between atoms: C_1  and  C_2
REMARK    2  A    between atoms: C_2  and  N_3
REMARK    3  A    between atoms: C_2  and  C_20
REMARK    4  A    between atoms: C_4  and  C_6
REMARK    5  A    between atoms: C_9  and  C_10
REMARK    6  A    between atoms: C_13  and  C_14
REMARK                            x       y       z     vdW  Elec       q    Type
REMARK                         _______ _______ _______ _____ _____    ______ ____
ROOT
ATOM      1  N   UNL     1      -0.016  10.931  18.871  0.00  0.00    +0.000 N 
ATOM      2  C   UNL     1       0.725  10.258  19.809  0.00  0.00    +0.000 C 
ATOM      3  O   UNL     1       0.830  10.619  20.975  0.00  0.00    +0.000 OA
ATOM      4  H   UNL     1       0.002  10.674  17.894  0.00  0.00    +0.000 HD
ENDROOT
BRANCH   2   5
ATOM      5  C   UNL     1       1.453   9.055  19.317  0.00  0.00    +0.000 A 
ATOM      6  C   UNL     1       1.891   9.035  17.989  0.00  0.00    +0.000 A 
ATOM      7  C   UNL     1       2.541   7.906  17.479  0.00  0.00    +0.000 A 
ATOM      8  C   UNL     1       2.777   6.785  18.293  0.00  0.00    +0.000 A 
ATOM      9  C   UNL     1       2.358   6.825  19.630  0.00  0.00    +0.000 A 
ATOM     10  C   UNL     1       1.710   7.955  20.142  0.00  0.00    +0.000 A 
BRANCH   8  11
ATOM     11  C   UNL     1       3.470   5.610  17.773  0.00  0.00    +0.000 A 
ATOM     12  N   UNL     1       3.002   4.357  17.887  0.00  0.00    +0.000 NA
ATOM     13  O   UNL     1       3.931   3.593  17.190  0.00  0.00    +0.000 OA
ATOM     14  C   UNL     1       4.888   4.453  16.731  0.00  0.00    +0.000 A 
ATOM     15  N   UNL     1       4.663   5.699  17.082  0.00  0.00    +0.000 NA
BRANCH  14  16
ATOM     16  C   UNL     1       6.059   3.987  15.880  0.00  0.00    +0.000 C 
ATOM     17  C   UNL     1       5.945   4.084  14.372  0.00  0.00    +0.000 C 
ATOM     18  C   UNL     1       6.864   5.004  15.100  0.00  0.00    +0.000 C 
ENDBRANCH  14  16
ENDBRANCH   8  11
ENDBRANCH   2   5
BRANCH   1  20
ATOM     19  C   UNL     1      -0.111  13.341  18.470  0.00  0.00    +0.000 C 
ATOM     20  C   UNL     1      -0.759  12.147  19.166  0.00  0.00    +0.000 C 
BRANCH  20  21
ATOM     21  C   UNL     1      -2.185  11.945  18.720  0.00  0.00    +0.000 A 
ATOM     22  N   UNL     1      -3.250  12.299  19.467  0.00  0.00    +0.000 NA
ATOM     23  N   UNL     1      -4.260  12.018  18.622  0.00  0.00    +0.000 N 
ATOM     24  C   UNL     1      -3.801  11.493  17.448  0.00  0.00    +0.000 A 
ATOM     25  N   UNL     1      -4.611  11.136  16.443  0.00  0.00    +0.000 N 
ATOM     26  N   UNL     1      -2.498  11.426  17.485  0.00  0.00    +0.000 NA
ATOM     27  H   UNL     1      -5.214  12.220  18.890  0.00  0.00    +0.000 HD
ATOM     28  H   UNL     1      -5.603  10.969  16.561  0.00  0.00    +0.000 HD
ATOM     29  H   UNL     1      -4.189  10.607  15.684  0.00  0.00    +0.000 HD
ENDBRANCH  20  21
ENDBRANCH   1  20
TORSDOF 5
ENDMDL
MODEL 6
REMARK VINA RESULT:      -7.9      2.310      3.046
REMARK  Name = 
REMARK  6 active torsions:
REMARK  status: ('A' for Active; 'I' for Inactive)
REMARK    1  A    between atoms: C_1  and  C_2
REMARK    2  A    between atoms: C_2  and  N_3
REMARK    3  A    between atoms: C_2  and  C_20
REMARK    4  A    between atoms: C_4  and  C_6
REMARK    5  A    between atoms: C_9  and  C_10
REMARK    6  A    between atoms: C_13  and  C_14
REMARK                            x       y       z     vdW  Elec       q    Type
REMARK                         _______ _______ _______ _____ _____    ______ ____
ROOT
ATOM      1  N   UNL     1       3.791   5.603  18.223  0.00  0.00    +0.000 N 
ATOM      2  C   UNL     1       3.051   5.961  19.322  0.00  0.00    +0.000 C 
ATOM      3  O   UNL     1       2.932   5.254  20.316  0.00  0.00    +0.000 OA
ATOM      4  H   UNL     1       3.784   6.153  17.375  0.00  0.00    +0.000 HD
ENDROOT
BRANCH   2   5
ATOM      5  C   UNL     1       2.343   7.268  19.228  0.00  0.00    +0.000 A 
ATOM      6  C   UNL     1       1.735   7.783  20.377  0.00  0.00    +0.000 A 
ATOM      7  C   UNL     1       1.025   8.988  20.316  0.00  0.00    +0.000 A 
ATOM      8  C   UNL     1       0.925   9.703  19.111  0.00  0.00    +0.000 A 
ATOM      9  C   UNL     1       1.561   9.191  17.972  0.00  0.00    +0.000 A 
ATOM     10  C   UNL     1       2.274   7.988  18.030  0.00  0.00    +0.000 A 
BRANCH   8  11
ATOM     11  C   UNL     1       0.201  10.968  19.044  0.00  0.00    +0.000 A 
ATOM     12  N   UNL     1      -1.091  11.108  19.381  0.00  0.00    +0.000 NA
ATOM     13  O   UNL     1      -1.325  12.470  19.241  0.00  0.00    +0.000 OA
ATOM     14  C   UNL     1      -0.155  13.032  18.815  0.00  0.00    +0.000 A 
ATOM     15  N   UNL     1       0.805  12.149  18.656  0.00  0.00    +0.000 NA
BRANCH  14  16
ATOM     16  C   UNL     1      -0.006  14.528  18.588  0.00  0.00    +0.000 C 
ATOM     17  C   UNL     1      -0.229  15.466  19.758  0.00  0.00    +0.000 C 
ATOM     18  C   UNL     1       1.149  15.268  19.227  0.00  0.00    +0.000 C 
ENDBRANCH  14  16
ENDBRANCH   8  11
ENDBRANCH   2   5
BRANCH   1  20
ATOM     19  C   UNL     1       3.645   3.289  17.450  0.00  0.00    +0.000 C 
ATOM     20  C   UNL     1       4.515   4.345  18.125  0.00  0.00    +0.000 C 
BRANCH  20  21
ATOM     21  C   UNL     1       5.789   4.595  17.358  0.00  0.00    +0.000 A 
ATOM     22  N   UNL     1       7.015   4.351  17.862  0.00  0.00    +0.000 NA
ATOM     23  N   UNL     1       7.789   4.632  16.797  0.00  0.00    +0.000 N 
ATOM     24  C   UNL     1       7.046   5.052  15.732  0.00  0.00    +0.000 A 
ATOM     25  N   UNL     1       7.586   5.386  14.552  0.00  0.00    +0.000 N 
ATOM     26  N   UNL     1       5.782   5.049  16.059  0.00  0.00    +0.000 NA
ATOM     27  H   UNL     1       8.791   4.500  16.852  0.00  0.00    +0.000 HD
ATOM     28  H   UNL     1       8.565   5.615  14.434  0.00  0.00    +0.000 HD
ATOM     29  H   UNL     1       6.969   5.840  13.882  0.00  0.00    +0.000 HD
ENDBRANCH  20  21
ENDBRANCH   1  20
TORSDOF 5
ENDMDL
MODEL 7
REMARK VINA RESULT:      -7.9      1.656      2.358
REMARK  Name = 
REMARK  6 active torsions:
REMARK  status: ('A' for Active; 'I' for Inactive)
REMARK    1  A    between atoms: C_1  and  C_2
REMARK    2  A    between atoms: C_2  and  N_3
REMARK    3  A    between atoms: C_2  and  C_20
REMARK    4  A    between atoms: C_4  and  C_6
REMARK    5  A    between atoms: C_9  and  C_10
REMARK    6  A    between atoms: C_13  and  C_14
REMARK                            x       y       z     vdW  Elec       q    Type
REMARK                         _______ _______ _______ _____ _____    ______ ____
ROOT
ATOM      1  N   UNL     1       3.701   5.523  18.458  0.00  0.00    +0.000 N 
ATOM      2  C   UNL     1       2.948   5.813  19.568  0.00  0.00    +0.000 C 
ATOM      3  O   UNL     1       2.793   5.035  20.503  0.00  0.00    +0.000 OA
ATOM      4  H   UNL     1       3.723   6.136  17.655  0.00  0.00    +0.000 HD
ENDROOT
BRANCH   2   5
ATOM      5  C   UNL     1       2.272   7.140  19.562  0.00  0.00    +0.000 A 
ATOM      6  C   UNL     1       1.635   7.572  20.730  0.00  0.00    +0.000 A 
ATOM      7  C   UNL     1       0.953   8.794  20.749  0.00  0.00    +0.000 A 
ATOM      8  C   UNL     1       0.910   9.610  19.606  0.00  0.00    +0.000 A 
ATOM      9  C   UNL     1       1.575   9.181  18.449  0.00  0.00    +0.000 A 
ATOM     10  C   UNL     1       2.259   7.960  18.428  0.00  0.00    +0.000 A 
BRANCH   8  11
ATOM     11  C   UNL     1       0.216  10.894  19.623  0.00  0.00    +0.000 A 
ATOM     12  N   UNL     1       0.312  11.808  18.644  0.00  0.00    +0.000 NA
ATOM     13  O   UNL     1      -0.563  12.811  19.041  0.00  0.00    +0.000 OA
ATOM     14  C   UNL     1      -1.099  12.421  20.236  0.00  0.00    +0.000 A 
ATOM     15  N   UNL     1      -0.635  11.262  20.647  0.00  0.00    +0.000 NA
BRANCH  14  16
ATOM     16  C   UNL     1      -2.142  13.250  20.969  0.00  0.00    +0.000 C 
ATOM     17  C   UNL     1      -3.608  12.974  20.701  0.00  0.00    +0.000 C 
ATOM     18  C   UNL     1      -3.016  12.592  22.014  0.00  0.00    +0.000 C 
ENDBRANCH  14  16
ENDBRANCH   8  11
ENDBRANCH   2   5
BRANCH   1  20
ATOM     19  C   UNL     1       3.518   3.278  17.508  0.00  0.00    +0.000 C 
ATOM     20  C   UNL     1       4.399   4.259  18.277  0.00  0.00    +0.000 C 
BRANCH  20  21
ATOM     21  C   UNL     1       5.691   4.536  17.553  0.00  0.00    +0.000 A 
ATOM     22  N   UNL     1       6.904   4.400  18.128  0.00  0.00    +0.000 NA
ATOM     23  N   UNL     1       7.712   4.658  17.082  0.00  0.00    +0.000 N 
ATOM     24  C   UNL     1       6.999   4.963  15.958  0.00  0.00    +0.000 A 
ATOM     25  N   UNL     1       7.576   5.252  14.785  0.00  0.00    +0.000 N 
ATOM     26  N   UNL     1       5.723   4.904  16.228  0.00  0.00    +0.000 NA
ATOM     27  H   UNL     1       8.715   4.592  17.192  0.00  0.00    +0.000 HD
ATOM     28  H   UNL     1       8.545   5.532  14.696  0.00  0.00    +0.000 HD
ATOM     29  H   UNL     1       6.968   5.624  14.059  0.00  0.00    +0.000 HD
ENDBRANCH  20  21
ENDBRANCH   1  20
TORSDOF 5
ENDMDL
MODEL 8
REMARK VINA RESULT:      -7.9      3.287      9.556
REMARK  Name = 
REMARK  6 active torsions:
REMARK  status: ('A' for Active; 'I' for Inactive)
REMARK    1  A    between atoms: C_1  and  C_2
REMARK    2  A    between atoms: C_2  and  N_3
REMARK    3  A    between atoms: C_2  and  C_20
REMARK    4  A    between atoms: C_4  and  C_6
REMARK    5  A    between atoms: C_9  and  C_10
REMARK    6  A    between atoms: C_13  and  C_14
REMARK                            x       y       z     vdW  Elec       q    Type
REMARK                         _______ _______ _______ _____ _____    ______ ____
ROOT
ATOM      1  N   UNL     1      -0.550  10.440  18.260  0.00  0.00    +0.000 N 
ATOM      2  C   UNL     1       0.252  10.085  19.315  0.00  0.00    +0.000 C 
ATOM      3  O   UNL     1       0.198  10.622  20.416  0.00  0.00    +0.000 OA
ATOM      4  H   UNL     1      -0.411  10.059  17.334  0.00  0.00    +0.000 HD
ENDROOT
BRANCH   2   5
ATOM      5  C   UNL     1       1.250   9.016  19.038  0.00  0.00    +0.000 A 
ATOM      6  C   UNL     1       1.903   9.015  17.801  0.00  0.00    +0.000 A 
ATOM      7  C   UNL     1       2.817   8.002  17.489  0.00  0.00    +0.000 A 
ATOM      8  C   UNL     1       3.103   6.982  18.413  0.00  0.00    +0.000 A 
ATOM      9  C   UNL     1       2.463   7.007  19.660  0.00  0.00    +0.000 A 
ATOM     10  C   UNL     1       1.551   8.021  19.976  0.00  0.00    +0.000 A 
BRANCH   8  11
ATOM     11  C   UNL     1       4.067   5.932  18.101  0.00  0.00    +0.000 A 
ATOM     12  N   UNL     1       4.515   5.039  18.998  0.00  0.00    +0.000 NA
ATOM     13  O   UNL     1       5.334   4.202  18.251  0.00  0.00    +0.000 OA
ATOM     14  C   UNL     1       5.322   4.674  16.970  0.00  0.00    +0.000 A 
ATOM     15  N   UNL     1       4.578   5.749  16.831  0.00  0.00    +0.000 NA
BRANCH  14  16
ATOM     16  C   UNL     1       6.077   3.988  15.842  0.00  0.00    +0.000 C 
ATOM     17  C   UNL     1       5.647   4.255  14.413  0.00  0.00    +0.000 C 
ATOM     18  C   UNL     1       6.936   4.814  14.910  0.00  0.00    +0.000 C 
ENDBRANCH  14  16
ENDBRANCH   8  11
ENDBRANCH   2   5
BRANCH   1  20
ATOM     19  C   UNL     1      -0.904  12.855  18.118  0.00  0.00    +0.000 C 
ATOM     20  C   UNL     1      -1.553  11.492  18.339  0.00  0.00    +0.000 C 
BRANCH  20  21
ATOM     21  C   UNL     1      -2.616  11.205  17.310  0.00  0.00    +0.000 A 
ATOM     22  N   UNL     1      -3.902  11.587  17.450  0.00  0.00    +0.000 NA
ATOM     23  N   UNL     1      -4.413  11.199  16.266  0.00  0.00    +0.000 N 
ATOM     24  C   UNL     1      -3.473  10.589  15.488  0.00  0.00    +0.000 A 
ATOM     25  N   UNL     1      -3.734  10.119  14.261  0.00  0.00    +0.000 N 
ATOM     26  N   UNL     1      -2.332  10.570  16.124  0.00  0.00    +0.000 NA
ATOM     27  H   UNL     1      -5.382  11.393  16.048  0.00  0.00    +0.000 HD
ATOM     28  H   UNL     1      -4.671   9.930  13.926  0.00  0.00    +0.000 HD
ATOM     29  H   UNL     1      -3.016   9.540  13.833  0.00  0.00    +0.000 HD
ENDBRANCH  20  21
ENDBRANCH   1  20
TORSDOF 5
ENDMDL
MODEL 9
REMARK VINA RESULT:      -7.8      2.782      9.681
REMARK  Name = 
REMARK  6 active torsions:
REMARK  status: ('A' for Active; 'I' for Inactive)
REMARK    1  A    between atoms: C_1  and  C_2
REMARK    2  A    between atoms: C_2  and  N_3
REMARK    3  A    between atoms: C_2  and  C_20
REMARK    4  A    between atoms: C_4  and  C_6
REMARK    5  A    between atoms: C_9  and  C_10
REMARK    6  A    between atoms: C_13  and  C_14
REMARK                            x       y       z     vdW  Elec       q    Type
REMARK                         _______ _______ _______ _____ _____    ______ ____
ROOT
ATOM      1  N   UNL     1       1.528   8.321  20.084  0.00  0.00    +0.000 N 
ATOM      2  C   UNL     1       1.927   7.009  20.073  0.00  0.00    +0.000 C 
ATOM      3  O   UNL     1       1.570   6.185  20.907  0.00  0.00    +0.000 OA
ATOM      4  H   UNL     1       1.923   9.003  19.451  0.00  0.00    +0.000 HD
ENDROOT
BRANCH   2   5
ATOM      5  C   UNL     1       2.880   6.632  18.991  0.00  0.00    +0.000 A 
ATOM      6  C   UNL     1       3.468   5.364  19.029  0.00  0.00    +0.000 A 
ATOM      7  C   UNL     1       4.399   4.991  18.053  0.00  0.00    +0.000 A 
ATOM      8  C   UNL     1       4.746   5.874  17.016  0.00  0.00    +0.000 A 
ATOM      9  C   UNL     1       4.131   7.133  16.973  0.00  0.00    +0.000 A 
ATOM     10  C   UNL     1       3.197   7.507  17.945  0.00  0.00    +0.000 A 
BRANCH   8  11
ATOM     11  C   UNL     1       5.704   5.486  15.986  0.00  0.00    +0.000 A 
ATOM     12  N   UNL     1       6.963   5.948  15.924  0.00  0.00    +0.000 NA
ATOM     13  O   UNL     1       7.516   5.258  14.853  0.00  0.00    +0.000 OA
ATOM     14  C   UNL     1       6.536   4.451  14.351  0.00  0.00    +0.000 A 
ATOM     15  N   UNL     1       5.397   4.572  14.996  0.00  0.00    +0.000 NA
BRANCH  14  16
ATOM     16  C   UNL     1       6.778   3.504  13.185  0.00  0.00    +0.000 C 
ATOM     17  C   UNL     1       5.724   3.402  12.101  0.00  0.00    +0.000 C 
ATOM     18  C   UNL     1       7.022   4.071  11.803  0.00  0.00    +0.000 C 
ENDBRANCH  14  16
ENDBRANCH   8  11
ENDBRANCH   2   5
BRANCH   1  20
ATOM     19  C   UNL     1       1.419   9.254  22.342  0.00  0.00    +0.000 C 
ATOM     20  C   UNL     1       0.633   8.873  21.091  0.00  0.00    +0.000 C 
BRANCH  20  21
ATOM     21  C   UNL     1      -0.073  10.062  20.489  0.00  0.00    +0.000 A 
ATOM     22  N   UNL     1      -0.729  10.981  21.226  0.00  0.00    +0.000 NA
ATOM     23  N   UNL     1      -1.089  11.862  20.273  0.00  0.00    +0.000 N 
ATOM     24  C   UNL     1      -0.687  11.454  19.034  0.00  0.00    +0.000 A 
ATOM     25  N   UNL     1      -0.920  12.162  17.921  0.00  0.00    +0.000 N 
ATOM     26  N   UNL     1      -0.052  10.317  19.138  0.00  0.00    +0.000 NA
ATOM     27  H   UNL     1      -1.577  12.710  20.528  0.00  0.00    +0.000 HD
ATOM     28  H   UNL     1      -1.624  12.888  17.862  0.00  0.00    +0.000 HD
ATOM     29  H   UNL     1      -0.727  11.697  17.037  0.00  0.00    +0.000 HD
ENDBRANCH  20  21
ENDBRANCH   1  20
TORSDOF 5
ENDMDL
