MODEL 1
REMARK VINA RESULT:      -7.0      0.000      0.000
REMARK  Name = 
REMARK  12 active torsions:
REMARK  status: ('A' for Active; 'I' for Inactive)
REMARK    1  A    between atoms: C_1  and  C_2
REMARK    2  A    between atoms: C_2  and  N_3
REMARK    3  A    between atoms: N_3  and  C_28
REMARK    4  A    between atoms: C_4  and  C_6
REMARK    5  A    between atoms: C_6  and  O_8
REMARK    6  A    between atoms: O_8  and  C_9
REMARK    7  A    between atoms: C_10  and  C_11
REMARK    8  A    between atoms: C_12  and  C_13
REMARK    9  A    between atoms: C_15  and  C_16
REMARK   10  A    between atoms: C_18  and  C_19
REMARK   11  A    between atoms: C_31  and  C_32
REMARK   12  A    between atoms: C_34  and  C_35
REMARK                            x       y       z     vdW  Elec       q    Type
REMARK                         _______ _______ _______ _____ _____    ______ ____
ROOT
ATOM      1  C   UNL     1      -4.448  12.807  20.997  0.00  0.00    +0.000 C 
ATOM      2  C   UNL     1      -4.746  13.826  21.828  0.00  0.00    +0.000 C 
ATOM      3  C   UNL     1      -6.117  14.220  21.407  0.00  0.00    +0.000 C 
ATOM      4  O   UNL     1      -6.742  15.199  21.770  0.00  0.00    +0.000 OA
ATOM      5  O   UNL     1      -6.606  13.326  20.506  0.00  0.00    +0.000 OA
ATOM      6  C   UNL     1      -5.539  12.495  20.032  0.00  0.00    +0.000 C 
ATOM      7  C   UNL     1      -5.302  12.879  18.564  0.00  0.00    +0.000 C 
ATOM      8  C   UNL     1      -6.277  12.010  17.748  0.00  0.00    +0.000 C 
ATOM      9  C   UNL     1      -6.971  11.074  18.731  0.00  0.00    +0.000 C 
ATOM     10  C   UNL     1      -6.053  11.063  19.939  0.00  0.00    +0.000 C 
ENDROOT
BRANCH   2  11
ATOM     11  C   UNL     1      -3.943  14.480  22.913  0.00  0.00    +0.000 A 
ATOM     12  C   UNL     1      -3.748  13.872  24.189  0.00  0.00    +0.000 A 
ATOM     13  C   UNL     1      -4.262  12.520  24.613  0.00  0.00    +0.000 C 
ATOM     14  C   UNL     1      -3.027  14.541  25.208  0.00  0.00    +0.000 A 
ATOM     15  C   UNL     1      -2.398  15.757  24.987  0.00  0.00    +0.000 A 
ATOM     16  C   UNL     1      -1.552  16.400  26.043  0.00  0.00    +0.000 C 
ATOM     17  C   UNL     1      -2.545  16.348  23.740  0.00  0.00    +0.000 A 
ATOM     18  C   UNL     1      -3.331  15.760  22.719  0.00  0.00    +0.000 A 
ATOM     19  C   UNL     1      -3.420  16.585  21.455  0.00  0.00    +0.000 C 
ENDBRANCH   2  11
BRANCH   1  20
ATOM     20  O   UNL     1      -3.174  12.200  20.918  0.00  0.00    +0.000 OA
BRANCH  20  21
ATOM     21  C   UNL     1      -2.159  12.753  20.221  0.00  0.00    +0.000 C 
ATOM     22  O   UNL     1      -1.904  13.926  20.016  0.00  0.00    +0.000 OA
BRANCH  21  24
ATOM     23  N   UNL     1       0.015  11.565  19.980  0.00  0.00    +0.000 N 
ATOM     24  C   UNL     1      -1.329  11.664  19.580  0.00  0.00    +0.000 C 
ATOM     25  O   UNL     1      -1.929  10.902  18.831  0.00  0.00    +0.000 OA
BRANCH  23  26
ATOM     26  C   UNL     1       0.712  10.340  19.696  0.00  0.00    +0.000 A 
ATOM     27  C   UNL     1       1.309  10.226  18.427  0.00  0.00    +0.000 A 
ATOM     28  C   UNL     1       1.976   9.067  18.035  0.00  0.00    +0.000 A 
ATOM     29  C   UNL     1       2.086   7.998  18.920  0.00  0.00    +0.000 A 
ATOM     30  C   UNL     1       2.815   6.750  18.519  0.00  0.00    +0.000 C 
ATOM     31  C   UNL     1       1.507   8.105  20.191  0.00  0.00    +0.000 A 
ATOM     32  C   UNL     1       0.796   9.257  20.591  0.00  0.00    +0.000 A 
ATOM     33  C   UNL     1       0.122   9.235  21.936  0.00  0.00    +0.000 C 
ENDBRANCH  23  26
BRANCH  23  35
ATOM     34  C   UNL     1       1.933  13.371  20.156  0.00  0.00    +0.000 C 
ATOM     35  C   UNL     1       0.821  12.538  20.771  0.00  0.00    +0.000 C 
ENDBRANCH  23  35
ENDBRANCH  21  24
ENDBRANCH  20  21
ENDBRANCH   1  20
TORSDOF 6
ENDMDL
MODEL 2
REMARK VINA RESULT:      -7.0      4.491      8.668
REMARK  Name = 
REMARK  12 active torsions:
REMARK  status: ('A' for Active; 'I' for Inactive)
REMARK    1  A    between atoms: C_1  and  C_2
REMARK    2  A    between atoms: C_2  and  N_3
REMARK    3  A    between atoms: N_3  and  C_28
REMARK    4  A    between atoms: C_4  and  C_6
REMARK    5  A    between atoms: C_6  and  O_8
REMARK    6  A    between atoms: O_8  and  C_9
REMARK    7  A    between atoms: C_10  and  C_11
REMARK    8  A    between atoms: C_12  and  C_13
REMARK    9  A    between atoms: C_15  and  C_16
REMARK   10  A    between atoms: C_18  and  C_19
REMARK   11  A    between atoms: C_31  and  C_32
REMARK   12  A    between atoms: C_34  and  C_35
REMARK                            x       y       z     vdW  Elec       q    Type
REMARK                         _______ _______ _______ _____ _____    ______ ____
ROOT
ATOM      1  C   UNL     1       3.901  15.520  19.522  0.00  0.00    +0.000 C 
ATOM      2  C   UNL     1       5.141  15.907  19.882  0.00  0.00    +0.000 C 
ATOM      3  C   UNL     1       5.085  17.388  19.762  0.00  0.00    +0.000 C 
ATOM      4  O   UNL     1       6.018  18.166  19.837  0.00  0.00    +0.000 OA
ATOM      5  O   UNL     1       3.806  17.791  19.524  0.00  0.00    +0.000 OA
ATOM      6  C   UNL     1       3.010  16.658  19.159  0.00  0.00    +0.000 C 
ATOM      7  C   UNL     1       2.664  16.825  17.672  0.00  0.00    +0.000 C 
ATOM      8  C   UNL     1       1.381  17.676  17.641  0.00  0.00    +0.000 C 
ATOM      9  C   UNL     1       0.951  17.890  19.088  0.00  0.00    +0.000 C 
ATOM     10  C   UNL     1       1.656  16.783  19.849  0.00  0.00    +0.000 C 
ENDROOT
BRANCH   2  11
ATOM     11  C   UNL     1       6.344  15.109  20.287  0.00  0.00    +0.000 A 
ATOM     12  C   UNL     1       7.395  14.798  19.374  0.00  0.00    +0.000 A 
ATOM     13  C   UNL     1       7.477  15.238  17.934  0.00  0.00    +0.000 C 
ATOM     14  C   UNL     1       8.492  13.998  19.777  0.00  0.00    +0.000 A 
ATOM     15  C   UNL     1       8.648  13.568  21.086  0.00  0.00    +0.000 A 
ATOM     16  C   UNL     1       9.867  12.812  21.519  0.00  0.00    +0.000 C 
ATOM     17  C   UNL     1       7.653  13.891  21.999  0.00  0.00    +0.000 A 
ATOM     18  C   UNL     1       6.494  14.612  21.621  0.00  0.00    +0.000 A 
ATOM     19  C   UNL     1       5.499  14.812  22.742  0.00  0.00    +0.000 C 
ENDBRANCH   2  11
BRANCH   1  20
ATOM     20  O   UNL     1       3.518  14.173  19.337  0.00  0.00    +0.000 OA
BRANCH  20  21
ATOM     21  C   UNL     1       2.562  13.590  20.090  0.00  0.00    +0.000 C 
ATOM     22  O   UNL     1       2.428  13.571  21.300  0.00  0.00    +0.000 OA
BRANCH  21  24
ATOM     23  N   UNL     1       0.757  11.894  19.833  0.00  0.00    +0.000 N 
ATOM     24  C   UNL     1       1.620  12.808  19.203  0.00  0.00    +0.000 C 
ATOM     25  O   UNL     1       1.630  13.107  18.014  0.00  0.00    +0.000 OA
BRANCH  23  26
ATOM     26  C   UNL     1      -0.386  11.429  19.094  0.00  0.00    +0.000 A 
ATOM     27  C   UNL     1      -1.603  12.101  19.314  0.00  0.00    +0.000 A 
ATOM     28  C   UNL     1      -2.778  11.707  18.678  0.00  0.00    +0.000 A 
ATOM     29  C   UNL     1      -2.758  10.643  17.781  0.00  0.00    +0.000 A 
ATOM     30  C   UNL     1      -4.012  10.218  17.076  0.00  0.00    +0.000 C 
ATOM     31  C   UNL     1      -1.550   9.975  17.544  0.00  0.00    +0.000 A 
ATOM     32  C   UNL     1      -0.357  10.337  18.208  0.00  0.00    +0.000 A 
ATOM     33  C   UNL     1       0.865   9.493  17.965  0.00  0.00    +0.000 C 
ENDBRANCH  23  26
BRANCH  23  35
ATOM     34  C   UNL     1       0.867   9.919  21.581  0.00  0.00    +0.000 C 
ATOM     35  C   UNL     1       0.799  11.397  21.238  0.00  0.00    +0.000 C 
ENDBRANCH  23  35
ENDBRANCH  21  24
ENDBRANCH  20  21
ENDBRANCH   1  20
TORSDOF 6
ENDMDL
MODEL 3
REMARK VINA RESULT:      -7.0      0.131      1.494
REMARK  Name = 
REMARK  12 active torsions:
REMARK  status: ('A' for Active; 'I' for Inactive)
REMARK    1  A    between atoms: C_1  and  C_2
REMARK    2  A    between atoms: C_2  and  N_3
REMARK    3  A    between atoms: N_3  and  C_28
REMARK    4  A    between atoms: C_4  and  C_6
REMARK    5  A    between atoms: C_6  and  O_8
REMARK    6  A    between atoms: O_8  and  C_9
REMARK    7  A    between atoms: C_10  and  C_11
REMARK    8  A    between atoms: C_12  and  C_13
REMARK    9  A    between atoms: C_15  and  C_16
REMARK   10  A    between atoms: C_18  and  C_19
REMARK   11  A    between atoms: C_31  and  C_32
REMARK   12  A    between atoms: C_34  and  C_35
REMARK                            x       y       z     vdW  Elec       q    Type
REMARK                         _______ _______ _______ _____ _____    ______ ____
ROOT
ATOM      1  C   UNL     1      -4.525  12.847  21.054  0.00  0.00    +0.000 C 
ATOM      2  C   UNL     1      -4.807  13.873  21.883  0.00  0.00    +0.000 C 
ATOM      3  C   UNL     1      -6.189  14.258  21.491  0.00  0.00    +0.000 C 
ATOM      4  O   UNL     1      -6.810  15.237  21.860  0.00  0.00    +0.000 OA
ATOM      5  O   UNL     1      -6.696  13.352  20.610  0.00  0.00    +0.000 OA
ATOM      6  C   UNL     1      -5.637  12.522  20.118  0.00  0.00    +0.000 C 
ATOM      7  C   UNL     1      -5.438  12.893  18.642  0.00  0.00    +0.000 C 
ATOM      8  C   UNL     1      -6.428  12.012  17.858  0.00  0.00    +0.000 C 
ATOM      9  C   UNL     1      -7.095  11.082  18.866  0.00  0.00    +0.000 C 
ATOM     10  C   UNL     1      -6.148  11.087  20.052  0.00  0.00    +0.000 C 
ENDROOT
BRANCH   2  11
ATOM     11  C   UNL     1      -3.981  14.540  22.942  0.00  0.00    +0.000 A 
ATOM     12  C   UNL     1      -3.385  15.821  22.750  0.00  0.00    +0.000 A 
ATOM     13  C   UNL     1      -3.520  16.686  21.522  0.00  0.00    +0.000 C 
ATOM     14  C   UNL     1      -2.570  16.399  23.753  0.00  0.00    +0.000 A 
ATOM     15  C   UNL     1      -2.394  15.803  24.993  0.00  0.00    +0.000 A 
ATOM     16  C   UNL     1      -1.613  16.478  26.079  0.00  0.00    +0.000 C 
ATOM     17  C   UNL     1      -2.995  14.571  25.213  0.00  0.00    +0.000 A 
ATOM     18  C   UNL     1      -3.746  13.913  24.208  0.00  0.00    +0.000 A 
ATOM     19  C   UNL     1      -4.268  12.555  24.618  0.00  0.00    +0.000 C 
ENDBRANCH   2  11
BRANCH   1  20
ATOM     20  O   UNL     1      -3.251  12.245  20.950  0.00  0.00    +0.000 OA
BRANCH  20  21
ATOM     21  C   UNL     1      -2.242  12.817  20.261  0.00  0.00    +0.000 C 
ATOM     22  O   UNL     1      -2.000  13.995  20.069  0.00  0.00    +0.000 OA
BRANCH  21  24
ATOM     23  N   UNL     1      -0.058  11.643  20.028  0.00  0.00    +0.000 N 
ATOM     24  C   UNL     1      -1.397  11.746  19.610  0.00  0.00    +0.000 C 
ATOM     25  O   UNL     1      -1.982  10.997  18.835  0.00  0.00    +0.000 OA
BRANCH  23  26
ATOM     26  C   UNL     1       0.648  10.428  19.729  0.00  0.00    +0.000 A 
ATOM     27  C   UNL     1       1.228  10.326  18.451  0.00  0.00    +0.000 A 
ATOM     28  C   UNL     1       1.902   9.176  18.045  0.00  0.00    +0.000 A 
ATOM     29  C   UNL     1       2.037   8.105  18.923  0.00  0.00    +0.000 A 
ATOM     30  C   UNL     1       2.774   6.867  18.506  0.00  0.00    +0.000 C 
ATOM     31  C   UNL     1       1.475   8.199  20.202  0.00  0.00    +0.000 A 
ATOM     32  C   UNL     1       0.756   9.342  20.617  0.00  0.00    +0.000 A 
ATOM     33  C   UNL     1       0.102   9.306  21.971  0.00  0.00    +0.000 C 
ENDBRANCH  23  26
BRANCH  23  35
ATOM     34  C   UNL     1       2.082  13.139  20.413  0.00  0.00    +0.000 C 
ATOM     35  C   UNL     1       0.731  12.603  20.852  0.00  0.00    +0.000 C 
ENDBRANCH  23  35
ENDBRANCH  21  24
ENDBRANCH  20  21
ENDBRANCH   1  20
TORSDOF 6
ENDMDL
MODEL 4
REMARK VINA RESULT:      -6.9      4.427      8.622
REMARK  Name = 
REMARK  12 active torsions:
REMARK  status: ('A' for Active; 'I' for Inactive)
REMARK    1  A    between atoms: C_1  and  C_2
REMARK    2  A    between atoms: C_2  and  N_3
REMARK    3  A    between atoms: N_3  and  C_28
REMARK    4  A    between atoms: C_4  and  C_6
REMARK    5  A    between atoms: C_6  and  O_8
REMARK    6  A    between atoms: O_8  and  C_9
REMARK    7  A    between atoms: C_10  and  C_11
REMARK    8  A    between atoms: C_12  and  C_13
REMARK    9  A    between atoms: C_15  and  C_16
REMARK   10  A    between atoms: C_18  and  C_19
REMARK   11  A    between atoms: C_31  and  C_32
REMARK   12  A    between atoms: C_34  and  C_35
REMARK                            x       y       z     vdW  Elec       q    Type
REMARK                         _______ _______ _______ _____ _____    ______ ____
ROOT
ATOM      1  C   UNL     1       3.831  15.446  19.570  0.00  0.00    +0.000 C 
ATOM      2  C   UNL     1       5.074  15.828  19.925  0.00  0.00    +0.000 C 
ATOM      3  C   UNL     1       5.024  17.309  19.800  0.00  0.00    +0.000 C 
ATOM      4  O   UNL     1       5.961  18.083  19.871  0.00  0.00    +0.000 OA
ATOM      5  O   UNL     1       3.747  17.717  19.564  0.00  0.00    +0.000 OA
ATOM      6  C   UNL     1       2.945  16.586  19.204  0.00  0.00    +0.000 C 
ATOM      7  C   UNL     1       2.596  16.750  17.718  0.00  0.00    +0.000 C 
ATOM      8  C   UNL     1       1.317  17.606  17.686  0.00  0.00    +0.000 C 
ATOM      9  C   UNL     1       0.891  17.828  19.134  0.00  0.00    +0.000 C 
ATOM     10  C   UNL     1       1.593  16.720  19.897  0.00  0.00    +0.000 C 
ENDROOT
BRANCH   2  11
ATOM     11  C   UNL     1       6.274  15.026  20.330  0.00  0.00    +0.000 A 
ATOM     12  C   UNL     1       7.337  14.733  19.424  0.00  0.00    +0.000 A 
ATOM     13  C   UNL     1       7.434  15.198  17.993  0.00  0.00    +0.000 C 
ATOM     14  C   UNL     1       8.431  13.929  19.826  0.00  0.00    +0.000 A 
ATOM     15  C   UNL     1       8.573  13.477  21.129  0.00  0.00    +0.000 A 
ATOM     16  C   UNL     1       9.789  12.717  21.563  0.00  0.00    +0.000 C 
ATOM     17  C   UNL     1       7.567  13.782  22.036  0.00  0.00    +0.000 A 
ATOM     18  C   UNL     1       6.411  14.507  21.657  0.00  0.00    +0.000 A 
ATOM     19  C   UNL     1       5.402  14.685  22.770  0.00  0.00    +0.000 C 
ENDBRANCH   2  11
BRANCH   1  20
ATOM     20  O   UNL     1       3.442  14.099  19.389  0.00  0.00    +0.000 OA
BRANCH  20  21
ATOM     21  C   UNL     1       2.483  13.524  20.145  0.00  0.00    +0.000 C 
ATOM     22  O   UNL     1       2.420  13.390  21.354  0.00  0.00    +0.000 OA
BRANCH  21  24
ATOM     23  N   UNL     1       0.716  11.814  19.751  0.00  0.00    +0.000 N 
ATOM     24  C   UNL     1       1.422  12.923  19.251  0.00  0.00    +0.000 C 
ATOM     25  O   UNL     1       1.207  13.515  18.200  0.00  0.00    +0.000 OA
BRANCH  23  26
ATOM     26  C   UNL     1      -0.525  11.466  19.116  0.00  0.00    +0.000 A 
ATOM     27  C   UNL     1      -0.495  10.399  18.198  0.00  0.00    +0.000 A 
ATOM     28  C   UNL     1      -1.633  10.005  17.500  0.00  0.00    +0.000 A 
ATOM     29  C   UNL     1      -2.844  10.654  17.723  0.00  0.00    +0.000 A 
ATOM     30  C   UNL     1      -4.082  10.230  16.990  0.00  0.00    +0.000 C 
ATOM     31  C   UNL     1      -2.890  11.709  18.643  0.00  0.00    +0.000 A 
ATOM     32  C   UNL     1      -1.738  12.146  19.333  0.00  0.00    +0.000 A 
ATOM     33  C   UNL     1      -1.867  13.353  20.222  0.00  0.00    +0.000 C 
ENDBRANCH  23  26
BRANCH  23  35
ATOM     34  C   UNL     1      -0.028  10.583  21.965  0.00  0.00    +0.000 C 
ATOM     35  C   UNL     1       1.027  10.980  20.947  0.00  0.00    +0.000 C 
ENDBRANCH  23  35
ENDBRANCH  21  24
ENDBRANCH  20  21
ENDBRANCH   1  20
TORSDOF 6
ENDMDL
MODEL 5
REMARK VINA RESULT:      -6.8     10.547     13.638
REMARK  Name = 
REMARK  12 active torsions:
REMARK  status: ('A' for Active; 'I' for Inactive)
REMARK    1  A    between atoms: C_1  and  C_2
REMARK    2  A    between atoms: C_2  and  N_3
REMARK    3  A    between atoms: N_3  and  C_28
REMARK    4  A    between atoms: C_4  and  C_6
REMARK    5  A    between atoms: C_6  and  O_8
REMARK    6  A    between atoms: O_8  and  C_9
REMARK    7  A    between atoms: C_10  and  C_11
REMARK    8  A    between atoms: C_12  and  C_13
REMARK    9  A    between atoms: C_15  and  C_16
REMARK   10  A    between atoms: C_18  and  C_19
REMARK   11  A    between atoms: C_31  and  C_32
REMARK   12  A    between atoms: C_34  and  C_35
REMARK                            x       y       z     vdW  Elec       q    Type
REMARK                         _______ _______ _______ _____ _____    ______ ____
ROOT
ATOM      1  C   UNL     1       9.594  15.159  18.736  0.00  0.00    +0.000 C 
ATOM      2  C   UNL     1      10.198  14.005  18.388  0.00  0.00    +0.000 C 
ATOM      3  C   UNL     1      11.507  14.456  17.844  0.00  0.00    +0.000 C 
ATOM      4  O   UNL     1      12.333  13.776  17.264  0.00  0.00    +0.000 OA
ATOM      5  O   UNL     1      11.672  15.789  18.062  0.00  0.00    +0.000 OA
ATOM      6  C   UNL     1      10.420  16.366  18.450  0.00  0.00    +0.000 C 
ATOM      7  C   UNL     1       9.968  17.260  17.286  0.00  0.00    +0.000 C 
ATOM      8  C   UNL     1      10.623  18.630  17.540  0.00  0.00    +0.000 C 
ATOM      9  C   UNL     1      11.342  18.541  18.882  0.00  0.00    +0.000 C 
ATOM     10  C   UNL     1      10.681  17.363  19.574  0.00  0.00    +0.000 C 
ENDROOT
BRANCH   2  11
ATOM     11  C   UNL     1       9.728  12.584  18.469  0.00  0.00    +0.000 A 
ATOM     12  C   UNL     1       8.571  12.123  17.774  0.00  0.00    +0.000 A 
ATOM     13  C   UNL     1       7.701  12.947  16.858  0.00  0.00    +0.000 C 
ATOM     14  C   UNL     1       8.126  10.786  17.913  0.00  0.00    +0.000 A 
ATOM     15  C   UNL     1       8.840   9.845  18.640  0.00  0.00    +0.000 A 
ATOM     16  C   UNL     1       8.412   8.410  18.690  0.00  0.00    +0.000 C 
ATOM     17  C   UNL     1       9.990  10.264  19.294  0.00  0.00    +0.000 A 
ATOM     18  C   UNL     1      10.424  11.612  19.258  0.00  0.00    +0.000 A 
ATOM     19  C   UNL     1      11.661  11.885  20.083  0.00  0.00    +0.000 C 
ENDBRANCH   2  11
BRANCH   1  20
ATOM     20  O   UNL     1       8.252  15.248  19.167  0.00  0.00    +0.000 OA
BRANCH  20  21
ATOM     21  C   UNL     1       7.912  15.828  20.337  0.00  0.00    +0.000 C 
ATOM     22  O   UNL     1       7.914  17.004  20.653  0.00  0.00    +0.000 OA
BRANCH  21  24
ATOM     23  N   UNL     1       8.581  14.411  22.272  0.00  0.00    +0.000 N 
ATOM     24  C   UNL     1       7.574  14.762  21.355  0.00  0.00    +0.000 C 
ATOM     25  O   UNL     1       6.417  14.360  21.347  0.00  0.00    +0.000 OA
BRANCH  23  26
ATOM     26  C   UNL     1       8.189  13.706  23.462  0.00  0.00    +0.000 A 
ATOM     27  C   UNL     1       7.916  14.483  24.603  0.00  0.00    +0.000 A 
ATOM     28  C   UNL     1       7.566  13.898  25.817  0.00  0.00    +0.000 A 
ATOM     29  C   UNL     1       7.452  12.514  25.914  0.00  0.00    +0.000 A 
ATOM     30  C   UNL     1       7.060  11.871  27.210  0.00  0.00    +0.000 C 
ATOM     31  C   UNL     1       7.709  11.730  24.781  0.00  0.00    +0.000 A 
ATOM     32  C   UNL     1       8.102  12.304  23.552  0.00  0.00    +0.000 A 
ATOM     33  C   UNL     1       8.455  11.374  22.424  0.00  0.00    +0.000 C 
ENDBRANCH  23  26
BRANCH  23  35
ATOM     34  C   UNL     1      10.583  16.015  22.893  0.00  0.00    +0.000 C 
ATOM     35  C   UNL     1      10.030  14.762  22.238  0.00  0.00    +0.000 C 
ENDBRANCH  23  35
ENDBRANCH  21  24
ENDBRANCH  20  21
ENDBRANCH   1  20
TORSDOF 6
ENDMDL
MODEL 6
REMARK VINA RESULT:      -6.7      3.126      7.252
REMARK  Name = 
REMARK  12 active torsions:
REMARK  status: ('A' for Active; 'I' for Inactive)
REMARK    1  A    between atoms: C_1  and  C_2
REMARK    2  A    between atoms: C_2  and  N_3
REMARK    3  A    between atoms: N_3  and  C_28
REMARK    4  A    between atoms: C_4  and  C_6
REMARK    5  A    between atoms: C_6  and  O_8
REMARK    6  A    between atoms: O_8  and  C_9
REMARK    7  A    between atoms: C_10  and  C_11
REMARK    8  A    between atoms: C_12  and  C_13
REMARK    9  A    between atoms: C_15  and  C_16
REMARK   10  A    between atoms: C_18  and  C_19
REMARK   11  A    between atoms: C_31  and  C_32
REMARK   12  A    between atoms: C_34  and  C_35
REMARK                            x       y       z     vdW  Elec       q    Type
REMARK                         _______ _______ _______ _____ _____    ______ ____
ROOT
ATOM      1  C   UNL     1       2.284  15.233  19.639  0.00  0.00    +0.000 C 
ATOM      2  C   UNL     1       1.509  16.320  19.828  0.00  0.00    +0.000 C 
ATOM      3  C   UNL     1       2.453  17.451  19.626  0.00  0.00    +0.000 C 
ATOM      4  O   UNL     1       2.244  18.629  19.845  0.00  0.00    +0.000 OA
ATOM      5  O   UNL     1       3.647  16.988  19.165  0.00  0.00    +0.000 OA
ATOM      6  C   UNL     1       3.702  15.566  19.327  0.00  0.00    +0.000 C 
ATOM      7  C   UNL     1       4.741  15.288  20.423  0.00  0.00    +0.000 C 
ATOM      8  C   UNL     1       6.096  15.208  19.696  0.00  0.00    +0.000 C 
ATOM      9  C   UNL     1       5.810  15.329  18.203  0.00  0.00    +0.000 C 
ATOM     10  C   UNL     1       4.342  14.967  18.079  0.00  0.00    +0.000 C 
ENDROOT
BRANCH   2  11
ATOM     11  C   UNL     1       0.058  16.446  20.185  0.00  0.00    +0.000 A 
ATOM     12  C   UNL     1      -0.915  16.932  19.262  0.00  0.00    +0.000 A 
ATOM     13  C   UNL     1      -0.655  17.337  17.833  0.00  0.00    +0.000 C 
ATOM     14  C   UNL     1      -2.268  17.086  19.648  0.00  0.00    +0.000 A 
ATOM     15  C   UNL     1      -2.728  16.684  20.894  0.00  0.00    +0.000 A 
ATOM     16  C   UNL     1      -4.182  16.757  21.249  0.00  0.00    +0.000 C 
ATOM     17  C   UNL     1      -1.803  16.174  21.795  0.00  0.00    +0.000 A 
ATOM     18  C   UNL     1      -0.424  16.085  21.484  0.00  0.00    +0.000 A 
ATOM     19  C   UNL     1       0.431  15.563  22.616  0.00  0.00    +0.000 C 
ENDBRANCH   2  11
BRANCH   1  20
ATOM     20  O   UNL     1       1.855  13.907  19.877  0.00  0.00    +0.000 OA
BRANCH  20  21
ATOM     21  C   UNL     1       1.640  13.033  18.872  0.00  0.00    +0.000 C 
ATOM     22  O   UNL     1       2.440  12.411  18.197  0.00  0.00    +0.000 OA
BRANCH  21  24
ATOM     23  N   UNL     1      -0.576  11.964  19.253  0.00  0.00    +0.000 N 
ATOM     24  C   UNL     1       0.160  12.952  18.575  0.00  0.00    +0.000 C 
ATOM     25  O   UNL     1      -0.287  13.818  17.832  0.00  0.00    +0.000 OA
BRANCH  23  26
ATOM     26  C   UNL     1      -2.007  12.100  19.293  0.00  0.00    +0.000 A 
ATOM     27  C   UNL     1      -2.542  12.911  20.311  0.00  0.00    +0.000 A 
ATOM     28  C   UNL     1      -3.916  13.080  20.462  0.00  0.00    +0.000 A 
ATOM     29  C   UNL     1      -4.793  12.461  19.576  0.00  0.00    +0.000 A 
ATOM     30  C   UNL     1      -6.275  12.646  19.716  0.00  0.00    +0.000 C 
ATOM     31  C   UNL     1      -4.272  11.661  18.551  0.00  0.00    +0.000 A 
ATOM     32  C   UNL     1      -2.883  11.449  18.405  0.00  0.00    +0.000 A 
ATOM     33  C   UNL     1      -2.428  10.492  17.337  0.00  0.00    +0.000 C 
ENDBRANCH  23  26
BRANCH  23  35
ATOM     34  C   UNL     1      -0.013  10.824  21.567  0.00  0.00    +0.000 C 
ATOM     35  C   UNL     1      -0.066  10.811  20.049  0.00  0.00    +0.000 C 
ENDBRANCH  23  35
ENDBRANCH  21  24
ENDBRANCH  20  21
ENDBRANCH   1  20
TORSDOF 6
ENDMDL
MODEL 7
REMARK VINA RESULT:      -6.7      0.619      1.969
REMARK  Name = 
REMARK  12 active torsions:
REMARK  status: ('A' for Active; 'I' for Inactive)
REMARK    1  A    between atoms: C_1  and  C_2
REMARK    2  A    between atoms: C_2  and  N_3
REMARK    3  A    between atoms: N_3  and  C_28
REMARK    4  A    between atoms: C_4  and  C_6
REMARK    5  A    between atoms: C_6  and  O_8
REMARK    6  A    between atoms: O_8  and  C_9
REMARK    7  A    between atoms: C_10  and  C_11
REMARK    8  A    between atoms: C_12  and  C_13
REMARK    9  A    between atoms: C_15  and  C_16
REMARK   10  A    between atoms: C_18  and  C_19
REMARK   11  A    between atoms: C_31  and  C_32
REMARK   12  A    between atoms: C_34  and  C_35
REMARK                            x       y       z     vdW  Elec       q    Type
REMARK                         _______ _______ _______ _____ _____    ______ ____
ROOT
ATOM      1  C   UNL     1      -4.273  12.639  20.853  0.00  0.00    +0.000 C 
ATOM      2  C   UNL     1      -4.544  13.686  21.658  0.00  0.00    +0.000 C 
ATOM      3  C   UNL     1      -5.884  14.134  21.196  0.00  0.00    +0.000 C 
ATOM      4  O   UNL     1      -6.473  15.147  21.527  0.00  0.00    +0.000 OA
ATOM      5  O   UNL     1      -6.392  13.247  20.299  0.00  0.00    +0.000 OA
ATOM      6  C   UNL     1      -5.354  12.360  19.866  0.00  0.00    +0.000 C 
ATOM      7  C   UNL     1      -5.065  12.706  18.398  0.00  0.00    +0.000 C 
ATOM      8  C   UNL     1      -6.058  11.867  17.573  0.00  0.00    +0.000 C 
ATOM      9  C   UNL     1      -6.819  10.982  18.554  0.00  0.00    +0.000 C 
ATOM     10  C   UNL     1      -5.932  10.951  19.785  0.00  0.00    +0.000 C 
ENDROOT
BRANCH   2  11
ATOM     11  C   UNL     1      -3.738  14.321  22.752  0.00  0.00    +0.000 A 
ATOM     12  C   UNL     1      -2.964  15.500  22.541  0.00  0.00    +0.000 A 
ATOM     13  C   UNL     1      -2.870  16.280  21.254  0.00  0.00    +0.000 C 
ATOM     14  C   UNL     1      -2.175  16.045  23.583  0.00  0.00    +0.000 A 
ATOM     15  C   UNL     1      -2.194  15.526  24.869  0.00  0.00    +0.000 A 
ATOM     16  C   UNL     1      -1.435  16.178  25.984  0.00  0.00    +0.000 C 
ATOM     17  C   UNL     1      -2.971  14.400  25.104  0.00  0.00    +0.000 A 
ATOM     18  C   UNL     1      -3.706  13.767  24.072  0.00  0.00    +0.000 A 
ATOM     19  C   UNL     1      -4.438  12.520  24.511  0.00  0.00    +0.000 C 
ENDBRANCH   2  11
BRANCH   1  20
ATOM     20  O   UNL     1      -3.028  11.973  20.816  0.00  0.00    +0.000 OA
BRANCH  20  21
ATOM     21  C   UNL     1      -2.024  12.375  20.007  0.00  0.00    +0.000 C 
ATOM     22  O   UNL     1      -1.769  13.484  19.576  0.00  0.00    +0.000 OA
BRANCH  21  24
ATOM     23  N   UNL     1       0.052  11.011  20.169  0.00  0.00    +0.000 N 
ATOM     24  C   UNL     1      -1.210  11.177  19.573  0.00  0.00    +0.000 C 
ATOM     25  O   UNL     1      -1.764  10.403  18.801  0.00  0.00    +0.000 OA
BRANCH  23  26
ATOM     26  C   UNL     1       0.674   9.718  20.077  0.00  0.00    +0.000 A 
ATOM     27  C   UNL     1       0.467   8.833  21.151  0.00  0.00    +0.000 A 
ATOM     28  C   UNL     1       1.055   7.570  21.179  0.00  0.00    +0.000 A 
ATOM     29  C   UNL     1       1.846   7.149  20.115  0.00  0.00    +0.000 A 
ATOM     30  C   UNL     1       2.472   5.786  20.124  0.00  0.00    +0.000 C 
ATOM     31  C   UNL     1       2.049   8.017  19.034  0.00  0.00    +0.000 A 
ATOM     32  C   UNL     1       1.492   9.314  19.005  0.00  0.00    +0.000 A 
ATOM     33  C   UNL     1       1.853  10.207  17.850  0.00  0.00    +0.000 C 
ENDBRANCH  23  26
BRANCH  23  35
ATOM     34  C   UNL     1       1.686  13.073  20.387  0.00  0.00    +0.000 C 
ATOM     35  C   UNL     1       0.822  11.983  20.997  0.00  0.00    +0.000 C 
ENDBRANCH  23  35
ENDBRANCH  21  24
ENDBRANCH  20  21
ENDBRANCH   1  20
TORSDOF 6
ENDMDL
MODEL 8
REMARK VINA RESULT:      -6.7      4.503      8.685
REMARK  Name = 
REMARK  12 active torsions:
REMARK  status: ('A' for Active; 'I' for Inactive)
REMARK    1  A    between atoms: C_1  and  C_2
REMARK    2  A    between atoms: C_2  and  N_3
REMARK    3  A    between atoms: N_3  and  C_28
REMARK    4  A    between atoms: C_4  and  C_6
REMARK    5  A    between atoms: C_6  and  O_8
REMARK    6  A    between atoms: O_8  and  C_9
REMARK    7  A    between atoms: C_10  and  C_11
REMARK    8  A    between atoms: C_12  and  C_13
REMARK    9  A    between atoms: C_15  and  C_16
REMARK   10  A    between atoms: C_18  and  C_19
REMARK   11  A    between atoms: C_31  and  C_32
REMARK   12  A    between atoms: C_34  and  C_35
REMARK                            x       y       z     vdW  Elec       q    Type
REMARK                         _______ _______ _______ _____ _____    ______ ____
ROOT
ATOM      1  C   UNL     1       3.990  15.493  19.661  0.00  0.00    +0.000 C 
ATOM      2  C   UNL     1       5.273  15.828  19.904  0.00  0.00    +0.000 C 
ATOM      3  C   UNL     1       5.294  17.296  19.663  0.00  0.00    +0.000 C 
ATOM      4  O   UNL     1       6.273  18.016  19.611  0.00  0.00    +0.000 OA
ATOM      5  O   UNL     1       4.027  17.758  19.477  0.00  0.00    +0.000 OA
ATOM      6  C   UNL     1       3.143  16.652  19.262  0.00  0.00    +0.000 C 
ATOM      7  C   UNL     1       2.702  16.721  17.793  0.00  0.00    +0.000 C 
ATOM      8  C   UNL     1       1.471  17.646  17.774  0.00  0.00    +0.000 C 
ATOM      9  C   UNL     1       1.159  18.003  19.224  0.00  0.00    +0.000 C 
ATOM     10  C   UNL     1       1.851  16.918  20.027  0.00  0.00    +0.000 C 
ENDROOT
BRANCH   2  11
ATOM     11  C   UNL     1       6.453  14.990  20.295  0.00  0.00    +0.000 A 
ATOM     12  C   UNL     1       6.623  14.479  21.616  0.00  0.00    +0.000 A 
ATOM     13  C   UNL     1       5.663  14.660  22.765  0.00  0.00    +0.000 C 
ATOM     14  C   UNL     1       7.775  13.734  21.963  0.00  0.00    +0.000 A 
ATOM     15  C   UNL     1       8.734  13.382  21.025  0.00  0.00    +0.000 A 
ATOM     16  C   UNL     1       9.893  12.504  21.386  0.00  0.00    +0.000 C 
ATOM     17  C   UNL     1       8.570  13.838  19.724  0.00  0.00    +0.000 A 
ATOM     18  C   UNL     1       7.479  14.662  19.351  0.00  0.00    +0.000 A 
ATOM     19  C   UNL     1       7.509  15.107  17.906  0.00  0.00    +0.000 C 
ENDBRANCH   2  11
BRANCH   1  20
ATOM     20  O   UNL     1       3.517  14.162  19.616  0.00  0.00    +0.000 OA
BRANCH  20  21
ATOM     21  C   UNL     1       2.479  13.745  20.372  0.00  0.00    +0.000 C 
ATOM     22  O   UNL     1       2.346  13.750  21.582  0.00  0.00    +0.000 OA
BRANCH  21  24
ATOM     23  N   UNL     1       0.730  12.013  19.996  0.00  0.00    +0.000 N 
ATOM     24  C   UNL     1       1.421  13.127  19.486  0.00  0.00    +0.000 C 
ATOM     25  O   UNL     1       1.196  13.710  18.432  0.00  0.00    +0.000 OA
BRANCH  23  26
ATOM     26  C   UNL     1      -0.510  11.647  19.368  0.00  0.00    +0.000 A 
ATOM     27  C   UNL     1      -0.468  10.592  18.439  0.00  0.00    +0.000 A 
ATOM     28  C   UNL     1      -1.605  10.183  17.747  0.00  0.00    +0.000 A 
ATOM     29  C   UNL     1      -2.826  10.805  17.988  0.00  0.00    +0.000 A 
ATOM     30  C   UNL     1      -4.062  10.365  17.263  0.00  0.00    +0.000 C 
ATOM     31  C   UNL     1      -2.884  11.849  18.921  0.00  0.00    +0.000 A 
ATOM     32  C   UNL     1      -1.734  12.301  19.605  0.00  0.00    +0.000 A 
ATOM     33  C   UNL     1      -1.878  13.496  20.508  0.00  0.00    +0.000 C 
ENDBRANCH  23  26
BRANCH  23  35
ATOM     34  C   UNL     1      -0.005  10.450  21.992  0.00  0.00    +0.000 C 
ATOM     35  C   UNL     1       1.055  11.190  21.196  0.00  0.00    +0.000 C 
ENDBRANCH  23  35
ENDBRANCH  21  24
ENDBRANCH  20  21
ENDBRANCH   1  20
TORSDOF 6
ENDMDL
MODEL 9
REMARK VINA RESULT:      -6.7      2.777      6.114
REMARK  Name = 
REMARK  12 active torsions:
REMARK  status: ('A' for Active; 'I' for Inactive)
REMARK    1  A    between atoms: C_1  and  C_2
REMARK    2  A    between atoms: C_2  and  N_3
REMARK    3  A    between atoms: N_3  and  C_28
REMARK    4  A    between atoms: C_4  and  C_6
REMARK    5  A    between atoms: C_6  and  O_8
REMARK    6  A    between atoms: O_8  and  C_9
REMARK    7  A    between atoms: C_10  and  C_11
REMARK    8  A    between atoms: C_12  and  C_13
REMARK    9  A    between atoms: C_15  and  C_16
REMARK   10  A    between atoms: C_18  and  C_19
REMARK   11  A    between atoms: C_31  and  C_32
REMARK   12  A    between atoms: C_34  and  C_35
REMARK                            x       y       z     vdW  Elec       q    Type
REMARK                         _______ _______ _______ _____ _____    ______ ____
ROOT
ATOM      1  C   UNL     1      -2.835  14.754  21.985  0.00  0.00    +0.000 C 
ATOM      2  C   UNL     1      -2.916  13.416  21.842  0.00  0.00    +0.000 C 
ATOM      3  C   UNL     1      -3.288  12.950  23.205  0.00  0.00    +0.000 C 
ATOM      4  O   UNL     1      -3.325  11.800  23.602  0.00  0.00    +0.000 OA
ATOM      5  O   UNL     1      -3.574  14.015  24.003  0.00  0.00    +0.000 OA
ATOM      6  C   UNL     1      -3.124  15.219  23.371  0.00  0.00    +0.000 C 
ATOM      7  C   UNL     1      -1.935  15.731  24.197  0.00  0.00    +0.000 C 
ATOM      8  C   UNL     1      -2.549  16.602  25.308  0.00  0.00    +0.000 C 
ATOM      9  C   UNL     1      -4.051  16.668  25.046  0.00  0.00    +0.000 C 
ATOM     10  C   UNL     1      -4.184  16.294  23.582  0.00  0.00    +0.000 C 
ENDROOT
BRANCH   2  11
ATOM     11  C   UNL     1      -2.679  12.536  20.652  0.00  0.00    +0.000 A 
ATOM     12  C   UNL     1      -1.455  11.829  20.458  0.00  0.00    +0.000 A 
ATOM     13  C   UNL     1      -0.277  11.825  21.398  0.00  0.00    +0.000 C 
ATOM     14  C   UNL     1      -1.246  11.047  19.297  0.00  0.00    +0.000 A 
ATOM     15  C   UNL     1      -2.243  10.849  18.353  0.00  0.00    +0.000 A 
ATOM     16  C   UNL     1      -2.040   9.934  17.184  0.00  0.00    +0.000 C 
ATOM     17  C   UNL     1      -3.455  11.499  18.542  0.00  0.00    +0.000 A 
ATOM     18  C   UNL     1      -3.679  12.364  19.642  0.00  0.00    +0.000 A 
ATOM     19  C   UNL     1      -5.038  13.026  19.639  0.00  0.00    +0.000 C 
ENDBRANCH   2  11
BRANCH   1  20
ATOM     20  O   UNL     1      -2.359  15.627  20.981  0.00  0.00    +0.000 OA
BRANCH  20  21
ATOM     21  C   UNL     1      -1.311  16.452  21.187  0.00  0.00    +0.000 C 
ATOM     22  O   UNL     1      -1.291  17.601  21.588  0.00  0.00    +0.000 OA
BRANCH  21  24
ATOM     23  N   UNL     1       0.367  15.964  19.413  0.00  0.00    +0.000 N 
ATOM     24  C   UNL     1      -0.034  15.772  20.747  0.00  0.00    +0.000 C 
ATOM     25  O   UNL     1       0.590  15.183  21.623  0.00  0.00    +0.000 OA
BRANCH  23  26
ATOM     26  C   UNL     1       1.731  15.666  19.072  0.00  0.00    +0.000 A 
ATOM     27  C   UNL     1       2.665  16.710  19.207  0.00  0.00    +0.000 A 
ATOM     28  C   UNL     1       4.005  16.538  18.867  0.00  0.00    +0.000 A 
ATOM     29  C   UNL     1       4.452  15.303  18.408  0.00  0.00    +0.000 A 
ATOM     30  C   UNL     1       5.895  15.098  18.054  0.00  0.00    +0.000 C 
ATOM     31  C   UNL     1       3.534  14.252  18.282  0.00  0.00    +0.000 A 
ATOM     32  C   UNL     1       2.165  14.418  18.586  0.00  0.00    +0.000 A 
ATOM     33  C   UNL     1       1.241  13.262  18.319  0.00  0.00    +0.000 C 
ENDBRANCH  23  26
BRANCH  23  35
ATOM     34  C   UNL     1      -0.401  18.029  17.959  0.00  0.00    +0.000 C 
ATOM     35  C   UNL     1      -0.415  16.546  18.285  0.00  0.00    +0.000 C 
ENDBRANCH  23  35
ENDBRANCH  21  24
ENDBRANCH  20  21
ENDBRANCH   1  20
TORSDOF 6
ENDMDL
