MODEL 1
REMARK VINA RESULT:      -7.3      0.000      0.000
REMARK  Name = 
REMARK  7 active torsions:
REMARK  status: ('A' for Active; 'I' for Inactive)
REMARK    1  A    between atoms: C_1  and  C_2
REMARK    2  A    between atoms: C_3  and  C_4
REMARK    3  A    between atoms: N_9  and  C1*_10
REMARK    4  A    between atoms: C4*_12  and  C5*_13
REMARK    5  A    between atoms: C5*_13  and  O5*_14
REMARK    6  A    between atoms: C3*_15  and  O3*_16
REMARK    7  A    between atoms: C2*_17  and  O2*_18
REMARK                            x       y       z     vdW  Elec       q    Type
REMARK                         _______ _______ _______ _____ _____    ______ ____
ROOT
ATOM      1  C1* UNL     1       5.372   4.370  17.599  0.00  0.00    +0.000 C 
ATOM      2  O4* UNL     1       6.442   4.222  18.559  0.00  0.00    +0.000 OA
ATOM      3  C4* UNL     1       7.581   4.991  18.088  0.00  0.00    +0.000 C 
ATOM      4  C3* UNL     1       7.173   5.625  16.757  0.00  0.00    +0.000 C 
ATOM      5  C2* UNL     1       5.655   5.668  16.842  0.00  0.00    +0.000 C 
ENDROOT
BRANCH   1  11
ATOM      6  C   UNL     1       3.718   1.869  18.037  0.00  0.00    +0.000 C 
ATOM      7  C   UNL     1       3.298   3.227  18.474  0.00  0.00    +0.000 A 
ATOM      8  C   UNL     1       2.151   3.706  19.101  0.00  0.00    +0.000 A 
ATOM      9  N   UNL     1       2.265   5.076  19.310  0.00  0.00    +0.000 NA
ATOM     10  C   UNL     1       3.431   5.416  18.811  0.00  0.00    +0.000 A 
ATOM     11  N   UNL     1       4.086   4.346  18.272  0.00  0.00    +0.000 N 
BRANCH   8  12
ATOM     12  C   UNL     1       0.957   2.954  19.512  0.00  0.00    +0.000 C 
ATOM     13  N   UNL     1       0.696   2.993  20.853  0.00  0.00    +0.000 N 
ATOM     14  O   UNL     1       0.233   2.322  18.742  0.00  0.00    +0.000 OA
ATOM     15  H   UNL     1       1.320   3.486  21.478  0.00  0.00    +0.000 HD
ATOM     16  H   UNL     1      -0.105   2.492  21.210  0.00  0.00    +0.000 HD
ENDBRANCH   8  12
ENDBRANCH   1  11
BRANCH   4  17
ATOM     17  O3* UNL     1       7.526   4.793  15.634  0.00  0.00    +0.000 OA
ATOM     18  H3* UNL     1       6.723   4.552  15.137  0.00  0.00    +0.000 HD
ENDBRANCH   4  17
BRANCH   5  19
ATOM     19  O2* UNL     1       5.077   5.720  15.541  0.00  0.00    +0.000 OA
ATOM     20  H2* UNL     1       5.006   4.794  15.226  0.00  0.00    +0.000 HD
ENDBRANCH   5  19
BRANCH   3  21
ATOM     21  C5* UNL     1       7.938   6.031  19.153  0.00  0.00    +0.000 C 
BRANCH  21  22
ATOM     22  O5* UNL     1       7.952   5.430  20.445  0.00  0.00    +0.000 OA
ATOM     23  H5* UNL     1       7.506   4.566  20.364  0.00  0.00    +0.000 HD
ENDBRANCH  21  22
ENDBRANCH   3  21
TORSDOF 6
ENDMDL
MODEL 2
REMARK VINA RESULT:      -7.1      1.861      1.918
REMARK  Name = 
REMARK  7 active torsions:
REMARK  status: ('A' for Active; 'I' for Inactive)
REMARK    1  A    between atoms: C_1  and  C_2
REMARK    2  A    between atoms: C_3  and  C_4
REMARK    3  A    between atoms: N_9  and  C1*_10
REMARK    4  A    between atoms: C4*_12  and  C5*_13
REMARK    5  A    between atoms: C5*_13  and  O5*_14
REMARK    6  A    between atoms: C3*_15  and  O3*_16
REMARK    7  A    between atoms: C2*_17  and  O2*_18
REMARK                            x       y       z     vdW  Elec       q    Type
REMARK                         _______ _______ _______ _____ _____    ______ ____
ROOT
ATOM      1  C1* UNL     1       5.768   4.596  18.692  0.00  0.00    +0.000 C 
ATOM      2  O4* UNL     1       6.515   5.775  19.067  0.00  0.00    +0.000 OA
ATOM      3  C4* UNL     1       7.337   6.168  17.936  0.00  0.00    +0.000 C 
ATOM      4  C3* UNL     1       7.079   5.152  16.822  0.00  0.00    +0.000 C 
ATOM      5  C2* UNL     1       5.705   4.600  17.164  0.00  0.00    +0.000 C 
ENDROOT
BRANCH   1  11
ATOM      6  C   UNL     1       4.476   2.154  19.937  0.00  0.00    +0.000 C 
ATOM      7  C   UNL     1       3.843   3.499  19.901  0.00  0.00    +0.000 A 
ATOM      8  C   UNL     1       2.610   3.975  20.338  0.00  0.00    +0.000 A 
ATOM      9  N   UNL     1       2.513   5.339  20.081  0.00  0.00    +0.000 NA
ATOM     10  C   UNL     1       3.640   5.671  19.495  0.00  0.00    +0.000 A 
ATOM     11  N   UNL     1       4.469   4.597  19.338  0.00  0.00    +0.000 N 
BRANCH   8  12
ATOM     12  C   UNL     1       1.519   3.226  20.978  0.00  0.00    +0.000 C 
ATOM     13  N   UNL     1       0.375   3.146  20.236  0.00  0.00    +0.000 N 
ATOM     14  O   UNL     1       1.591   2.707  22.093  0.00  0.00    +0.000 OA
ATOM     15  H   UNL     1       0.318   3.607  19.337  0.00  0.00    +0.000 HD
ATOM     16  H   UNL     1      -0.421   2.652  20.616  0.00  0.00    +0.000 HD
ENDBRANCH   8  12
ENDBRANCH   1  11
BRANCH   4  17
ATOM     17  O3* UNL     1       8.016   4.057  16.864  0.00  0.00    +0.000 OA
ATOM     18  H3* UNL     1       8.154   3.777  17.788  0.00  0.00    +0.000 HD
ENDBRANCH   4  17
BRANCH   5  19
ATOM     19  O2* UNL     1       5.519   3.311  16.587  0.00  0.00    +0.000 OA
ATOM     20  H2* UNL     1       5.655   3.412  15.621  0.00  0.00    +0.000 HD
ENDBRANCH   5  19
BRANCH   3  21
ATOM     21  C5* UNL     1       6.960   7.596  17.534  0.00  0.00    +0.000 C 
BRANCH  21  22
ATOM     22  O5* UNL     1       8.044   8.484  17.790  0.00  0.00    +0.000 OA
ATOM     23  H5* UNL     1       7.981   9.208  17.139  0.00  0.00    +0.000 HD
ENDBRANCH  21  22
ENDBRANCH   3  21
TORSDOF 6
ENDMDL
MODEL 3
REMARK VINA RESULT:      -7.1      1.727      3.075
REMARK  Name = 
REMARK  7 active torsions:
REMARK  status: ('A' for Active; 'I' for Inactive)
REMARK    1  A    between atoms: C_1  and  C_2
REMARK    2  A    between atoms: C_3  and  C_4
REMARK    3  A    between atoms: N_9  and  C1*_10
REMARK    4  A    between atoms: C4*_12  and  C5*_13
REMARK    5  A    between atoms: C5*_13  and  O5*_14
REMARK    6  A    between atoms: C3*_15  and  O3*_16
REMARK    7  A    between atoms: C2*_17  and  O2*_18
REMARK                            x       y       z     vdW  Elec       q    Type
REMARK                         _______ _______ _______ _____ _____    ______ ____
ROOT
ATOM      1  C1* UNL     1       5.357   5.424  18.657  0.00  0.00    +0.000 C 
ATOM      2  O4* UNL     1       5.096   5.557  17.242  0.00  0.00    +0.000 OA
ATOM      3  C4* UNL     1       6.347   5.880  16.580  0.00  0.00    +0.000 C 
ATOM      4  C3* UNL     1       7.420   5.962  17.667  0.00  0.00    +0.000 C 
ATOM      5  C2* UNL     1       6.847   5.108  18.788  0.00  0.00    +0.000 C 
ENDROOT
BRANCH   1  11
ATOM      6  C   UNL     1       2.637   6.006  19.860  0.00  0.00    +0.000 C 
ATOM      7  C   UNL     1       3.248   4.651  19.808  0.00  0.00    +0.000 A 
ATOM      8  C   UNL     1       2.828   3.406  20.271  0.00  0.00    +0.000 A 
ATOM      9  N   UNL     1       3.773   2.439  19.947  0.00  0.00    +0.000 NA
ATOM     10  C   UNL     1       4.738   3.079  19.327  0.00  0.00    +0.000 A 
ATOM     11  N   UNL     1       4.486   4.418  19.237  0.00  0.00    +0.000 N 
BRANCH   8  12
ATOM     12  C   UNL     1       1.595   3.074  20.999  0.00  0.00    +0.000 C 
ATOM     13  N   UNL     1       0.451   3.197  20.262  0.00  0.00    +0.000 N 
ATOM     14  O   UNL     1       1.557   2.719  22.178  0.00  0.00    +0.000 OA
ATOM     15  H   UNL     1       0.495   3.524  19.306  0.00  0.00    +0.000 HD
ATOM     16  H   UNL     1      -0.436   2.993  20.699  0.00  0.00    +0.000 HD
ENDBRANCH   8  12
ENDBRANCH   1  11
BRANCH   4  17
ATOM     17  O3* UNL     1       7.574   7.304  18.172  0.00  0.00    +0.000 OA
ATOM     18  H3* UNL     1       6.897   7.884  17.778  0.00  0.00    +0.000 HD
ENDBRANCH   4  17
BRANCH   5  19
ATOM     19  O2* UNL     1       7.412   5.476  20.043  0.00  0.00    +0.000 OA
ATOM     20  H2* UNL     1       7.642   6.427  19.981  0.00  0.00    +0.000 HD
ENDBRANCH   5  19
BRANCH   3  21
ATOM     21  C5* UNL     1       6.641   4.796  15.540  0.00  0.00    +0.000 C 
BRANCH  21  22
ATOM     22  O5* UNL     1       7.587   5.269  14.586  0.00  0.00    +0.000 OA
ATOM     23  H5* UNL     1       8.471   5.007  14.905  0.00  0.00    +0.000 HD
ENDBRANCH  21  22
ENDBRANCH   3  21
TORSDOF 6
ENDMDL
MODEL 4
REMARK VINA RESULT:      -7.0      1.208      1.208
REMARK  Name = 
REMARK  7 active torsions:
REMARK  status: ('A' for Active; 'I' for Inactive)
REMARK    1  A    between atoms: C_1  and  C_2
REMARK    2  A    between atoms: C_3  and  C_4
REMARK    3  A    between atoms: N_9  and  C1*_10
REMARK    4  A    between atoms: C4*_12  and  C5*_13
REMARK    5  A    between atoms: C5*_13  and  O5*_14
REMARK    6  A    between atoms: C3*_15  and  O3*_16
REMARK    7  A    between atoms: C2*_17  and  O2*_18
REMARK                            x       y       z     vdW  Elec       q    Type
REMARK                         _______ _______ _______ _____ _____    ______ ____
ROOT
ATOM      1  C1* UNL     1       5.180   4.784  18.075  0.00  0.00    +0.000 C 
ATOM      2  O4* UNL     1       6.429   4.396  18.692  0.00  0.00    +0.000 OA
ATOM      3  C4* UNL     1       7.488   5.205  18.114  0.00  0.00    +0.000 C 
ATOM      4  C3* UNL     1       6.837   6.120  17.076  0.00  0.00    +0.000 C 
ATOM      5  C2* UNL     1       5.390   6.201  17.540  0.00  0.00    +0.000 C 
ENDROOT
BRANCH   1  11
ATOM      6  C   UNL     1       3.804   2.178  18.783  0.00  0.00    +0.000 C 
ATOM      7  C   UNL     1       3.430   3.497  19.360  0.00  0.00    +0.000 A 
ATOM      8  C   UNL     1       2.439   3.890  20.256  0.00  0.00    +0.000 A 
ATOM      9  N   UNL     1       2.529   5.258  20.488  0.00  0.00    +0.000 NA
ATOM     10  C   UNL     1       3.527   5.680  19.746  0.00  0.00    +0.000 A 
ATOM     11  N   UNL     1       4.091   4.665  19.026  0.00  0.00    +0.000 N 
BRANCH   8  12
ATOM     12  C   UNL     1       1.415   3.058  20.902  0.00  0.00    +0.000 C 
ATOM     13  N   UNL     1       0.297   2.845  20.146  0.00  0.00    +0.000 N 
ATOM     14  O   UNL     1       1.516   2.582  22.034  0.00  0.00    +0.000 OA
ATOM     15  H   UNL     1       0.212   3.272  19.232  0.00  0.00    +0.000 HD
ATOM     16  H   UNL     1      -0.454   2.289  20.529  0.00  0.00    +0.000 HD
ENDBRANCH   8  12
ENDBRANCH   1  11
BRANCH   4  17
ATOM     17  O3* UNL     1       6.843   5.533  15.760  0.00  0.00    +0.000 OA
ATOM     18  H3* UNL     1       6.441   6.151  15.121  0.00  0.00    +0.000 HD
ENDBRANCH   4  17
BRANCH   5  19
ATOM     19  O2* UNL     1       4.531   6.548  16.459  0.00  0.00    +0.000 OA
ATOM     20  H2* UNL     1       5.065   7.082  15.834  0.00  0.00    +0.000 HD
ENDBRANCH   5  19
BRANCH   3  21
ATOM     21  C5* UNL     1       8.174   5.982  19.240  0.00  0.00    +0.000 C 
BRANCH  21  22
ATOM     22  O5* UNL     1       7.872   5.392  20.502  0.00  0.00    +0.000 OA
ATOM     23  H5* UNL     1       6.989   4.985  20.424  0.00  0.00    +0.000 HD
ENDBRANCH  21  22
ENDBRANCH   3  21
TORSDOF 6
ENDMDL
MODEL 5
REMARK VINA RESULT:      -6.9      2.385      5.861
REMARK  Name = 
REMARK  7 active torsions:
REMARK  status: ('A' for Active; 'I' for Inactive)
REMARK    1  A    between atoms: C_1  and  C_2
REMARK    2  A    between atoms: C_3  and  C_4
REMARK    3  A    between atoms: N_9  and  C1*_10
REMARK    4  A    between atoms: C4*_12  and  C5*_13
REMARK    5  A    between atoms: C5*_13  and  O5*_14
REMARK    6  A    between atoms: C3*_15  and  O3*_16
REMARK    7  A    between atoms: C2*_17  and  O2*_18
REMARK                            x       y       z     vdW  Elec       q    Type
REMARK                         _______ _______ _______ _____ _____    ______ ____
ROOT
ATOM      1  C1* UNL     1       3.633   3.886  18.095  0.00  0.00    +0.000 C 
ATOM      2  O4* UNL     1       2.455   4.647  18.447  0.00  0.00    +0.000 OA
ATOM      3  C4* UNL     1       1.430   3.716  18.884  0.00  0.00    +0.000 C 
ATOM      4  C3* UNL     1       2.023   2.311  18.771  0.00  0.00    +0.000 C 
ATOM      5  C2* UNL     1       3.522   2.558  18.845  0.00  0.00    +0.000 C 
ENDROOT
BRANCH   1  11
ATOM      6  C   UNL     1       4.924   5.885  16.219  0.00  0.00    +0.000 C 
ATOM      7  C   UNL     1       5.456   5.549  17.566  0.00  0.00    +0.000 A 
ATOM      8  C   UNL     1       6.583   5.967  18.269  0.00  0.00    +0.000 A 
ATOM      9  N   UNL     1       6.613   5.358  19.518  0.00  0.00    +0.000 NA
ATOM     10  C   UNL     1       5.552   4.586  19.563  0.00  0.00    +0.000 A 
ATOM     11  N   UNL     1       4.832   4.642  18.404  0.00  0.00    +0.000 N 
BRANCH   8  12
ATOM     12  C   UNL     1       7.631   6.901  17.835  0.00  0.00    +0.000 C 
ATOM     13  N   UNL     1       8.412   7.386  18.845  0.00  0.00    +0.000 N 
ATOM     14  O   UNL     1       7.816   7.248  16.667  0.00  0.00    +0.000 OA
ATOM     15  H   UNL     1       8.226   7.121  19.804  0.00  0.00    +0.000 HD
ATOM     16  H   UNL     1       9.149   8.041  18.623  0.00  0.00    +0.000 HD
ENDBRANCH   8  12
ENDBRANCH   1  11
BRANCH   4  17
ATOM     17  O3* UNL     1       1.741   1.709  17.492  0.00  0.00    +0.000 OA
ATOM     18  H3* UNL     1       0.787   1.515  17.422  0.00  0.00    +0.000 HD
ENDBRANCH   4  17
BRANCH   5  19
ATOM     19  O2* UNL     1       4.242   1.488  18.241  0.00  0.00    +0.000 OA
ATOM     20  H2* UNL     1       4.069   0.689  18.782  0.00  0.00    +0.000 HD
ENDBRANCH   5  19
BRANCH   3  21
ATOM     21  C5* UNL     1       1.028   4.074  20.317  0.00  0.00    +0.000 C 
BRANCH  21  22
ATOM     22  O5* UNL     1       0.725   2.893  21.055  0.00  0.00    +0.000 OA
ATOM     23  H5* UNL     1       0.017   2.428  20.573  0.00  0.00    +0.000 HD
ENDBRANCH  21  22
ENDBRANCH   3  21
TORSDOF 6
ENDMDL
MODEL 6
REMARK VINA RESULT:      -6.9      1.509      1.602
REMARK  Name = 
REMARK  7 active torsions:
REMARK  status: ('A' for Active; 'I' for Inactive)
REMARK    1  A    between atoms: C_1  and  C_2
REMARK    2  A    between atoms: C_3  and  C_4
REMARK    3  A    between atoms: N_9  and  C1*_10
REMARK    4  A    between atoms: C4*_12  and  C5*_13
REMARK    5  A    between atoms: C5*_13  and  O5*_14
REMARK    6  A    between atoms: C3*_15  and  O3*_16
REMARK    7  A    between atoms: C2*_17  and  O2*_18
REMARK                            x       y       z     vdW  Elec       q    Type
REMARK                         _______ _______ _______ _____ _____    ______ ____
ROOT
ATOM      1  C1* UNL     1       5.498   4.423  18.129  0.00  0.00    +0.000 C 
ATOM      2  O4* UNL     1       6.007   5.630  18.740  0.00  0.00    +0.000 OA
ATOM      3  C4* UNL     1       7.122   6.106  17.940  0.00  0.00    +0.000 C 
ATOM      4  C3* UNL     1       7.302   5.114  16.789  0.00  0.00    +0.000 C 
ATOM      5  C2* UNL     1       5.929   4.473  16.663  0.00  0.00    +0.000 C 
ENDROOT
BRANCH   1  11
ATOM      6  C   UNL     1       4.135   2.297  19.804  0.00  0.00    +0.000 C 
ATOM      7  C   UNL     1       3.407   3.363  19.065  0.00  0.00    +0.000 A 
ATOM      8  C   UNL     1       2.054   3.648  18.907  0.00  0.00    +0.000 A 
ATOM      9  N   UNL     1       1.900   4.784  18.121  0.00  0.00    +0.000 NA
ATOM     10  C   UNL     1       3.116   5.163  17.801  0.00  0.00    +0.000 A 
ATOM     11  N   UNL     1       4.063   4.328  18.322  0.00  0.00    +0.000 N 
BRANCH   8  12
ATOM     12  C   UNL     1       0.900   2.916  19.447  0.00  0.00    +0.000 C 
ATOM     13  N   UNL     1       0.690   3.097  20.785  0.00  0.00    +0.000 N 
ATOM     14  O   UNL     1       0.166   2.183  18.782  0.00  0.00    +0.000 OA
ATOM     15  H   UNL     1       1.322   3.673  21.326  0.00  0.00    +0.000 HD
ATOM     16  H   UNL     1      -0.081   2.618  21.228  0.00  0.00    +0.000 HD
ENDBRANCH   8  12
ENDBRANCH   1  11
BRANCH   4  17
ATOM     17  O3* UNL     1       8.244   4.074  17.118  0.00  0.00    +0.000 OA
ATOM     18  H3* UNL     1       7.796   3.208  17.107  0.00  0.00    +0.000 HD
ENDBRANCH   4  17
BRANCH   5  19
ATOM     19  O2* UNL     1       6.023   3.195  16.041  0.00  0.00    +0.000 OA
ATOM     20  H2* UNL     1       6.978   3.002  15.934  0.00  0.00    +0.000 HD
ENDBRANCH   5  19
BRANCH   3  21
ATOM     21  C5* UNL     1       6.801   7.522  17.455  0.00  0.00    +0.000 C 
BRANCH  21  22
ATOM     22  O5* UNL     1       7.919   8.381  17.664  0.00  0.00    +0.000 OA
ATOM     23  H5* UNL     1       7.809   9.145  17.068  0.00  0.00    +0.000 HD
ENDBRANCH  21  22
ENDBRANCH   3  21
TORSDOF 6
ENDMDL
MODEL 7
REMARK VINA RESULT:      -6.9      1.770      3.219
REMARK  Name = 
REMARK  7 active torsions:
REMARK  status: ('A' for Active; 'I' for Inactive)
REMARK    1  A    between atoms: C_1  and  C_2
REMARK    2  A    between atoms: C_3  and  C_4
REMARK    3  A    between atoms: N_9  and  C1*_10
REMARK    4  A    between atoms: C4*_12  and  C5*_13
REMARK    5  A    between atoms: C5*_13  and  O5*_14
REMARK    6  A    between atoms: C3*_15  and  O3*_16
REMARK    7  A    between atoms: C2*_17  and  O2*_18
REMARK                            x       y       z     vdW  Elec       q    Type
REMARK                         _______ _______ _______ _____ _____    ______ ____
ROOT
ATOM      1  C1* UNL     1       5.291   5.117  17.816  0.00  0.00    +0.000 C 
ATOM      2  O4* UNL     1       4.660   5.325  16.532  0.00  0.00    +0.000 OA
ATOM      3  C4* UNL     1       5.704   5.461  15.532  0.00  0.00    +0.000 C 
ATOM      4  C3* UNL     1       7.042   5.344  16.264  0.00  0.00    +0.000 C 
ATOM      5  C2* UNL     1       6.686   4.565  17.521  0.00  0.00    +0.000 C 
ENDROOT
BRANCH   1  11
ATOM      6  C   UNL     1       2.989   6.071  19.541  0.00  0.00    +0.000 C 
ATOM      7  C   UNL     1       3.428   4.652  19.454  0.00  0.00    +0.000 A 
ATOM      8  C   UNL     1       2.996   3.488  20.085  0.00  0.00    +0.000 A 
ATOM      9  N   UNL     1       3.737   2.403  19.631  0.00  0.00    +0.000 NA
ATOM     10  C   UNL     1       4.598   2.895  18.770  0.00  0.00    +0.000 A 
ATOM     11  N   UNL     1       4.473   4.249  18.643  0.00  0.00    +0.000 N 
BRANCH   8  12
ATOM     12  C   UNL     1       1.932   3.338  21.087  0.00  0.00    +0.000 C 
ATOM     13  N   UNL     1       0.664   3.370  20.579  0.00  0.00    +0.000 N 
ATOM     14  O   UNL     1       2.128   3.200  22.296  0.00  0.00    +0.000 OA
ATOM     15  H   UNL     1       0.518   3.520  19.589  0.00  0.00    +0.000 HD
ATOM     16  H   UNL     1      -0.119   3.281  21.210  0.00  0.00    +0.000 HD
ENDBRANCH   8  12
ENDBRANCH   1  11
BRANCH   4  17
ATOM     17  O3* UNL     1       7.546   6.631  16.674  0.00  0.00    +0.000 OA
ATOM     18  H3* UNL     1       8.468   6.542  16.980  0.00  0.00    +0.000 HD
ENDBRANCH   4  17
BRANCH   5  19
ATOM     19  O2* UNL     1       7.637   4.807  18.553  0.00  0.00    +0.000 OA
ATOM     20  H2* UNL     1       7.318   4.332  19.348  0.00  0.00    +0.000 HD
ENDBRANCH   5  19
BRANCH   3  21
ATOM     21  C5* UNL     1       5.511   4.370  14.476  0.00  0.00    +0.000 C 
BRANCH  21  22
ATOM     22  O5* UNL     1       6.669   4.270  13.651  0.00  0.00    +0.000 OA
ATOM     23  H5* UNL     1       7.374   3.873  14.195  0.00  0.00    +0.000 HD
ENDBRANCH  21  22
ENDBRANCH   3  21
TORSDOF 6
ENDMDL
MODEL 8
REMARK VINA RESULT:      -6.8      1.337      2.820
REMARK  Name = 
REMARK  7 active torsions:
REMARK  status: ('A' for Active; 'I' for Inactive)
REMARK    1  A    between atoms: C_1  and  C_2
REMARK    2  A    between atoms: C_3  and  C_4
REMARK    3  A    between atoms: N_9  and  C1*_10
REMARK    4  A    between atoms: C4*_12  and  C5*_13
REMARK    5  A    between atoms: C5*_13  and  O5*_14
REMARK    6  A    between atoms: C3*_15  and  O3*_16
REMARK    7  A    between atoms: C2*_17  and  O2*_18
REMARK                            x       y       z     vdW  Elec       q    Type
REMARK                         _______ _______ _______ _____ _____    ______ ____
ROOT
ATOM      1  C1* UNL     1       5.188   5.308  18.105  0.00  0.00    +0.000 C 
ATOM      2  O4* UNL     1       5.176   5.471  16.668  0.00  0.00    +0.000 OA
ATOM      3  C4* UNL     1       6.520   5.818  16.242  0.00  0.00    +0.000 C 
ATOM      4  C3* UNL     1       7.386   5.884  17.501  0.00  0.00    +0.000 C 
ATOM      5  C2* UNL     1       6.637   5.001  18.487  0.00  0.00    +0.000 C 
ENDROOT
BRANCH   1  11
ATOM      6  C   UNL     1       2.179   5.670  18.110  0.00  0.00    +0.000 C 
ATOM      7  C   UNL     1       2.865   4.419  18.533  0.00  0.00    +0.000 A 
ATOM      8  C   UNL     1       2.396   3.207  19.031  0.00  0.00    +0.000 A 
ATOM      9  N   UNL     1       3.464   2.345  19.256  0.00  0.00    +0.000 NA
ATOM     10  C   UNL     1       4.541   3.018  18.922  0.00  0.00    +0.000 A 
ATOM     11  N   UNL     1       4.241   4.283  18.503  0.00  0.00    +0.000 N 
BRANCH   8  12
ATOM     12  C   UNL     1       1.008   2.812  19.310  0.00  0.00    +0.000 C 
ATOM     13  N   UNL     1       0.559   3.160  20.552  0.00  0.00    +0.000 N 
ATOM     14  O   UNL     1       0.282   2.210  18.517  0.00  0.00    +0.000 OA
ATOM     15  H   UNL     1       1.177   3.622  21.206  0.00  0.00    +0.000 HD
ATOM     16  H   UNL     1      -0.384   2.914  20.818  0.00  0.00    +0.000 HD
ENDBRANCH   8  12
ENDBRANCH   1  11
BRANCH   4  17
ATOM     17  O3* UNL     1       7.434   7.215  18.053  0.00  0.00    +0.000 OA
ATOM     18  H3* UNL     1       7.059   7.850  17.415  0.00  0.00    +0.000 HD
ENDBRANCH   4  17
BRANCH   5  19
ATOM     19  O2* UNL     1       6.969   5.345  19.828  0.00  0.00    +0.000 OA
ATOM     20  H2* UNL     1       6.286   5.976  20.136  0.00  0.00    +0.000 HD
ENDBRANCH   5  19
BRANCH   3  21
ATOM     21  C5* UNL     1       7.002   4.759  15.247  0.00  0.00    +0.000 C 
BRANCH  21  22
ATOM     22  O5* UNL     1       7.794   5.364  14.228  0.00  0.00    +0.000 OA
ATOM     23  H5* UNL     1       7.976   6.279  14.511  0.00  0.00    +0.000 HD
ENDBRANCH  21  22
ENDBRANCH   3  21
TORSDOF 6
ENDMDL
MODEL 9
REMARK VINA RESULT:      -6.7      2.093      5.742
REMARK  Name = 
REMARK  7 active torsions:
REMARK  status: ('A' for Active; 'I' for Inactive)
REMARK    1  A    between atoms: C_1  and  C_2
REMARK    2  A    between atoms: C_3  and  C_4
REMARK    3  A    between atoms: N_9  and  C1*_10
REMARK    4  A    between atoms: C4*_12  and  C5*_13
REMARK    5  A    between atoms: C5*_13  and  O5*_14
REMARK    6  A    between atoms: C3*_15  and  O3*_16
REMARK    7  A    between atoms: C2*_17  and  O2*_18
REMARK                            x       y       z     vdW  Elec       q    Type
REMARK                         _______ _______ _______ _____ _____    ______ ____
ROOT
ATOM      1  C1* UNL     1       2.728   3.644  18.706  0.00  0.00    +0.000 C 
ATOM      2  O4* UNL     1       2.029   4.163  19.860  0.00  0.00    +0.000 OA
ATOM      3  C4* UNL     1       1.088   3.153  20.310  0.00  0.00    +0.000 C 
ATOM      4  C3* UNL     1       1.220   1.963  19.358  0.00  0.00    +0.000 C 
ATOM      5  C2* UNL     1       2.623   2.121  18.794  0.00  0.00    +0.000 C 
ENDROOT
BRANCH   1  11
ATOM      6  C   UNL     1       4.357   4.020  16.178  0.00  0.00    +0.000 C 
ATOM      7  C   UNL     1       4.868   4.311  17.545  0.00  0.00    +0.000 A 
ATOM      8  C   UNL     1       6.101   4.750  18.020  0.00  0.00    +0.000 A 
ATOM      9  N   UNL     1       6.053   4.884  19.403  0.00  0.00    +0.000 NA
ATOM     10  C   UNL     1       4.840   4.522  19.754  0.00  0.00    +0.000 A 
ATOM     11  N   UNL     1       4.090   4.142  18.677  0.00  0.00    +0.000 N 
BRANCH   8  12
ATOM     12  C   UNL     1       7.318   5.049  17.252  0.00  0.00    +0.000 C 
ATOM     13  N   UNL     1       7.384   6.324  16.768  0.00  0.00    +0.000 N 
ATOM     14  O   UNL     1       8.222   4.239  17.036  0.00  0.00    +0.000 OA
ATOM     15  H   UNL     1       6.618   6.967  16.922  0.00  0.00    +0.000 HD
ATOM     16  H   UNL     1       8.189   6.600  16.223  0.00  0.00    +0.000 HD
ENDBRANCH   8  12
ENDBRANCH   1  11
BRANCH   4  17
ATOM     17  O3* UNL     1       0.292   2.047  18.258  0.00  0.00    +0.000 OA
ATOM     18  H3* UNL     1       0.100   1.153  17.919  0.00  0.00    +0.000 HD
ENDBRANCH   4  17
BRANCH   5  19
ATOM     19  O2* UNL     1       2.741   1.457  17.539  0.00  0.00    +0.000 OA
ATOM     20  H2* UNL     1       1.831   1.337  17.196  0.00  0.00    +0.000 HD
ENDBRANCH   5  19
BRANCH   3  21
ATOM     21  C5* UNL     1       1.422   2.790  21.760  0.00  0.00    +0.000 C 
BRANCH  21  22
ATOM     22  O5* UNL     1       2.565   3.519  22.200  0.00  0.00    +0.000 OA
ATOM     23  H5* UNL     1       3.349   3.078  21.822  0.00  0.00    +0.000 HD
ENDBRANCH  21  22
ENDBRANCH   3  21
TORSDOF 6
ENDMDL
