MODEL 1
REMARK VINA RESULT:      -6.5      0.000      0.000
REMARK  Name = 
REMARK  10 active torsions:
REMARK  status: ('A' for Active; 'I' for Inactive)
REMARK    1  A    between atoms: C_1  and  C_2
REMARK    2  A    between atoms: C_2  and  O_3
REMARK    3  A    between atoms: O_3  and  C_4
REMARK    4  A    between atoms: C_4  and  C_6
REMARK    5  A    between atoms: C_6  and  C_7
REMARK    6  A    between atoms: C_7  and  N_8
REMARK    7  A    between atoms: N_14  and  C_15
REMARK    8  A    between atoms: C_15  and  C_16
REMARK    9  A    between atoms: C_16  and  C_17
REMARK   10  A    between atoms: C_16  and  C_18
REMARK                            x       y       z     vdW  Elec       q    Type
REMARK                         _______ _______ _______ _____ _____    ______ ____
ROOT
ATOM      1  N   UNL     1       3.329   5.025  19.842  0.00  0.00    +0.000 N 
ATOM      2  C   UNL     1       3.413   5.662  18.631  0.00  0.00    +0.000 C 
ATOM      3  O   UNL     1       2.526   6.405  18.221  0.00  0.00    +0.000 OA
ATOM      4  N   UNL     1       4.568   5.410  17.920  0.00  0.00    +0.000 N 
ATOM      5  C   UNL     1       4.770   6.109  16.649  0.00  0.00    +0.000 C 
ATOM      6  C   UNL     1       6.229   6.586  16.500  0.00  0.00    +0.000 C 
ATOM      7  N   UNL     1       7.260   5.544  16.727  0.00  0.00    +0.000 NA
ATOM      8  C   UNL     1       6.987   4.899  18.036  0.00  0.00    +0.000 C 
ATOM      9  C   UNL     1       5.550   4.355  18.191  0.00  0.00    +0.000 C 
ATOM     10  H   UNL     1       4.218   4.898  20.299  0.00  0.00    +0.000 HD
ENDROOT
BRANCH   1  11
ATOM     11  C   UNL     1       2.226   5.311  20.741  0.00  0.00    +0.000 C 
BRANCH  11  12
ATOM     12  C   UNL     1       1.135   4.270  20.609  0.00  0.00    +0.000 C 
BRANCH  12  13
ATOM     13  C   UNL     1       1.643   2.928  21.055  0.00  0.00    +0.000 C 
ATOM     14  O   UNL     1       1.508   2.470  22.180  0.00  0.00    +0.000 OA
BRANCH  13  15
ATOM     15  O   UNL     1       2.388   2.372  20.061  0.00  0.00    +0.000 OA
BRANCH  15  17
ATOM     16  C   UNL     1       2.453   2.245  17.679  0.00  0.00    +0.000 C 
ATOM     17  C   UNL     1       1.644   1.919  18.922  0.00  0.00    +0.000 C 
ENDBRANCH  15  17
ENDBRANCH  13  15
ENDBRANCH  12  13
ENDBRANCH  11  12
ENDBRANCH   1  11
BRANCH   7  18
ATOM     18  C   UNL     1       7.315   4.528  15.662  0.00  0.00    +0.000 C 
BRANCH  18  19
ATOM     19  C   UNL     1       6.776   4.954  14.279  0.00  0.00    +0.000 C 
ATOM     20  C   UNL     1       7.891   5.168  13.257  0.00  0.00    +0.000 C 
ATOM     21  C   UNL     1       5.800   3.885  13.778  0.00  0.00    +0.000 C 
ENDBRANCH  18  19
ENDBRANCH   7  18
TORSDOF 7
ENDMDL
MODEL 2
REMARK VINA RESULT:      -6.4      3.531      7.191
REMARK  Name = 
REMARK  10 active torsions:
REMARK  status: ('A' for Active; 'I' for Inactive)
REMARK    1  A    between atoms: C_1  and  C_2
REMARK    2  A    between atoms: C_2  and  O_3
REMARK    3  A    between atoms: O_3  and  C_4
REMARK    4  A    between atoms: C_4  and  C_6
REMARK    5  A    between atoms: C_6  and  C_7
REMARK    6  A    between atoms: C_7  and  N_8
REMARK    7  A    between atoms: N_14  and  C_15
REMARK    8  A    between atoms: C_15  and  C_16
REMARK    9  A    between atoms: C_16  and  C_17
REMARK   10  A    between atoms: C_16  and  C_18
REMARK                            x       y       z     vdW  Elec       q    Type
REMARK                         _______ _______ _______ _____ _____    ______ ____
ROOT
ATOM      1  N   UNL     1       5.716   4.305  14.353  0.00  0.00    +0.000 N 
ATOM      2  C   UNL     1       6.332   4.410  15.574  0.00  0.00    +0.000 C 
ATOM      3  O   UNL     1       7.547   4.545  15.682  0.00  0.00    +0.000 OA
ATOM      4  N   UNL     1       5.483   4.362  16.659  0.00  0.00    +0.000 N 
ATOM      5  C   UNL     1       6.051   4.541  17.998  0.00  0.00    +0.000 C 
ATOM      6  C   UNL     1       5.151   5.438  18.871  0.00  0.00    +0.000 C 
ATOM      7  N   UNL     1       3.725   5.035  18.927  0.00  0.00    +0.000 NA
ATOM      8  C   UNL     1       3.229   4.889  17.535  0.00  0.00    +0.000 C 
ATOM      9  C   UNL     1       4.076   3.947  16.653  0.00  0.00    +0.000 C 
ATOM     10  H   UNL     1       4.794   4.708  14.325  0.00  0.00    +0.000 HD
ENDROOT
BRANCH   1  11
ATOM     11  C   UNL     1       6.483   4.473  13.132  0.00  0.00    +0.000 C 
BRANCH  11  12
ATOM     12  C   UNL     1       6.835   3.132  12.523  0.00  0.00    +0.000 C 
BRANCH  12  13
ATOM     13  C   UNL     1       5.645   2.563  11.805  0.00  0.00    +0.000 C 
ATOM     14  O   UNL     1       5.607   1.456  11.288  0.00  0.00    +0.000 OA
BRANCH  13  15
ATOM     15  O   UNL     1       4.678   3.515  11.702  0.00  0.00    +0.000 OA
BRANCH  15  17
ATOM     16  C   UNL     1       3.241   4.104   9.890  0.00  0.00    +0.000 C 
ATOM     17  C   UNL     1       3.492   3.106  11.007  0.00  0.00    +0.000 C 
ENDBRANCH  15  17
ENDBRANCH  13  15
ENDBRANCH  12  13
ENDBRANCH  11  12
ENDBRANCH   1  11
BRANCH   7  18
ATOM     18  C   UNL     1       3.493   3.792  19.682  0.00  0.00    +0.000 C 
BRANCH  18  19
ATOM     19  C   UNL     1       2.478   3.873  20.843  0.00  0.00    +0.000 C 
ATOM     20  C   UNL     1       1.055   4.146  20.360  0.00  0.00    +0.000 C 
ATOM     21  C   UNL     1       2.524   2.562  21.632  0.00  0.00    +0.000 C 
ENDBRANCH  18  19
ENDBRANCH   7  18
TORSDOF 7
ENDMDL
MODEL 3
REMARK VINA RESULT:      -6.3      3.472      7.155
REMARK  Name = 
REMARK  10 active torsions:
REMARK  status: ('A' for Active; 'I' for Inactive)
REMARK    1  A    between atoms: C_1  and  C_2
REMARK    2  A    between atoms: C_2  and  O_3
REMARK    3  A    between atoms: O_3  and  C_4
REMARK    4  A    between atoms: C_4  and  C_6
REMARK    5  A    between atoms: C_6  and  C_7
REMARK    6  A    between atoms: C_7  and  N_8
REMARK    7  A    between atoms: N_14  and  C_15
REMARK    8  A    between atoms: C_15  and  C_16
REMARK    9  A    between atoms: C_16  and  C_17
REMARK   10  A    between atoms: C_16  and  C_18
REMARK                            x       y       z     vdW  Elec       q    Type
REMARK                         _______ _______ _______ _____ _____    ______ ____
ROOT
ATOM      1  N   UNL     1       5.923   4.255  14.522  0.00  0.00    +0.000 N 
ATOM      2  C   UNL     1       6.509   4.348  15.757  0.00  0.00    +0.000 C 
ATOM      3  O   UNL     1       7.726   4.423  15.899  0.00  0.00    +0.000 OA
ATOM      4  N   UNL     1       5.628   4.357  16.819  0.00  0.00    +0.000 N 
ATOM      5  C   UNL     1       6.168   4.528  18.170  0.00  0.00    +0.000 C 
ATOM      6  C   UNL     1       5.290   5.480  19.006  0.00  0.00    +0.000 C 
ATOM      7  N   UNL     1       3.844   5.150  19.027  0.00  0.00    +0.000 NA
ATOM      8  C   UNL     1       3.380   5.008  17.623  0.00  0.00    +0.000 C 
ATOM      9  C   UNL     1       4.203   4.013  16.778  0.00  0.00    +0.000 C 
ATOM     10  H   UNL     1       5.023   4.703  14.461  0.00  0.00    +0.000 HD
ENDROOT
BRANCH   1  11
ATOM     11  C   UNL     1       6.731   4.368  13.321  0.00  0.00    +0.000 C 
BRANCH  11  12
ATOM     12  C   UNL     1       6.679   3.090  12.510  0.00  0.00    +0.000 C 
BRANCH  12  13
ATOM     13  C   UNL     1       5.330   2.941  11.866  0.00  0.00    +0.000 C 
ATOM     14  O   UNL     1       4.403   3.726  12.002  0.00  0.00    +0.000 OA
BRANCH  13  15
ATOM     15  O   UNL     1       5.260   1.739  11.230  0.00  0.00    +0.000 OA
BRANCH  15  17
ATOM     16  C   UNL     1       6.189  -0.455  11.349  0.00  0.00    +0.000 C 
ATOM     17  C   UNL     1       6.497   1.019  11.153  0.00  0.00    +0.000 C 
ENDBRANCH  15  17
ENDBRANCH  13  15
ENDBRANCH  12  13
ENDBRANCH  11  12
ENDBRANCH   1  11
BRANCH   7  18
ATOM     18  C   UNL     1       3.529   3.930  19.790  0.00  0.00    +0.000 C 
BRANCH  18  19
ATOM     19  C   UNL     1       2.034   3.657  20.061  0.00  0.00    +0.000 C 
ATOM     20  C   UNL     1       1.812   2.434  20.949  0.00  0.00    +0.000 C 
ATOM     21  C   UNL     1       1.414   4.898  20.709  0.00  0.00    +0.000 C 
ENDBRANCH  18  19
ENDBRANCH   7  18
TORSDOF 7
ENDMDL
MODEL 4
REMARK VINA RESULT:      -6.1      1.858      3.507
REMARK  Name = 
REMARK  10 active torsions:
REMARK  status: ('A' for Active; 'I' for Inactive)
REMARK    1  A    between atoms: C_1  and  C_2
REMARK    2  A    between atoms: C_2  and  O_3
REMARK    3  A    between atoms: O_3  and  C_4
REMARK    4  A    between atoms: C_4  and  C_6
REMARK    5  A    between atoms: C_6  and  C_7
REMARK    6  A    between atoms: C_7  and  N_8
REMARK    7  A    between atoms: N_14  and  C_15
REMARK    8  A    between atoms: C_15  and  C_16
REMARK    9  A    between atoms: C_16  and  C_17
REMARK   10  A    between atoms: C_16  and  C_18
REMARK                            x       y       z     vdW  Elec       q    Type
REMARK                         _______ _______ _______ _____ _____    ______ ____
ROOT
ATOM      1  N   UNL     1       2.157   4.041  18.348  0.00  0.00    +0.000 N 
ATOM      2  C   UNL     1       3.115   3.466  17.554  0.00  0.00    +0.000 C 
ATOM      3  O   UNL     1       3.043   2.297  17.186  0.00  0.00    +0.000 OA
ATOM      4  N   UNL     1       4.154   4.301  17.199  0.00  0.00    +0.000 N 
ATOM      5  C   UNL     1       5.183   3.787  16.292  0.00  0.00    +0.000 C 
ATOM      6  C   UNL     1       5.582   4.845  15.243  0.00  0.00    +0.000 C 
ATOM      7  N   UNL     1       5.945   6.173  15.793  0.00  0.00    +0.000 NA
ATOM      8  C   UNL     1       4.847   6.621  16.687  0.00  0.00    +0.000 C 
ATOM      9  C   UNL     1       4.468   5.608  17.788  0.00  0.00    +0.000 C 
ATOM     10  H   UNL     1       2.013   5.022  18.169  0.00  0.00    +0.000 HD
ENDROOT
BRANCH   1  11
ATOM     11  C   UNL     1       0.949   3.307  18.680  0.00  0.00    +0.000 C 
BRANCH  11  12
ATOM     12  C   UNL     1       0.798   3.163  20.180  0.00  0.00    +0.000 C 
BRANCH  12  13
ATOM     13  C   UNL     1       1.605   4.217  20.885  0.00  0.00    +0.000 C 
ATOM     14  O   UNL     1       2.543   3.990  21.635  0.00  0.00    +0.000 OA
BRANCH  13  15
ATOM     15  O   UNL     1       1.045   5.438  20.667  0.00  0.00    +0.000 OA
BRANCH  15  17
ATOM     16  C   UNL     1       1.243   7.787  21.035  0.00  0.00    +0.000 C 
ATOM     17  C   UNL     1       1.973   6.529  20.598  0.00  0.00    +0.000 C 
ENDBRANCH  15  17
ENDBRANCH  13  15
ENDBRANCH  12  13
ENDBRANCH  11  12
ENDBRANCH   1  11
BRANCH   7  18
ATOM     18  C   UNL     1       7.226   6.179  16.521  0.00  0.00    +0.000 C 
BRANCH  18  19
ATOM     19  C   UNL     1       7.249   6.944  17.861  0.00  0.00    +0.000 C 
ATOM     20  C   UNL     1       7.914   6.146  18.982  0.00  0.00    +0.000 C 
ATOM     21  C   UNL     1       7.981   8.275  17.658  0.00  0.00    +0.000 C 
ENDBRANCH  18  19
ENDBRANCH   7  18
TORSDOF 7
ENDMDL
MODEL 5
REMARK VINA RESULT:      -6.0      1.863      3.139
REMARK  Name = 
REMARK  10 active torsions:
REMARK  status: ('A' for Active; 'I' for Inactive)
REMARK    1  A    between atoms: C_1  and  C_2
REMARK    2  A    between atoms: C_2  and  O_3
REMARK    3  A    between atoms: O_3  and  C_4
REMARK    4  A    between atoms: C_4  and  C_6
REMARK    5  A    between atoms: C_6  and  C_7
REMARK    6  A    between atoms: C_7  and  N_8
REMARK    7  A    between atoms: N_14  and  C_15
REMARK    8  A    between atoms: C_15  and  C_16
REMARK    9  A    between atoms: C_16  and  C_17
REMARK   10  A    between atoms: C_16  and  C_18
REMARK                            x       y       z     vdW  Elec       q    Type
REMARK                         _______ _______ _______ _____ _____    ______ ____
ROOT
ATOM      1  N   UNL     1       2.131   4.231  18.214  0.00  0.00    +0.000 N 
ATOM      2  C   UNL     1       3.104   3.610  17.473  0.00  0.00    +0.000 C 
ATOM      3  O   UNL     1       3.027   2.428  17.153  0.00  0.00    +0.000 OA
ATOM      4  N   UNL     1       4.164   4.417  17.114  0.00  0.00    +0.000 N 
ATOM      5  C   UNL     1       5.211   3.852  16.260  0.00  0.00    +0.000 C 
ATOM      6  C   UNL     1       5.654   4.858  15.179  0.00  0.00    +0.000 C 
ATOM      7  N   UNL     1       6.019   6.205  15.682  0.00  0.00    +0.000 NA
ATOM      8  C   UNL     1       4.902   6.704  16.524  0.00  0.00    +0.000 C 
ATOM      9  C   UNL     1       4.478   5.744  17.655  0.00  0.00    +0.000 C 
ATOM     10  H   UNL     1       2.005   5.205  17.989  0.00  0.00    +0.000 HD
ENDROOT
BRANCH   1  11
ATOM     11  C   UNL     1       0.905   3.527  18.542  0.00  0.00    +0.000 C 
BRANCH  11  12
ATOM     12  C   UNL     1       0.786   3.311  20.036  0.00  0.00    +0.000 C 
BRANCH  12  13
ATOM     13  C   UNL     1       1.494   4.412  20.775  0.00  0.00    +0.000 C 
ATOM     14  O   UNL     1       1.164   5.588  20.756  0.00  0.00    +0.000 OA
BRANCH  13  15
ATOM     15  O   UNL     1       2.626   3.919  21.348  0.00  0.00    +0.000 OA
BRANCH  15  17
ATOM     16  C   UNL     1       4.144   2.205  20.677  0.00  0.00    +0.000 C 
ATOM     17  C   UNL     1       2.778   2.496  21.272  0.00  0.00    +0.000 C 
ENDBRANCH  15  17
ENDBRANCH  13  15
ENDBRANCH  12  13
ENDBRANCH  11  12
ENDBRANCH   1  11
BRANCH   7  18
ATOM     18  C   UNL     1       7.278   6.226  16.446  0.00  0.00    +0.000 C 
BRANCH  18  19
ATOM     19  C   UNL     1       7.248   6.972  17.798  0.00  0.00    +0.000 C 
ATOM     20  C   UNL     1       7.903   6.173  18.923  0.00  0.00    +0.000 C 
ATOM     21  C   UNL     1       7.951   8.323  17.633  0.00  0.00    +0.000 C 
ENDBRANCH  18  19
ENDBRANCH   7  18
TORSDOF 7
ENDMDL
MODEL 6
REMARK VINA RESULT:      -6.0      3.471      7.191
REMARK  Name = 
REMARK  10 active torsions:
REMARK  status: ('A' for Active; 'I' for Inactive)
REMARK    1  A    between atoms: C_1  and  C_2
REMARK    2  A    between atoms: C_2  and  O_3
REMARK    3  A    between atoms: O_3  and  C_4
REMARK    4  A    between atoms: C_4  and  C_6
REMARK    5  A    between atoms: C_6  and  C_7
REMARK    6  A    between atoms: C_7  and  N_8
REMARK    7  A    between atoms: N_14  and  C_15
REMARK    8  A    between atoms: C_15  and  C_16
REMARK    9  A    between atoms: C_16  and  C_17
REMARK   10  A    between atoms: C_16  and  C_18
REMARK                            x       y       z     vdW  Elec       q    Type
REMARK                         _______ _______ _______ _____ _____    ______ ____
ROOT
ATOM      1  N   UNL     1       5.827   4.207  14.280  0.00  0.00    +0.000 N 
ATOM      2  C   UNL     1       5.538   5.151  15.232  0.00  0.00    +0.000 C 
ATOM      3  O   UNL     1       5.904   6.317  15.128  0.00  0.00    +0.000 OA
ATOM      4  N   UNL     1       4.801   4.689  16.303  0.00  0.00    +0.000 N 
ATOM      5  C   UNL     1       4.387   5.648  17.330  0.00  0.00    +0.000 C 
ATOM      6  C   UNL     1       2.934   5.392  17.780  0.00  0.00    +0.000 C 
ATOM      7  N   UNL     1       2.634   3.996  18.177  0.00  0.00    +0.000 NA
ATOM      8  C   UNL     1       3.073   3.096  17.080  0.00  0.00    +0.000 C 
ATOM      9  C   UNL     1       4.543   3.287  16.650  0.00  0.00    +0.000 C 
ATOM     10  H   UNL     1       5.113   3.505  14.171  0.00  0.00    +0.000 HD
ENDROOT
BRANCH   1  11
ATOM     11  C   UNL     1       6.481   4.596  13.044  0.00  0.00    +0.000 C 
BRANCH  11  12
ATOM     12  C   UNL     1       6.860   3.379  12.226  0.00  0.00    +0.000 C 
BRANCH  12  13
ATOM     13  C   UNL     1       5.624   2.679  11.738  0.00  0.00    +0.000 C 
ATOM     14  O   UNL     1       5.570   1.500  11.420  0.00  0.00    +0.000 OA
BRANCH  13  15
ATOM     15  O   UNL     1       4.622   3.586  11.575  0.00  0.00    +0.000 OA
BRANCH  15  17
ATOM     16  C   UNL     1       3.119   4.167   9.815  0.00  0.00    +0.000 C 
ATOM     17  C   UNL     1       3.483   3.112  10.844  0.00  0.00    +0.000 C 
ENDBRANCH  15  17
ENDBRANCH  13  15
ENDBRANCH  12  13
ENDBRANCH  11  12
ENDBRANCH   1  11
BRANCH   7  18
ATOM     18  C   UNL     1       3.268   3.595  19.445  0.00  0.00    +0.000 C 
BRANCH  18  19
ATOM     19  C   UNL     1       2.337   3.484  20.672  0.00  0.00    +0.000 C 
ATOM     20  C   UNL     1       2.154   4.818  21.393  0.00  0.00    +0.000 C 
ATOM     21  C   UNL     1       0.979   2.942  20.215  0.00  0.00    +0.000 C 
ENDBRANCH  18  19
ENDBRANCH   7  18
TORSDOF 7
ENDMDL
MODEL 7
REMARK VINA RESULT:      -5.9      1.191      1.465
REMARK  Name = 
REMARK  10 active torsions:
REMARK  status: ('A' for Active; 'I' for Inactive)
REMARK    1  A    between atoms: C_1  and  C_2
REMARK    2  A    between atoms: C_2  and  O_3
REMARK    3  A    between atoms: O_3  and  C_4
REMARK    4  A    between atoms: C_4  and  C_6
REMARK    5  A    between atoms: C_6  and  C_7
REMARK    6  A    between atoms: C_7  and  N_8
REMARK    7  A    between atoms: N_14  and  C_15
REMARK    8  A    between atoms: C_15  and  C_16
REMARK    9  A    between atoms: C_16  and  C_17
REMARK   10  A    between atoms: C_16  and  C_18
REMARK                            x       y       z     vdW  Elec       q    Type
REMARK                         _______ _______ _______ _____ _____    ______ ____
ROOT
ATOM      1  N   UNL     1       2.601   5.124  19.029  0.00  0.00    +0.000 N 
ATOM      2  C   UNL     1       3.219   6.147  18.357  0.00  0.00    +0.000 C 
ATOM      3  O   UNL     1       3.034   7.325  18.648  0.00  0.00    +0.000 OA
ATOM      4  N   UNL     1       4.063   5.749  17.342  0.00  0.00    +0.000 N 
ATOM      5  C   UNL     1       4.819   6.777  16.622  0.00  0.00    +0.000 C 
ATOM      6  C   UNL     1       6.270   6.324  16.361  0.00  0.00    +0.000 C 
ATOM      7  N   UNL     1       6.409   4.990  15.728  0.00  0.00    +0.000 NA
ATOM      8  C   UNL     1       5.626   4.012  16.525  0.00  0.00    +0.000 C 
ATOM      9  C   UNL     1       4.152   4.410  16.750  0.00  0.00    +0.000 C 
ATOM     10  H   UNL     1       3.156   4.286  19.097  0.00  0.00    +0.000 HD
ENDROOT
BRANCH   1  11
ATOM     11  C   UNL     1       1.792   5.405  20.201  0.00  0.00    +0.000 C 
BRANCH  11  12
ATOM     12  C   UNL     1       0.901   4.228  20.540  0.00  0.00    +0.000 C 
BRANCH  12  13
ATOM     13  C   UNL     1       1.720   3.110  21.118  0.00  0.00    +0.000 C 
ATOM     14  O   UNL     1       2.144   3.076  22.264  0.00  0.00    +0.000 OA
BRANCH  13  15
ATOM     15  O   UNL     1       2.028   2.218  20.137  0.00  0.00    +0.000 OA
BRANCH  15  17
ATOM     16  C   UNL     1       3.550   1.402  18.490  0.00  0.00    +0.000 C 
ATOM     17  C   UNL     1       3.424   2.111  19.827  0.00  0.00    +0.000 C 
ENDBRANCH  15  17
ENDBRANCH  13  15
ENDBRANCH  12  13
ENDBRANCH  11  12
ENDBRANCH   1  11
BRANCH   7  18
ATOM     18  C   UNL     1       5.977   4.958  14.320  0.00  0.00    +0.000 C 
BRANCH  18  19
ATOM     19  C   UNL     1       6.874   4.165  13.345  0.00  0.00    +0.000 C 
ATOM     20  C   UNL     1       6.066   3.322  12.360  0.00  0.00    +0.000 C 
ATOM     21  C   UNL     1       7.769   5.149  12.585  0.00  0.00    +0.000 C 
ENDBRANCH  18  19
ENDBRANCH   7  18
TORSDOF 7
ENDMDL
MODEL 8
REMARK VINA RESULT:      -5.8      3.318      7.041
REMARK  Name = 
REMARK  10 active torsions:
REMARK  status: ('A' for Active; 'I' for Inactive)
REMARK    1  A    between atoms: C_1  and  C_2
REMARK    2  A    between atoms: C_2  and  O_3
REMARK    3  A    between atoms: O_3  and  C_4
REMARK    4  A    between atoms: C_4  and  C_6
REMARK    5  A    between atoms: C_6  and  C_7
REMARK    6  A    between atoms: C_7  and  N_8
REMARK    7  A    between atoms: N_14  and  C_15
REMARK    8  A    between atoms: C_15  and  C_16
REMARK    9  A    between atoms: C_16  and  C_17
REMARK   10  A    between atoms: C_16  and  C_18
REMARK                            x       y       z     vdW  Elec       q    Type
REMARK                         _______ _______ _______ _____ _____    ______ ____
ROOT
ATOM      1  N   UNL     1       6.548   4.409  14.334  0.00  0.00    +0.000 N 
ATOM      2  C   UNL     1       6.711   5.033  15.543  0.00  0.00    +0.000 C 
ATOM      3  O   UNL     1       7.588   5.870  15.734  0.00  0.00    +0.000 OA
ATOM      4  N   UNL     1       5.813   4.653  16.519  0.00  0.00    +0.000 N 
ATOM      5  C   UNL     1       5.870   5.325  17.819  0.00  0.00    +0.000 C 
ATOM      6  C   UNL     1       4.457   5.637  18.351  0.00  0.00    +0.000 C 
ATOM      7  N   UNL     1       3.521   4.486  18.365  0.00  0.00    +0.000 NA
ATOM      8  C   UNL     1       3.515   3.875  17.011  0.00  0.00    +0.000 C 
ATOM      9  C   UNL     1       4.913   3.495  16.478  0.00  0.00    +0.000 C 
ATOM     10  H   UNL     1       5.591   4.184  14.116  0.00  0.00    +0.000 HD
ENDROOT
BRANCH   1  11
ATOM     11  C   UNL     1       7.344   4.816  13.190  0.00  0.00    +0.000 C 
BRANCH  11  12
ATOM     12  C   UNL     1       6.990   4.001  11.965  0.00  0.00    +0.000 C 
BRANCH  12  13
ATOM     13  C   UNL     1       5.673   3.307  12.168  0.00  0.00    +0.000 C 
ATOM     14  O   UNL     1       4.603   3.876  12.326  0.00  0.00    +0.000 OA
BRANCH  13  15
ATOM     15  O   UNL     1       5.879   1.966  12.287  0.00  0.00    +0.000 OA
BRANCH  15  17
ATOM     16  C   UNL     1       6.181  -0.180  11.289  0.00  0.00    +0.000 C 
ATOM     17  C   UNL     1       6.360   1.317  11.103  0.00  0.00    +0.000 C 
ENDBRANCH  15  17
ENDBRANCH  13  15
ENDBRANCH  12  13
ENDBRANCH  11  12
ENDBRANCH   1  11
BRANCH   7  18
ATOM     18  C   UNL     1       3.852   3.470  19.378  0.00  0.00    +0.000 C 
BRANCH  18  19
ATOM     19  C   UNL     1       2.757   3.158  20.421  0.00  0.00    +0.000 C 
ATOM     20  C   UNL     1       2.109   4.421  20.986  0.00  0.00    +0.000 C 
ATOM     21  C   UNL     1       1.694   2.268  19.770  0.00  0.00    +0.000 C 
ENDBRANCH  18  19
ENDBRANCH   7  18
TORSDOF 7
ENDMDL
MODEL 9
REMARK VINA RESULT:      -5.8      1.196      1.679
REMARK  Name = 
REMARK  10 active torsions:
REMARK  status: ('A' for Active; 'I' for Inactive)
REMARK    1  A    between atoms: C_1  and  C_2
REMARK    2  A    between atoms: C_2  and  O_3
REMARK    3  A    between atoms: O_3  and  C_4
REMARK    4  A    between atoms: C_4  and  C_6
REMARK    5  A    between atoms: C_6  and  C_7
REMARK    6  A    between atoms: C_7  and  N_8
REMARK    7  A    between atoms: N_14  and  C_15
REMARK    8  A    between atoms: C_15  and  C_16
REMARK    9  A    between atoms: C_16  and  C_17
REMARK   10  A    between atoms: C_16  and  C_18
REMARK                            x       y       z     vdW  Elec       q    Type
REMARK                         _______ _______ _______ _____ _____    ______ ____
ROOT
ATOM      1  N   UNL     1       2.998   4.704  19.480  0.00  0.00    +0.000 N 
ATOM      2  C   UNL     1       3.312   5.897  18.883  0.00  0.00    +0.000 C 
ATOM      3  O   UNL     1       2.789   6.954  19.221  0.00  0.00    +0.000 OA
ATOM      4  N   UNL     1       4.261   5.816  17.885  0.00  0.00    +0.000 N 
ATOM      5  C   UNL     1       4.707   7.056  17.245  0.00  0.00    +0.000 C 
ATOM      6  C   UNL     1       6.233   7.051  17.022  0.00  0.00    +0.000 C 
ATOM      7  N   UNL     1       6.766   5.852  16.333  0.00  0.00    +0.000 NA
ATOM      8  C   UNL     1       6.277   4.647  17.051  0.00  0.00    +0.000 C 
ATOM      9  C   UNL     1       4.745   4.594  17.234  0.00  0.00    +0.000 C 
ATOM     10  H   UNL     1       3.769   4.057  19.531  0.00  0.00    +0.000 HD
ENDROOT
BRANCH   1  11
ATOM     11  C   UNL     1       2.113   4.675  20.631  0.00  0.00    +0.000 C 
BRANCH  11  12
ATOM     12  C   UNL     1       1.036   3.625  20.460  0.00  0.00    +0.000 C 
BRANCH  12  13
ATOM     13  C   UNL     1       1.266   2.850  19.193  0.00  0.00    +0.000 C 
ATOM     14  O   UNL     1       0.783   3.132  18.106  0.00  0.00    +0.000 OA
BRANCH  13  15
ATOM     15  O   UNL     1       1.975   1.722  19.472  0.00  0.00    +0.000 OA
BRANCH  15  17
ATOM     16  C   UNL     1       4.357   1.640  19.561  0.00  0.00    +0.000 C 
ATOM     17  C   UNL     1       3.140   1.518  18.662  0.00  0.00    +0.000 C 
ENDBRANCH  15  17
ENDBRANCH  13  15
ENDBRANCH  12  13
ENDBRANCH  11  12
ENDBRANCH   1  11
BRANCH   7  18
ATOM     18  C   UNL     1       6.397   5.778  14.909  0.00  0.00    +0.000 C 
BRANCH  18  19
ATOM     19  C   UNL     1       7.073   4.663  14.082  0.00  0.00    +0.000 C 
ATOM     20  C   UNL     1       6.063   3.720  13.431  0.00  0.00    +0.000 C 
ATOM     21  C   UNL     1       7.957   5.309  13.010  0.00  0.00    +0.000 C 
ENDBRANCH  18  19
ENDBRANCH   7  18
TORSDOF 7
ENDMDL
