MODEL 1
REMARK VINA RESULT:      -7.9      0.000      0.000
REMARK  Name = 
REMARK  6 active torsions:
REMARK  status: ('A' for Active; 'I' for Inactive)
REMARK    1  A    between atoms: C_1  and  C_2
REMARK    2  A    between atoms: C_5  and  C_6
REMARK    3  A    between atoms: C_7  and  C_8
REMARK    4  A    between atoms: C_8  and  N_9
REMARK    5  A    between atoms: N_15  and  C_16
REMARK    6  A    between atoms: C_16  and  C_17
REMARK                            x       y       z     vdW  Elec       q    Type
REMARK                         _______ _______ _______ _____ _____    ______ ____
ROOT
ATOM      1  N   UNL     1       4.896   4.036  17.899  0.00  0.00    +0.000 NA
ATOM      2  C   UNL     1       4.621   3.009  18.929  0.00  0.00    +0.000 C 
ATOM      3  C   UNL     1       3.170   2.551  19.114  0.00  0.00    +0.000 C 
ATOM      4  O   UNL     1       2.274   3.655  19.192  0.00  0.00    +0.000 OA
ATOM      5  C   UNL     1       2.359   4.451  18.004  0.00  0.00    +0.000 C 
ATOM      6  C   UNL     1       1.544   5.726  18.214  0.00  0.00    +0.000 C 
ATOM      7  N   UNL     1       2.449   6.722  18.829  0.00  0.00    +0.000 NA
ATOM      8  C   UNL     1       3.824   6.165  18.759  0.00  0.00    +0.000 C 
ATOM      9  C   UNL     1       3.772   4.997  17.767  0.00  0.00    +0.000 C 
ENDROOT
BRANCH   1  10
ATOM     10  C   UNL     1       5.252   3.502  16.580  0.00  0.00    +0.000 C 
BRANCH  10  17
ATOM     11  C   UNL     1       5.862   3.687  13.292  0.00  0.00    +0.000 C 
ATOM     12  C   UNL     1       6.467   4.449  14.412  0.00  0.00    +0.000 A 
ATOM     13  N   UNL     1       7.400   5.372  14.149  0.00  0.00    +0.000 NA
ATOM     14  O   UNL     1       7.769   5.899  15.367  0.00  0.00    +0.000 OA
ATOM     15  C   UNL     1       7.061   5.301  16.356  0.00  0.00    +0.000 A 
ATOM     16  C   UNL     1       7.371   5.737  17.729  0.00  0.00    +0.000 C 
ATOM     17  C   UNL     1       6.189   4.373  15.808  0.00  0.00    +0.000 A 
ENDBRANCH  10  17
ENDBRANCH   1  10
BRANCH   7  18
ATOM     18  C   UNL     1       2.046   7.014  20.217  0.00  0.00    +0.000 C 
BRANCH  18  19
ATOM     19  C   UNL     1       1.324   8.339  20.332  0.00  0.00    +0.000 A 
ATOM     20  C   UNL     1       0.591   8.652  21.487  0.00  0.00    +0.000 A 
ATOM     21  C   UNL     1      -0.204   9.799  21.525  0.00  0.00    +0.000 A 
ATOM     22  C   UNL     1      -0.260  10.636  20.416  0.00  0.00    +0.000 A 
ATOM     23  F   UNL     1      -1.067  11.705  20.434  0.00  0.00    +0.000 F 
ATOM     24  C   UNL     1       0.495  10.368  19.282  0.00  0.00    +0.000 A 
ATOM     25  C   UNL     1       1.295   9.222  19.243  0.00  0.00    +0.000 A 
ENDBRANCH  18  19
ENDBRANCH   7  18
TORSDOF 4
ENDMDL
MODEL 2
REMARK VINA RESULT:      -7.8      4.071      8.289
REMARK  Name = 
REMARK  6 active torsions:
REMARK  status: ('A' for Active; 'I' for Inactive)
REMARK    1  A    between atoms: C_1  and  C_2
REMARK    2  A    between atoms: C_5  and  C_6
REMARK    3  A    between atoms: C_7  and  C_8
REMARK    4  A    between atoms: C_8  and  N_9
REMARK    5  A    between atoms: N_15  and  C_16
REMARK    6  A    between atoms: C_16  and  C_17
REMARK                            x       y       z     vdW  Elec       q    Type
REMARK                         _______ _______ _______ _____ _____    ______ ____
ROOT
ATOM      1  N   UNL     1       6.122   4.450  18.417  0.00  0.00    +0.000 NA
ATOM      2  C   UNL     1       7.436   5.106  18.607  0.00  0.00    +0.000 C 
ATOM      3  C   UNL     1       7.601   6.540  18.091  0.00  0.00    +0.000 C 
ATOM      4  O   UNL     1       7.106   6.684  16.764  0.00  0.00    +0.000 OA
ATOM      5  C   UNL     1       5.719   6.331  16.709  0.00  0.00    +0.000 C 
ATOM      6  C   UNL     1       5.284   6.300  15.244  0.00  0.00    +0.000 C 
ATOM      7  N   UNL     1       5.552   4.934  14.742  0.00  0.00    +0.000 NA
ATOM      8  C   UNL     1       5.894   4.095  15.918  0.00  0.00    +0.000 C 
ATOM      9  C   UNL     1       5.465   4.887  17.159  0.00  0.00    +0.000 C 
ENDROOT
BRANCH   1  10
ATOM     10  C   UNL     1       5.193   4.601  19.542  0.00  0.00    +0.000 C 
BRANCH  10  17
ATOM     11  C   UNL     1       3.760   1.693  18.702  0.00  0.00    +0.000 C 
ATOM     12  C   UNL     1       3.159   3.043  18.830  0.00  0.00    +0.000 A 
ATOM     13  N   UNL     1       1.851   3.204  18.596  0.00  0.00    +0.000 NA
ATOM     14  O   UNL     1       1.591   4.543  18.787  0.00  0.00    +0.000 OA
ATOM     15  C   UNL     1       2.733   5.184  19.136  0.00  0.00    +0.000 A 
ATOM     16  C   UNL     1       2.621   6.639  19.341  0.00  0.00    +0.000 C 
ATOM     17  C   UNL     1       3.775   4.274  19.203  0.00  0.00    +0.000 A 
ENDBRANCH  10  17
ENDBRANCH   1  10
BRANCH   7  18
ATOM     18  C   UNL     1       6.636   4.944  13.742  0.00  0.00    +0.000 C 
BRANCH  18  19
ATOM     19  C   UNL     1       6.465   3.852  12.707  0.00  0.00    +0.000 A 
ATOM     20  C   UNL     1       5.189   3.362  12.394  0.00  0.00    +0.000 A 
ATOM     21  C   UNL     1       5.048   2.248  11.565  0.00  0.00    +0.000 A 
ATOM     22  C   UNL     1       6.179   1.632  11.041  0.00  0.00    +0.000 A 
ATOM     23  F   UNL     1       6.044   0.530  10.290  0.00  0.00    +0.000 F 
ATOM     24  C   UNL     1       7.448   2.132  11.301  0.00  0.00    +0.000 A 
ATOM     25  C   UNL     1       7.591   3.249  12.129  0.00  0.00    +0.000 A 
ENDBRANCH  18  19
ENDBRANCH   7  18
TORSDOF 4
ENDMDL
MODEL 3
REMARK VINA RESULT:      -7.7      4.035      8.363
REMARK  Name = 
REMARK  6 active torsions:
REMARK  status: ('A' for Active; 'I' for Inactive)
REMARK    1  A    between atoms: C_1  and  C_2
REMARK    2  A    between atoms: C_5  and  C_6
REMARK    3  A    between atoms: C_7  and  C_8
REMARK    4  A    between atoms: C_8  and  N_9
REMARK    5  A    between atoms: N_15  and  C_16
REMARK    6  A    between atoms: C_16  and  C_17
REMARK                            x       y       z     vdW  Elec       q    Type
REMARK                         _______ _______ _______ _____ _____    ______ ____
ROOT
ATOM      1  N   UNL     1       6.149   4.403  18.392  0.00  0.00    +0.000 NA
ATOM      2  C   UNL     1       7.466   5.055  18.577  0.00  0.00    +0.000 C 
ATOM      3  C   UNL     1       7.628   6.495  18.077  0.00  0.00    +0.000 C 
ATOM      4  O   UNL     1       7.121   6.655  16.756  0.00  0.00    +0.000 OA
ATOM      5  C   UNL     1       5.733   6.304  16.710  0.00  0.00    +0.000 C 
ATOM      6  C   UNL     1       5.285   6.291  15.249  0.00  0.00    +0.000 C 
ATOM      7  N   UNL     1       5.546   4.931  14.728  0.00  0.00    +0.000 NA
ATOM      8  C   UNL     1       5.898   4.077  15.891  0.00  0.00    +0.000 C 
ATOM      9  C   UNL     1       5.482   4.856  17.145  0.00  0.00    +0.000 C 
ENDROOT
BRANCH   1  10
ATOM     10  C   UNL     1       5.231   4.542  19.527  0.00  0.00    +0.000 C 
BRANCH  10  17
ATOM     11  C   UNL     1       2.587   6.592  19.368  0.00  0.00    +0.000 C 
ATOM     12  C   UNL     1       2.668   5.130  19.130  0.00  0.00    +0.000 A 
ATOM     13  N   UNL     1       1.561   4.458  18.791  0.00  0.00    +0.000 NA
ATOM     14  O   UNL     1       1.943   3.143  18.643  0.00  0.00    +0.000 OA
ATOM     15  C   UNL     1       3.271   3.023  18.888  0.00  0.00    +0.000 A 
ATOM     16  C   UNL     1       3.824   1.660  18.803  0.00  0.00    +0.000 C 
ATOM     17  C   UNL     1       3.803   4.268  19.186  0.00  0.00    +0.000 A 
ENDBRANCH  10  17
ENDBRANCH   1  10
BRANCH   7  18
ATOM     18  C   UNL     1       6.621   4.951  13.718  0.00  0.00    +0.000 C 
BRANCH  18  19
ATOM     19  C   UNL     1       6.456   3.852  12.690  0.00  0.00    +0.000 A 
ATOM     20  C   UNL     1       5.184   3.344  12.389  0.00  0.00    +0.000 A 
ATOM     21  C   UNL     1       5.052   2.225  11.566  0.00  0.00    +0.000 A 
ATOM     22  C   UNL     1       6.186   1.620  11.037  0.00  0.00    +0.000 A 
ATOM     23  F   UNL     1       6.060   0.512  10.293  0.00  0.00    +0.000 F 
ATOM     24  C   UNL     1       7.451   2.137  11.285  0.00  0.00    +0.000 A 
ATOM     25  C   UNL     1       7.586   3.261  12.107  0.00  0.00    +0.000 A 
ENDBRANCH  18  19
ENDBRANCH   7  18
TORSDOF 4
ENDMDL
MODEL 4
REMARK VINA RESULT:      -7.7      0.617      1.690
REMARK  Name = 
REMARK  6 active torsions:
REMARK  status: ('A' for Active; 'I' for Inactive)
REMARK    1  A    between atoms: C_1  and  C_2
REMARK    2  A    between atoms: C_5  and  C_6
REMARK    3  A    between atoms: C_7  and  C_8
REMARK    4  A    between atoms: C_8  and  N_9
REMARK    5  A    between atoms: N_15  and  C_16
REMARK    6  A    between atoms: C_16  and  C_17
REMARK                            x       y       z     vdW  Elec       q    Type
REMARK                         _______ _______ _______ _____ _____    ______ ____
ROOT
ATOM      1  N   UNL     1       4.769   3.827  18.195  0.00  0.00    +0.000 NA
ATOM      2  C   UNL     1       4.246   2.733  19.045  0.00  0.00    +0.000 C 
ATOM      3  C   UNL     1       2.752   2.407  18.952  0.00  0.00    +0.000 C 
ATOM      4  O   UNL     1       1.950   3.581  19.021  0.00  0.00    +0.000 OA
ATOM      5  C   UNL     1       2.293   4.481  17.960  0.00  0.00    +0.000 C 
ATOM      6  C   UNL     1       1.562   5.803  18.190  0.00  0.00    +0.000 C 
ATOM      7  N   UNL     1       2.435   6.636  19.048  0.00  0.00    +0.000 NA
ATOM      8  C   UNL     1       3.752   5.954  19.124  0.00  0.00    +0.000 C 
ATOM      9  C   UNL     1       3.766   4.904  18.006  0.00  0.00    +0.000 C 
ENDROOT
BRANCH   1  10
ATOM     10  C   UNL     1       5.290   3.397  16.893  0.00  0.00    +0.000 C 
BRANCH  10  17
ATOM     11  C   UNL     1       7.322   5.696  18.237  0.00  0.00    +0.000 C 
ATOM     12  C   UNL     1       7.057   5.382  16.811  0.00  0.00    +0.000 A 
ATOM     13  N   UNL     1       7.693   6.075  15.858  0.00  0.00    +0.000 NA
ATOM     14  O   UNL     1       7.247   5.569  14.657  0.00  0.00    +0.000 OA
ATOM     15  C   UNL     1       6.353   4.577  14.884  0.00  0.00    +0.000 A 
ATOM     16  C   UNL     1       5.757   3.957  13.688  0.00  0.00    +0.000 C 
ATOM     17  C   UNL     1       6.201   4.390  16.249  0.00  0.00    +0.000 A 
ENDBRANCH  10  17
ENDBRANCH   1  10
BRANCH   7  18
ATOM     18  C   UNL     1       1.837   6.824  20.383  0.00  0.00    +0.000 C 
BRANCH  18  19
ATOM     19  C   UNL     1       1.370   8.247  20.601  0.00  0.00    +0.000 A 
ATOM     20  C   UNL     1       0.952   8.672  21.870  0.00  0.00    +0.000 A 
ATOM     21  C   UNL     1       0.369   9.930  22.034  0.00  0.00    +0.000 A 
ATOM     22  C   UNL     1       0.215  10.766  20.933  0.00  0.00    +0.000 A 
ATOM     23  F   UNL     1      -0.394  11.950  21.082  0.00  0.00    +0.000 F 
ATOM     24  C   UNL     1       0.667  10.382  19.678  0.00  0.00    +0.000 A 
ATOM     25  C   UNL     1       1.253   9.123  19.512  0.00  0.00    +0.000 A 
ENDBRANCH  18  19
ENDBRANCH   7  18
TORSDOF 4
ENDMDL
MODEL 5
REMARK VINA RESULT:      -7.7      3.516      7.930
REMARK  Name = 
REMARK  6 active torsions:
REMARK  status: ('A' for Active; 'I' for Inactive)
REMARK    1  A    between atoms: C_1  and  C_2
REMARK    2  A    between atoms: C_5  and  C_6
REMARK    3  A    between atoms: C_7  and  C_8
REMARK    4  A    between atoms: C_8  and  N_9
REMARK    5  A    between atoms: N_15  and  C_16
REMARK    6  A    between atoms: C_16  and  C_17
REMARK                            x       y       z     vdW  Elec       q    Type
REMARK                         _______ _______ _______ _____ _____    ______ ____
ROOT
ATOM      1  N   UNL     1       2.119   6.295  19.561  0.00  0.00    +0.000 NA
ATOM      2  C   UNL     1       1.597   4.985  20.015  0.00  0.00    +0.000 C 
ATOM      3  C   UNL     1       2.593   3.988  20.615  0.00  0.00    +0.000 C 
ATOM      4  O   UNL     1       3.761   3.860  19.812  0.00  0.00    +0.000 OA
ATOM      5  C   UNL     1       4.409   5.130  19.670  0.00  0.00    +0.000 C 
ATOM      6  C   UNL     1       5.530   4.989  18.641  0.00  0.00    +0.000 C 
ATOM      7  N   UNL     1       4.934   5.254  17.312  0.00  0.00    +0.000 NA
ATOM      8  C   UNL     1       3.568   5.787  17.545  0.00  0.00    +0.000 C 
ATOM      9  C   UNL     1       3.499   6.181  19.025  0.00  0.00    +0.000 C 
ENDROOT
BRANCH   1  10
ATOM     10  C   UNL     1       2.061   7.360  20.567  0.00  0.00    +0.000 C 
BRANCH  10  17
ATOM     11  C   UNL     1       2.071   9.251  17.802  0.00  0.00    +0.000 C 
ATOM     12  C   UNL     1       1.209   9.337  19.006  0.00  0.00    +0.000 A 
ATOM     13  N   UNL     1       0.264  10.284  19.069  0.00  0.00    +0.000 NA
ATOM     14  O   UNL     1      -0.360  10.119  20.286  0.00  0.00    +0.000 OA
ATOM     15  C   UNL     1       0.202   9.079  20.949  0.00  0.00    +0.000 A 
ATOM     16  C   UNL     1      -0.340   8.799  22.291  0.00  0.00    +0.000 C 
ATOM     17  C   UNL     1       1.202   8.518  20.172  0.00  0.00    +0.000 A 
ENDBRANCH  10  17
ENDBRANCH   1  10
BRANCH   7  18
ATOM     18  C   UNL     1       4.914   4.029  16.491  0.00  0.00    +0.000 C 
BRANCH  18  19
ATOM     19  C   UNL     1       5.578   4.235  15.147  0.00  0.00    +0.000 A 
ATOM     20  C   UNL     1       5.076   3.602  14.001  0.00  0.00    +0.000 A 
ATOM     21  C   UNL     1       5.783   3.661  12.798  0.00  0.00    +0.000 A 
ATOM     22  C   UNL     1       6.983   4.361  12.739  0.00  0.00    +0.000 A 
ATOM     23  F   UNL     1       7.688   4.370  11.599  0.00  0.00    +0.000 F 
ATOM     24  C   UNL     1       7.472   5.034  13.850  0.00  0.00    +0.000 A 
ATOM     25  C   UNL     1       6.764   4.978  15.055  0.00  0.00    +0.000 A 
ENDBRANCH  18  19
ENDBRANCH   7  18
TORSDOF 4
ENDMDL
MODEL 6
REMARK VINA RESULT:      -7.6      0.539      1.919
REMARK  Name = 
REMARK  6 active torsions:
REMARK  status: ('A' for Active; 'I' for Inactive)
REMARK    1  A    between atoms: C_1  and  C_2
REMARK    2  A    between atoms: C_5  and  C_6
REMARK    3  A    between atoms: C_7  and  C_8
REMARK    4  A    between atoms: C_8  and  N_9
REMARK    5  A    between atoms: N_15  and  C_16
REMARK    6  A    between atoms: C_16  and  C_17
REMARK                            x       y       z     vdW  Elec       q    Type
REMARK                         _______ _______ _______ _____ _____    ______ ____
ROOT
ATOM      1  N   UNL     1       4.654   3.782  17.956  0.00  0.00    +0.000 NA
ATOM      2  C   UNL     1       4.124   2.739  18.864  0.00  0.00    +0.000 C 
ATOM      3  C   UNL     1       2.609   2.508  18.882  0.00  0.00    +0.000 C 
ATOM      4  O   UNL     1       1.890   3.733  18.980  0.00  0.00    +0.000 OA
ATOM      5  C   UNL     1       2.213   4.590  17.878  0.00  0.00    +0.000 C 
ATOM      6  C   UNL     1       1.585   5.960  18.128  0.00  0.00    +0.000 C 
ATOM      7  N   UNL     1       2.566   6.750  18.905  0.00  0.00    +0.000 NA
ATOM      8  C   UNL     1       3.840   5.987  18.905  0.00  0.00    +0.000 C 
ATOM      9  C   UNL     1       3.709   4.918  17.813  0.00  0.00    +0.000 C 
ENDROOT
BRANCH   1  10
ATOM     10  C   UNL     1       5.054   3.296  16.631  0.00  0.00    +0.000 C 
BRANCH  10  17
ATOM     11  C   UNL     1       7.380   5.399  17.807  0.00  0.00    +0.000 C 
ATOM     12  C   UNL     1       6.983   5.113  16.407  0.00  0.00    +0.000 A 
ATOM     13  N   UNL     1       7.606   5.746  15.406  0.00  0.00    +0.000 NA
ATOM     14  O   UNL     1       7.028   5.284  14.244  0.00  0.00    +0.000 OA
ATOM     15  C   UNL     1       6.066   4.377  14.543  0.00  0.00    +0.000 A 
ATOM     16  C   UNL     1       5.329   3.815  13.397  0.00  0.00    +0.000 C 
ATOM     17  C   UNL     1       6.000   4.203  15.916  0.00  0.00    +0.000 A 
ENDBRANCH  10  17
ENDBRANCH   1  10
BRANCH   7  18
ATOM     18  C   UNL     1       2.077   7.001  20.273  0.00  0.00    +0.000 C 
BRANCH  18  19
ATOM     19  C   UNL     1       1.300   8.296  20.370  0.00  0.00    +0.000 A 
ATOM     20  C   UNL     1       1.363   9.243  19.338  0.00  0.00    +0.000 A 
ATOM     21  C   UNL     1       0.779  10.501  19.501  0.00  0.00    +0.000 A 
ATOM     22  C   UNL     1       0.125  10.807  20.689  0.00  0.00    +0.000 A 
ATOM     23  F   UNL     1      -0.385  12.034  20.866  0.00  0.00    +0.000 F 
ATOM     24  C   UNL     1       0.011   9.866  21.704  0.00  0.00    +0.000 A 
ATOM     25  C   UNL     1       0.592   8.605  21.541  0.00  0.00    +0.000 A 
ENDBRANCH  18  19
ENDBRANCH   7  18
TORSDOF 4
ENDMDL
MODEL 7
REMARK VINA RESULT:      -7.5      3.478      7.954
REMARK  Name = 
REMARK  6 active torsions:
REMARK  status: ('A' for Active; 'I' for Inactive)
REMARK    1  A    between atoms: C_1  and  C_2
REMARK    2  A    between atoms: C_5  and  C_6
REMARK    3  A    between atoms: C_7  and  C_8
REMARK    4  A    between atoms: C_8  and  N_9
REMARK    5  A    between atoms: N_15  and  C_16
REMARK    6  A    between atoms: C_16  and  C_17
REMARK                            x       y       z     vdW  Elec       q    Type
REMARK                         _______ _______ _______ _____ _____    ______ ____
ROOT
ATOM      1  N   UNL     1       2.266   6.154  19.395  0.00  0.00    +0.000 NA
ATOM      2  C   UNL     1       1.607   4.869  19.723  0.00  0.00    +0.000 C 
ATOM      3  C   UNL     1       2.464   3.767  20.354  0.00  0.00    +0.000 C 
ATOM      4  O   UNL     1       3.691   3.586  19.655  0.00  0.00    +0.000 OA
ATOM      5  C   UNL     1       4.442   4.806  19.646  0.00  0.00    +0.000 C 
ATOM      6  C   UNL     1       5.643   4.629  18.718  0.00  0.00    +0.000 C 
ATOM      7  N   UNL     1       5.199   5.006  17.358  0.00  0.00    +0.000 NA
ATOM      8  C   UNL     1       3.860   5.634  17.494  0.00  0.00    +0.000 C 
ATOM      9  C   UNL     1       3.679   5.958  18.982  0.00  0.00    +0.000 C 
ENDROOT
BRANCH   1  10
ATOM     10  C   UNL     1       2.192   7.169  20.451  0.00  0.00    +0.000 C 
BRANCH  10  17
ATOM     11  C   UNL     1      -0.263   8.747  22.095  0.00  0.00    +0.000 C 
ATOM     12  C   UNL     1       0.327   9.039  20.765  0.00  0.00    +0.000 A 
ATOM     13  N   UNL     1      -0.134  10.076  20.056  0.00  0.00    +0.000 NA
ATOM     14  O   UNL     1       0.591  10.091  18.885  0.00  0.00    +0.000 OA
ATOM     15  C   UNL     1       1.485   9.072  18.890  0.00  0.00    +0.000 A 
ATOM     16  C   UNL     1       2.316   8.936  17.681  0.00  0.00    +0.000 C 
ATOM     17  C   UNL     1       1.383   8.369  20.079  0.00  0.00    +0.000 A 
ENDBRANCH  10  17
ENDBRANCH   1  10
BRANCH   7  18
ATOM     18  C   UNL     1       5.166   3.830  16.469  0.00  0.00    +0.000 C 
BRANCH  18  19
ATOM     19  C   UNL     1       5.743   4.133  15.103  0.00  0.00    +0.000 A 
ATOM     20  C   UNL     1       5.234   3.500  13.959  0.00  0.00    +0.000 A 
ATOM     21  C   UNL     1       5.872   3.656  12.727  0.00  0.00    +0.000 A 
ATOM     22  C   UNL     1       7.010   4.451  12.636  0.00  0.00    +0.000 A 
ATOM     23  F   UNL     1       7.653   4.554  11.465  0.00  0.00    +0.000 F 
ATOM     24  C   UNL     1       7.500   5.123  13.748  0.00  0.00    +0.000 A 
ATOM     25  C   UNL     1       6.861   4.971  14.982  0.00  0.00    +0.000 A 
ENDBRANCH  18  19
ENDBRANCH   7  18
TORSDOF 4
ENDMDL
MODEL 8
REMARK VINA RESULT:      -7.4      3.826      6.647
REMARK  Name = 
REMARK  6 active torsions:
REMARK  status: ('A' for Active; 'I' for Inactive)
REMARK    1  A    between atoms: C_1  and  C_2
REMARK    2  A    between atoms: C_5  and  C_6
REMARK    3  A    between atoms: C_7  and  C_8
REMARK    4  A    between atoms: C_8  and  N_9
REMARK    5  A    between atoms: N_15  and  C_16
REMARK    6  A    between atoms: C_16  and  C_17
REMARK                            x       y       z     vdW  Elec       q    Type
REMARK                         _______ _______ _______ _____ _____    ______ ____
ROOT
ATOM      1  N   UNL     1       4.725   5.247  16.591  0.00  0.00    +0.000 NA
ATOM      2  C   UNL     1       5.472   4.769  15.405  0.00  0.00    +0.000 C 
ATOM      3  C   UNL     1       6.863   4.166  15.630  0.00  0.00    +0.000 C 
ATOM      4  O   UNL     1       7.659   4.982  16.484  0.00  0.00    +0.000 OA
ATOM      5  C   UNL     1       7.017   5.148  17.754  0.00  0.00    +0.000 C 
ATOM      6  C   UNL     1       7.797   6.188  18.558  0.00  0.00    +0.000 C 
ATOM      7  N   UNL     1       7.237   7.513  18.210  0.00  0.00    +0.000 NA
ATOM      8  C   UNL     1       6.000   7.273  17.425  0.00  0.00    +0.000 C 
ATOM      9  C   UNL     1       5.634   5.797  17.628  0.00  0.00    +0.000 C 
ENDROOT
BRANCH   1  10
ATOM     10  C   UNL     1       3.826   4.255  17.191  0.00  0.00    +0.000 C 
BRANCH  10  17
ATOM     11  C   UNL     1       2.293   7.096  18.086  0.00  0.00    +0.000 C 
ATOM     12  C   UNL     1       2.605   5.892  18.894  0.00  0.00    +0.000 A 
ATOM     13  N   UNL     1       2.246   5.857  20.184  0.00  0.00    +0.000 NA
ATOM     14  O   UNL     1       2.667   4.636  20.664  0.00  0.00    +0.000 OA
ATOM     15  C   UNL     1       3.271   3.939  19.670  0.00  0.00    +0.000 A 
ATOM     16  C   UNL     1       3.808   2.618  20.041  0.00  0.00    +0.000 C 
ATOM     17  C   UNL     1       3.246   4.680  18.500  0.00  0.00    +0.000 A 
ENDBRANCH  10  17
ENDBRANCH   1  10
BRANCH   7  18
ATOM     18  C   UNL     1       8.217   8.317  17.456  0.00  0.00    +0.000 C 
BRANCH  18  19
ATOM     19  C   UNL     1       8.520   9.632  18.141  0.00  0.00    +0.000 A 
ATOM     20  C   UNL     1       8.237  10.849  17.503  0.00  0.00    +0.000 A 
ATOM     21  C   UNL     1       8.665  12.053  18.064  0.00  0.00    +0.000 A 
ATOM     22  C   UNL     1       9.366  12.043  19.265  0.00  0.00    +0.000 A 
ATOM     23  F   UNL     1       9.825  13.195  19.773  0.00  0.00    +0.000 F 
ATOM     24  C   UNL     1       9.614  10.853  19.936  0.00  0.00    +0.000 A 
ATOM     25  C   UNL     1       9.183   9.645  19.377  0.00  0.00    +0.000 A 
ENDBRANCH  18  19
ENDBRANCH   7  18
TORSDOF 4
ENDMDL
MODEL 9
REMARK VINA RESULT:      -7.4      0.854      1.305
REMARK  Name = 
REMARK  6 active torsions:
REMARK  status: ('A' for Active; 'I' for Inactive)
REMARK    1  A    between atoms: C_1  and  C_2
REMARK    2  A    between atoms: C_5  and  C_6
REMARK    3  A    between atoms: C_7  and  C_8
REMARK    4  A    between atoms: C_8  and  N_9
REMARK    5  A    between atoms: N_15  and  C_16
REMARK    6  A    between atoms: C_16  and  C_17
REMARK                            x       y       z     vdW  Elec       q    Type
REMARK                         _______ _______ _______ _____ _____    ______ ____
ROOT
ATOM      1  N   UNL     1       4.916   4.058  18.765  0.00  0.00    +0.000 NA
ATOM      2  C   UNL     1       4.242   3.068  19.635  0.00  0.00    +0.000 C 
ATOM      3  C   UNL     1       2.776   2.735  19.337  0.00  0.00    +0.000 C 
ATOM      4  O   UNL     1       1.997   3.911  19.144  0.00  0.00    +0.000 OA
ATOM      5  C   UNL     1       2.524   4.685  18.060  0.00  0.00    +0.000 C 
ATOM      6  C   UNL     1       1.792   6.026  18.021  0.00  0.00    +0.000 C 
ATOM      7  N   UNL     1       2.531   6.949  18.911  0.00  0.00    +0.000 NA
ATOM      8  C   UNL     1       3.805   6.278  19.275  0.00  0.00    +0.000 C 
ATOM      9  C   UNL     1       3.978   5.109  18.298  0.00  0.00    +0.000 C 
ENDROOT
BRANCH   1  10
ATOM     10  C   UNL     1       5.632   3.484  17.621  0.00  0.00    +0.000 C 
BRANCH  10  17
ATOM     11  C   UNL     1       5.701   3.949  14.305  0.00  0.00    +0.000 C 
ATOM     12  C   UNL     1       6.403   4.691  15.380  0.00  0.00    +0.000 A 
ATOM     13  N   UNL     1       7.198   5.718  15.057  0.00  0.00    +0.000 NA
ATOM     14  O   UNL     1       7.705   6.197  16.245  0.00  0.00    +0.000 OA
ATOM     15  C   UNL     1       7.216   5.466  17.276  0.00  0.00    +0.000 A 
ATOM     16  C   UNL     1       7.698   5.839  18.619  0.00  0.00    +0.000 C 
ATOM     17  C   UNL     1       6.355   4.495  16.792  0.00  0.00    +0.000 A 
ENDBRANCH  10  17
ENDBRANCH   1  10
BRANCH   7  18
ATOM     18  C   UNL     1       1.729   7.287  20.102  0.00  0.00    +0.000 C 
BRANCH  18  19
ATOM     19  C   UNL     1       1.271   8.729  20.088  0.00  0.00    +0.000 A 
ATOM     20  C   UNL     1       1.311   9.477  18.902  0.00  0.00    +0.000 A 
ATOM     21  C   UNL     1       1.044  10.847  18.926  0.00  0.00    +0.000 A 
ATOM     22  C   UNL     1       0.728  11.466  20.130  0.00  0.00    +0.000 A 
ATOM     23  F   UNL     1       0.527  12.791  20.160  0.00  0.00    +0.000 F 
ATOM     24  C   UNL     1       0.636  10.734  21.306  0.00  0.00    +0.000 A 
ATOM     25  C   UNL     1       0.900   9.361  21.284  0.00  0.00    +0.000 A 
ENDBRANCH  18  19
ENDBRANCH   7  18
TORSDOF 4
ENDMDL
