MODEL 1
REMARK VINA RESULT:      -8.3      0.000      0.000
REMARK  Name = 
REMARK  6 active torsions:
REMARK  status: ('A' for Active; 'I' for Inactive)
REMARK    1  A    between atoms: C_1  and  C_2
REMARK    2  A    between atoms: C_2  and  C_3
REMARK    3  A    between atoms: C_5  and  N_6
REMARK    4  A    between atoms: C_10  and  C_11
REMARK    5  A    between atoms: C_23  and  C_24
REMARK    6  A    between atoms: C_23  and  C_25
REMARK                            x       y       z     vdW  Elec       q    Type
REMARK                         _______ _______ _______ _____ _____    ______ ____
ROOT
ATOM      1  N   UNL     1       3.121   7.286  17.332  0.00  0.00    +0.000 N 
ATOM      2  C   UNL     1       2.380   8.181  18.123  0.00  0.00    +0.000 A 
ATOM      3  C   UNL     1       2.091   9.427  17.590  0.00  0.00    +0.000 A 
ATOM      4  C   UNL     1       1.422  10.370  18.367  0.00  0.00    +0.000 A 
ATOM      5  C   UNL     1       1.019  10.018  19.645  0.00  0.00    +0.000 A 
ATOM      6  N   UNL     1       1.283   8.787  20.133  0.00  0.00    +0.000 NA
ATOM      7  N   UNL     1       1.966   7.867  19.365  0.00  0.00    +0.000 NA
ATOM      8  H   UNL     1       2.491   6.892  16.637  0.00  0.00    +0.000 HD
ENDROOT
BRANCH   1  13
ATOM      9  C   UNL     1       7.374   4.829  17.165  0.00  0.00    +0.000 C 
ATOM     10  C   UNL     1       6.116   4.990  18.050  0.00  0.00    +0.000 C 
ATOM     11  C   UNL     1       6.616   5.286  19.474  0.00  0.00    +0.000 C 
ATOM     12  C   UNL     1       5.301   6.159  17.484  0.00  0.00    +0.000 C 
ATOM     13  C   UNL     1       3.884   6.260  18.066  0.00  0.00    +0.000 C 
ATOM     14  C   UNL     1       3.179   4.913  17.848  0.00  0.00    +0.000 C 
ATOM     15  C   UNL     1       3.967   3.711  18.404  0.00  0.00    +0.000 C 
ATOM     16  C   UNL     1       3.348   2.416  17.825  0.00  0.00    +0.000 C 
ATOM     17  C   UNL     1       3.834   3.612  19.934  0.00  0.00    +0.000 C 
ATOM     18  N   UNL     1       5.377   3.717  17.975  0.00  0.00    +0.000 NA
ATOM     19  H   UNL     1       5.417   3.388  17.008  0.00  0.00    +0.000 HD
ENDBRANCH   1  13
BRANCH   5  20
ATOM     20  C   UNL     1       0.344  10.924  20.579  0.00  0.00    +0.000 A 
ATOM     21  C   UNL     1      -0.758  10.670  21.376  0.00  0.00    +0.000 A 
ATOM     22  C   UNL     1      -1.139  11.775  22.207  0.00  0.00    +0.000 A 
ATOM     23  C   UNL     1      -2.170  11.895  23.169  0.00  0.00    +0.000 A 
ATOM     24  C   UNL     1      -2.344  13.093  23.869  0.00  0.00    +0.000 A 
ATOM     25  C   UNL     1      -1.512  14.177  23.626  0.00  0.00    +0.000 A 
ATOM     26  C   UNL     1      -0.490  14.088  22.678  0.00  0.00    +0.000 A 
ATOM     27  C   UNL     1      -0.314  12.877  21.978  0.00  0.00    +0.000 A 
ATOM     28  S   UNL     1       0.876  12.537  20.791  0.00  0.00    +0.000 S 
ENDBRANCH   5  20
TORSDOF 2
ENDMDL
MODEL 2
REMARK VINA RESULT:      -8.1      0.732      1.272
REMARK  Name = 
REMARK  6 active torsions:
REMARK  status: ('A' for Active; 'I' for Inactive)
REMARK    1  A    between atoms: C_1  and  C_2
REMARK    2  A    between atoms: C_2  and  C_3
REMARK    3  A    between atoms: C_5  and  N_6
REMARK    4  A    between atoms: C_10  and  C_11
REMARK    5  A    between atoms: C_23  and  C_24
REMARK    6  A    between atoms: C_23  and  C_25
REMARK                            x       y       z     vdW  Elec       q    Type
REMARK                         _______ _______ _______ _____ _____    ______ ____
ROOT
ATOM      1  N   UNL     1       2.849   7.032  17.380  0.00  0.00    +0.000 N 
ATOM      2  C   UNL     1       2.232   8.017  18.170  0.00  0.00    +0.000 A 
ATOM      3  C   UNL     1       1.897   9.217  17.562  0.00  0.00    +0.000 A 
ATOM      4  C   UNL     1       1.350  10.246  18.325  0.00  0.00    +0.000 A 
ATOM      5  C   UNL     1       1.109  10.025  19.671  0.00  0.00    +0.000 A 
ATOM      6  N   UNL     1       1.412   8.837  20.236  0.00  0.00    +0.000 NA
ATOM      7  N   UNL     1       1.975   7.831  19.479  0.00  0.00    +0.000 NA
ATOM      8  H   UNL     1       2.128   6.594  16.811  0.00  0.00    +0.000 HD
ENDROOT
BRANCH   1  13
ATOM      9  C   UNL     1       7.215   4.790  17.125  0.00  0.00    +0.000 C 
ATOM     10  C   UNL     1       5.975   4.900  18.044  0.00  0.00    +0.000 C 
ATOM     11  C   UNL     1       6.498   5.241  19.449  0.00  0.00    +0.000 C 
ATOM     12  C   UNL     1       5.087   6.019  17.485  0.00  0.00    +0.000 C 
ATOM     13  C   UNL     1       3.683   6.056  18.105  0.00  0.00    +0.000 C 
ATOM     14  C   UNL     1       3.041   4.673  17.926  0.00  0.00    +0.000 C 
ATOM     15  C   UNL     1       3.905   3.521  18.475  0.00  0.00    +0.000 C 
ATOM     16  C   UNL     1       3.336   2.188  17.931  0.00  0.00    +0.000 C 
ATOM     17  C   UNL     1       3.819   3.437  20.009  0.00  0.00    +0.000 C 
ATOM     18  N   UNL     1       5.300   3.591  18.006  0.00  0.00    +0.000 NA
ATOM     19  H   UNL     1       5.329   3.250  17.043  0.00  0.00    +0.000 HD
ENDBRANCH   1  13
BRANCH   5  20
ATOM     20  C   UNL     1       0.575  11.032  20.592  0.00  0.00    +0.000 A 
ATOM     21  C   UNL     1       0.914  12.371  20.690  0.00  0.00    +0.000 A 
ATOM     22  C   UNL     1       0.166  13.086  21.682  0.00  0.00    +0.000 A 
ATOM     23  C   UNL     1       0.192  14.452  22.052  0.00  0.00    +0.000 A 
ATOM     24  C   UNL     1      -0.652  14.924  23.063  0.00  0.00    +0.000 A 
ATOM     25  C   UNL     1      -1.519  14.060  23.716  0.00  0.00    +0.000 A 
ATOM     26  C   UNL     1      -1.562  12.706  23.375  0.00  0.00    +0.000 A 
ATOM     27  C   UNL     1      -0.714  12.235  22.352  0.00  0.00    +0.000 A 
ATOM     28  S   UNL     1      -0.609  10.628  21.760  0.00  0.00    +0.000 S 
ENDBRANCH   5  20
TORSDOF 2
ENDMDL
MODEL 3
REMARK VINA RESULT:      -7.9      0.918      1.193
REMARK  Name = 
REMARK  6 active torsions:
REMARK  status: ('A' for Active; 'I' for Inactive)
REMARK    1  A    between atoms: C_1  and  C_2
REMARK    2  A    between atoms: C_2  and  C_3
REMARK    3  A    between atoms: C_5  and  N_6
REMARK    4  A    between atoms: C_10  and  C_11
REMARK    5  A    between atoms: C_23  and  C_24
REMARK    6  A    between atoms: C_23  and  C_25
REMARK                            x       y       z     vdW  Elec       q    Type
REMARK                         _______ _______ _______ _____ _____    ______ ____
ROOT
ATOM      1  N   UNL     1       3.416   7.398  17.292  0.00  0.00    +0.000 N 
ATOM      2  C   UNL     1       2.527   8.200  18.028  0.00  0.00    +0.000 A 
ATOM      3  C   UNL     1       2.262   9.474  17.554  0.00  0.00    +0.000 A 
ATOM      4  C   UNL     1       1.443  10.327  18.291  0.00  0.00    +0.000 A 
ATOM      5  C   UNL     1       0.874   9.859  19.464  0.00  0.00    +0.000 A 
ATOM      6  N   UNL     1       1.120   8.601  19.892  0.00  0.00    +0.000 NA
ATOM      7  N   UNL     1       1.950   7.772  19.168  0.00  0.00    +0.000 NA
ATOM      8  H   UNL     1       2.914   7.040  16.483  0.00  0.00    +0.000 HD
ENDROOT
BRANCH   1  13
ATOM      9  C   UNL     1       7.535   4.719  17.235  0.00  0.00    +0.000 C 
ATOM     10  C   UNL     1       6.271   4.957  18.094  0.00  0.00    +0.000 C 
ATOM     11  C   UNL     1       6.761   5.244  19.523  0.00  0.00    +0.000 C 
ATOM     12  C   UNL     1       5.530   6.161  17.498  0.00  0.00    +0.000 C 
ATOM     13  C   UNL     1       4.110   6.343  18.052  0.00  0.00    +0.000 C 
ATOM     14  C   UNL     1       3.339   5.032  17.838  0.00  0.00    +0.000 C 
ATOM     15  C   UNL     1       4.053   3.798  18.423  0.00  0.00    +0.000 C 
ATOM     16  C   UNL     1       3.376   2.530  17.848  0.00  0.00    +0.000 C 
ATOM     17  C   UNL     1       3.886   3.726  19.950  0.00  0.00    +0.000 C 
ATOM     18  N   UNL     1       5.468   3.724  18.020  0.00  0.00    +0.000 NA
ATOM     19  H   UNL     1       5.508   3.381  17.058  0.00  0.00    +0.000 HD
ENDBRANCH   1  13
BRANCH   5  20
ATOM     20  C   UNL     1       0.029  10.662  20.352  0.00  0.00    +0.000 A 
ATOM     21  C   UNL     1      -0.602  11.864  20.081  0.00  0.00    +0.000 A 
ATOM     22  C   UNL     1      -1.389  12.363  21.171  0.00  0.00    +0.000 A 
ATOM     23  C   UNL     1      -2.199  13.519  21.272  0.00  0.00    +0.000 A 
ATOM     24  C   UNL     1      -2.888  13.795  22.458  0.00  0.00    +0.000 A 
ATOM     25  C   UNL     1      -2.781  12.943  23.547  0.00  0.00    +0.000 A 
ATOM     26  C   UNL     1      -1.984  11.798  23.478  0.00  0.00    +0.000 A 
ATOM     27  C   UNL     1      -1.296  11.520  22.279  0.00  0.00    +0.000 A 
ATOM     28  S   UNL     1      -0.281  10.174  21.963  0.00  0.00    +0.000 S 
ENDBRANCH   5  20
TORSDOF 2
ENDMDL
MODEL 4
REMARK VINA RESULT:      -7.6      2.921      9.482
REMARK  Name = 
REMARK  6 active torsions:
REMARK  status: ('A' for Active; 'I' for Inactive)
REMARK    1  A    between atoms: C_1  and  C_2
REMARK    2  A    between atoms: C_2  and  C_3
REMARK    3  A    between atoms: C_5  and  N_6
REMARK    4  A    between atoms: C_10  and  C_11
REMARK    5  A    between atoms: C_23  and  C_24
REMARK    6  A    between atoms: C_23  and  C_25
REMARK                            x       y       z     vdW  Elec       q    Type
REMARK                         _______ _______ _______ _____ _____    ______ ____
ROOT
ATOM      1  N   UNL     1       0.472  12.130  18.645  0.00  0.00    +0.000 N 
ATOM      2  C   UNL     1       0.957  10.835  18.897  0.00  0.00    +0.000 A 
ATOM      3  C   UNL     1       1.315  10.056  17.809  0.00  0.00    +0.000 A 
ATOM      4  C   UNL     1       1.732   8.742  18.010  0.00  0.00    +0.000 A 
ATOM      5  C   UNL     1       1.824   8.261  19.306  0.00  0.00    +0.000 A 
ATOM      6  N   UNL     1       1.501   9.048  20.355  0.00  0.00    +0.000 NA
ATOM      7  N   UNL     1       1.067  10.340  20.146  0.00  0.00    +0.000 NA
ATOM      8  H   UNL     1       1.269  12.723  18.427  0.00  0.00    +0.000 HD
ENDROOT
BRANCH   1  13
ATOM      9  C   UNL     1      -4.277  12.580  19.828  0.00  0.00    +0.000 C 
ATOM     10  C   UNL     1      -2.868  12.917  20.371  0.00  0.00    +0.000 C 
ATOM     11  C   UNL     1      -2.808  12.366  21.805  0.00  0.00    +0.000 C 
ATOM     12  C   UNL     1      -1.846  12.228  19.458  0.00  0.00    +0.000 C 
ATOM     13  C   UNL     1      -0.404  12.702  19.684  0.00  0.00    +0.000 C 
ATOM     14  C   UNL     1      -0.370  14.230  19.531  0.00  0.00    +0.000 C 
ATOM     15  C   UNL     1      -1.385  14.959  20.432  0.00  0.00    +0.000 C 
ATOM     16  C   UNL     1      -1.504  16.423  19.942  0.00  0.00    +0.000 C 
ATOM     17  C   UNL     1      -0.894  15.027  21.888  0.00  0.00    +0.000 C 
ATOM     18  N   UNL     1      -2.738  14.384  20.335  0.00  0.00    +0.000 NA
ATOM     19  H   UNL     1      -3.163  14.715  19.466  0.00  0.00    +0.000 HD
ENDBRANCH   1  13
BRANCH   5  20
ATOM     20  C   UNL     1       2.210   6.891  19.655  0.00  0.00    +0.000 A 
ATOM     21  C   UNL     1       1.706   6.088  20.664  0.00  0.00    +0.000 A 
ATOM     22  C   UNL     1       2.285   4.777  20.703  0.00  0.00    +0.000 A 
ATOM     23  C   UNL     1       2.016   3.673  21.547  0.00  0.00    +0.000 A 
ATOM     24  C   UNL     1       2.718   2.474  21.385  0.00  0.00    +0.000 A 
ATOM     25  C   UNL     1       3.688   2.356  20.400  0.00  0.00    +0.000 A 
ATOM     26  C   UNL     1       3.978   3.430  19.557  0.00  0.00    +0.000 A 
ATOM     27  C   UNL     1       3.264   4.635  19.719  0.00  0.00    +0.000 A 
ATOM     28  S   UNL     1       3.441   6.069  18.795  0.00  0.00    +0.000 S 
ENDBRANCH   5  20
TORSDOF 2
ENDMDL
MODEL 5
REMARK VINA RESULT:      -7.5      0.942      1.009
REMARK  Name = 
REMARK  6 active torsions:
REMARK  status: ('A' for Active; 'I' for Inactive)
REMARK    1  A    between atoms: C_1  and  C_2
REMARK    2  A    between atoms: C_2  and  C_3
REMARK    3  A    between atoms: C_5  and  N_6
REMARK    4  A    between atoms: C_10  and  C_11
REMARK    5  A    between atoms: C_23  and  C_24
REMARK    6  A    between atoms: C_23  and  C_25
REMARK                            x       y       z     vdW  Elec       q    Type
REMARK                         _______ _______ _______ _____ _____    ______ ____
ROOT
ATOM      1  N   UNL     1       3.537   7.451  17.205  0.00  0.00    +0.000 N 
ATOM      2  C   UNL     1       2.591   8.225  17.899  0.00  0.00    +0.000 A 
ATOM      3  C   UNL     1       2.353   9.513  17.448  0.00  0.00    +0.000 A 
ATOM      4  C   UNL     1       1.478  10.338  18.150  0.00  0.00    +0.000 A 
ATOM      5  C   UNL     1       0.826   9.830  19.262  0.00  0.00    +0.000 A 
ATOM      6  N   UNL     1       1.048   8.560  19.666  0.00  0.00    +0.000 NA
ATOM      7  N   UNL     1       1.934   7.757  18.978  0.00  0.00    +0.000 NA
ATOM      8  H   UNL     1       3.097   7.118  16.350  0.00  0.00    +0.000 HD
ENDROOT
BRANCH   1  13
ATOM      9  C   UNL     1       7.565   4.636  17.235  0.00  0.00    +0.000 C 
ATOM     10  C   UNL     1       6.291   4.917  18.067  0.00  0.00    +0.000 C 
ATOM     11  C   UNL     1       6.759   5.189  19.507  0.00  0.00    +0.000 C 
ATOM     12  C   UNL     1       5.604   6.144  17.456  0.00  0.00    +0.000 C 
ATOM     13  C   UNL     1       4.179   6.374  17.980  0.00  0.00    +0.000 C 
ATOM     14  C   UNL     1       3.369   5.089  17.749  0.00  0.00    +0.000 C 
ATOM     15  C   UNL     1       4.029   3.833  18.349  0.00  0.00    +0.000 C 
ATOM     16  C   UNL     1       3.322   2.587  17.760  0.00  0.00    +0.000 C 
ATOM     17  C   UNL     1       3.828   3.767  19.873  0.00  0.00    +0.000 C 
ATOM     18  N   UNL     1       5.449   3.711  17.976  0.00  0.00    +0.000 NA
ATOM     19  H   UNL     1       5.498   3.366  17.015  0.00  0.00    +0.000 HD
ENDBRANCH   1  13
BRANCH   5  20
ATOM     20  C   UNL     1      -0.087  10.600  20.110  0.00  0.00    +0.000 A 
ATOM     21  C   UNL     1      -0.227  10.551  21.486  0.00  0.00    +0.000 A 
ATOM     22  C   UNL     1      -1.195  11.473  22.003  0.00  0.00    +0.000 A 
ATOM     23  C   UNL     1      -1.593  11.747  23.333  0.00  0.00    +0.000 A 
ATOM     24  C   UNL     1      -2.569  12.714  23.593  0.00  0.00    +0.000 A 
ATOM     25  C   UNL     1      -3.161  13.412  22.550  0.00  0.00    +0.000 A 
ATOM     26  C   UNL     1      -2.792  13.160  21.227  0.00  0.00    +0.000 A 
ATOM     27  C   UNL     1      -1.803  12.188  20.970  0.00  0.00    +0.000 A 
ATOM     28  S   UNL     1      -1.187  11.726  19.437  0.00  0.00    +0.000 S 
ENDBRANCH   5  20
TORSDOF 2
ENDMDL
MODEL 6
REMARK VINA RESULT:      -7.5      3.241     10.601
REMARK  Name = 
REMARK  6 active torsions:
REMARK  status: ('A' for Active; 'I' for Inactive)
REMARK    1  A    between atoms: C_1  and  C_2
REMARK    2  A    between atoms: C_2  and  C_3
REMARK    3  A    between atoms: C_5  and  N_6
REMARK    4  A    between atoms: C_10  and  C_11
REMARK    5  A    between atoms: C_23  and  C_24
REMARK    6  A    between atoms: C_23  and  C_25
REMARK                            x       y       z     vdW  Elec       q    Type
REMARK                         _______ _______ _______ _____ _____    ______ ____
ROOT
ATOM      1  N   UNL     1      -2.271  14.028  21.107  0.00  0.00    +0.000 N 
ATOM      2  C   UNL     1      -1.433  12.970  20.716  0.00  0.00    +0.000 A 
ATOM      3  C   UNL     1      -1.319  12.701  19.362  0.00  0.00    +0.000 A 
ATOM      4  C   UNL     1      -0.556  11.615  18.937  0.00  0.00    +0.000 A 
ATOM      5  C   UNL     1       0.113  10.857  19.884  0.00  0.00    +0.000 A 
ATOM      6  N   UNL     1       0.015  11.157  21.197  0.00  0.00    +0.000 NA
ATOM      7  N   UNL     1      -0.761  12.219  21.611  0.00  0.00    +0.000 NA
ATOM      8  H   UNL     1      -1.775  14.898  20.930  0.00  0.00    +0.000 HD
ENDROOT
BRANCH   1  13
ATOM      9  C   UNL     1      -6.426  12.967  23.507  0.00  0.00    +0.000 C 
ATOM     10  C   UNL     1      -4.950  13.348  23.773  0.00  0.00    +0.000 C 
ATOM     11  C   UNL     1      -4.397  12.300  24.753  0.00  0.00    +0.000 C 
ATOM     12  C   UNL     1      -4.215  13.308  22.428  0.00  0.00    +0.000 C 
ATOM     13  C   UNL     1      -2.819  13.945  22.473  0.00  0.00    +0.000 C 
ATOM     14  C   UNL     1      -2.960  15.378  23.005  0.00  0.00    +0.000 C 
ATOM     15  C   UNL     1      -3.696  15.460  24.357  0.00  0.00    +0.000 C 
ATOM     16  C   UNL     1      -4.083  16.938  24.608  0.00  0.00    +0.000 C 
ATOM     17  C   UNL     1      -2.779  15.046  25.520  0.00  0.00    +0.000 C 
ATOM     18  N   UNL     1      -4.959  14.701  24.356  0.00  0.00    +0.000 NA
ATOM     19  H   UNL     1      -5.662  15.253  23.859  0.00  0.00    +0.000 HD
ENDBRANCH   1  13
BRANCH   5  20
ATOM     20  C   UNL     1       0.915   9.669  19.577  0.00  0.00    +0.000 A 
ATOM     21  C   UNL     1       1.600   9.374  18.411  0.00  0.00    +0.000 A 
ATOM     22  C   UNL     1       2.320   8.135  18.460  0.00  0.00    +0.000 A 
ATOM     23  C   UNL     1       3.155   7.513  17.502  0.00  0.00    +0.000 A 
ATOM     24  C   UNL     1       3.764   6.287  17.788  0.00  0.00    +0.000 A 
ATOM     25  C   UNL     1       3.553   5.666  19.011  0.00  0.00    +0.000 A 
ATOM     26  C   UNL     1       2.729   6.254  19.973  0.00  0.00    +0.000 A 
ATOM     27  C   UNL     1       2.122   7.493  19.684  0.00  0.00    +0.000 A 
ATOM     28  S   UNL     1       1.093   8.401  20.712  0.00  0.00    +0.000 S 
ENDBRANCH   5  20
TORSDOF 2
ENDMDL
MODEL 7
REMARK VINA RESULT:      -7.4      2.265      3.589
REMARK  Name = 
REMARK  6 active torsions:
REMARK  status: ('A' for Active; 'I' for Inactive)
REMARK    1  A    between atoms: C_1  and  C_2
REMARK    2  A    between atoms: C_2  and  C_3
REMARK    3  A    between atoms: C_5  and  N_6
REMARK    4  A    between atoms: C_10  and  C_11
REMARK    5  A    between atoms: C_23  and  C_24
REMARK    6  A    between atoms: C_23  and  C_25
REMARK                            x       y       z     vdW  Elec       q    Type
REMARK                         _______ _______ _______ _____ _____    ______ ____
ROOT
ATOM      1  N   UNL     1       1.830   6.674  21.034  0.00  0.00    +0.000 N 
ATOM      2  C   UNL     1       1.446   8.018  20.881  0.00  0.00    +0.000 A 
ATOM      3  C   UNL     1       0.664   8.584  21.875  0.00  0.00    +0.000 A 
ATOM      4  C   UNL     1       0.202   9.889  21.728  0.00  0.00    +0.000 A 
ATOM      5  C   UNL     1       0.579  10.610  20.606  0.00  0.00    +0.000 A 
ATOM      6  N   UNL     1       1.369  10.050  19.665  0.00  0.00    +0.000 NA
ATOM      7  N   UNL     1       1.804   8.749  19.807  0.00  0.00    +0.000 NA
ATOM      8  H   UNL     1       2.589   6.644  21.711  0.00  0.00    +0.000 HD
ENDROOT
BRANCH   1  13
ATOM      9  C   UNL     1       1.401   2.227  18.988  0.00  0.00    +0.000 C 
ATOM     10  C   UNL     1       1.890   3.657  18.658  0.00  0.00    +0.000 C 
ATOM     11  C   UNL     1       1.199   4.066  17.346  0.00  0.00    +0.000 C 
ATOM     12  C   UNL     1       1.475   4.565  19.822  0.00  0.00    +0.000 C 
ATOM     13  C   UNL     1       2.139   5.949  19.788  0.00  0.00    +0.000 C 
ATOM     14  C   UNL     1       3.661   5.750  19.732  0.00  0.00    +0.000 C 
ATOM     15  C   UNL     1       4.118   4.842  18.575  0.00  0.00    +0.000 C 
ATOM     16  C   UNL     1       5.591   4.438  18.829  0.00  0.00    +0.000 C 
ATOM     17  C   UNL     1       4.098   5.592  17.232  0.00  0.00    +0.000 C 
ATOM     18  N   UNL     1       3.355   3.583  18.512  0.00  0.00    +0.000 NA
ATOM     19  H   UNL     1       3.711   2.958  19.239  0.00  0.00    +0.000 HD
ENDBRANCH   1  13
BRANCH   5  20
ATOM     20  C   UNL     1       0.132  11.974  20.310  0.00  0.00    +0.000 A 
ATOM     21  C   UNL     1      -0.854  12.710  20.942  0.00  0.00    +0.000 A 
ATOM     22  C   UNL     1      -1.011  14.037  20.421  0.00  0.00    +0.000 A 
ATOM     23  C   UNL     1      -1.870  15.089  20.815  0.00  0.00    +0.000 A 
ATOM     24  C   UNL     1      -1.834  16.317  20.146  0.00  0.00    +0.000 A 
ATOM     25  C   UNL     1      -0.960  16.515  19.088  0.00  0.00    +0.000 A 
ATOM     26  C   UNL     1      -0.103  15.492  18.674  0.00  0.00    +0.000 A 
ATOM     27  C   UNL     1      -0.139  14.258  19.354  0.00  0.00    +0.000 A 
ATOM     28  S   UNL     1       0.825  12.876  19.031  0.00  0.00    +0.000 S 
ENDBRANCH   5  20
TORSDOF 2
ENDMDL
MODEL 8
REMARK VINA RESULT:      -7.4      2.682      9.531
REMARK  Name = 
REMARK  6 active torsions:
REMARK  status: ('A' for Active; 'I' for Inactive)
REMARK    1  A    between atoms: C_1  and  C_2
REMARK    2  A    between atoms: C_2  and  C_3
REMARK    3  A    between atoms: C_5  and  N_6
REMARK    4  A    between atoms: C_10  and  C_11
REMARK    5  A    between atoms: C_23  and  C_24
REMARK    6  A    between atoms: C_23  and  C_25
REMARK                            x       y       z     vdW  Elec       q    Type
REMARK                         _______ _______ _______ _____ _____    ______ ____
ROOT
ATOM      1  N   UNL     1      -0.102  10.239  21.489  0.00  0.00    +0.000 N 
ATOM      2  C   UNL     1       0.636   9.352  20.687  0.00  0.00    +0.000 A 
ATOM      3  C   UNL     1       1.098   8.184  21.272  0.00  0.00    +0.000 A 
ATOM      4  C   UNL     1       1.895   7.312  20.533  0.00  0.00    +0.000 A 
ATOM      5  C   UNL     1       2.167   7.615  19.209  0.00  0.00    +0.000 A 
ATOM      6  N   UNL     1       1.681   8.743  18.649  0.00  0.00    +0.000 NA
ATOM      7  N   UNL     1       0.912   9.613  19.394  0.00  0.00    +0.000 NA
ATOM      8  H   UNL     1      -1.043   9.862  21.583  0.00  0.00    +0.000 HD
ENDROOT
BRANCH   1  13
ATOM      9  C   UNL     1       2.994  13.989  20.781  0.00  0.00    +0.000 C 
ATOM     10  C   UNL     1       1.498  13.624  20.632  0.00  0.00    +0.000 C 
ATOM     11  C   UNL     1       1.097  13.994  19.195  0.00  0.00    +0.000 C 
ATOM     12  C   UNL     1       1.365  12.117  20.886  0.00  0.00    +0.000 C 
ATOM     13  C   UNL     1      -0.087  11.652  21.067  0.00  0.00    +0.000 C 
ATOM     14  C   UNL     1      -0.721  12.480  22.194  0.00  0.00    +0.000 C 
ATOM     15  C   UNL     1      -0.606  14.001  21.976  0.00  0.00    +0.000 C 
ATOM     16  C   UNL     1      -0.950  14.709  23.309  0.00  0.00    +0.000 C 
ATOM     17  C   UNL     1      -1.631  14.498  20.942  0.00  0.00    +0.000 C 
ATOM     18  N   UNL     1       0.765  14.418  21.634  0.00  0.00    +0.000 NA
ATOM     19  H   UNL     1       1.319  14.427  22.494  0.00  0.00    +0.000 HD
ENDBRANCH   1  13
BRANCH   5  20
ATOM     20  C   UNL     1       3.022   6.807  18.334  0.00  0.00    +0.000 A 
ATOM     21  C   UNL     1       3.914   7.239  17.369  0.00  0.00    +0.000 A 
ATOM     22  C   UNL     1       4.622   6.176  16.717  0.00  0.00    +0.000 A 
ATOM     23  C   UNL     1       5.625   6.209  15.720  0.00  0.00    +0.000 A 
ATOM     24  C   UNL     1       6.180   5.019  15.238  0.00  0.00    +0.000 A 
ATOM     25  C   UNL     1       5.750   3.795  15.728  0.00  0.00    +0.000 A 
ATOM     26  C   UNL     1       4.757   3.731  16.708  0.00  0.00    +0.000 A 
ATOM     27  C   UNL     1       4.204   4.933  17.196  0.00  0.00    +0.000 A 
ATOM     28  S   UNL     1       2.995   5.096  18.401  0.00  0.00    +0.000 S 
ENDBRANCH   5  20
TORSDOF 2
ENDMDL
MODEL 9
REMARK VINA RESULT:      -7.4      2.817      9.695
REMARK  Name = 
REMARK  6 active torsions:
REMARK  status: ('A' for Active; 'I' for Inactive)
REMARK    1  A    between atoms: C_1  and  C_2
REMARK    2  A    between atoms: C_2  and  C_3
REMARK    3  A    between atoms: C_5  and  N_6
REMARK    4  A    between atoms: C_10  and  C_11
REMARK    5  A    between atoms: C_23  and  C_24
REMARK    6  A    between atoms: C_23  and  C_25
REMARK                            x       y       z     vdW  Elec       q    Type
REMARK                         _______ _______ _______ _____ _____    ______ ____
ROOT
ATOM      1  N   UNL     1       0.107  12.412  19.706  0.00  0.00    +0.000 N 
ATOM      2  C   UNL     1       0.635  11.110  19.758  0.00  0.00    +0.000 A 
ATOM      3  C   UNL     1       0.917  10.478  18.558  0.00  0.00    +0.000 A 
ATOM      4  C   UNL     1       1.373   9.161  18.564  0.00  0.00    +0.000 A 
ATOM      5  C   UNL     1       1.579   8.530  19.780  0.00  0.00    +0.000 A 
ATOM      6  N   UNL     1       1.329   9.176  20.939  0.00  0.00    +0.000 NA
ATOM      7  N   UNL     1       0.856  10.472  20.924  0.00  0.00    +0.000 NA
ATOM      8  H   UNL     1       0.873  13.048  19.499  0.00  0.00    +0.000 HD
ENDROOT
BRANCH   1  13
ATOM      9  C   UNL     1      -4.552  12.780  21.224  0.00  0.00    +0.000 C 
ATOM     10  C   UNL     1      -3.105  12.991  21.730  0.00  0.00    +0.000 C 
ATOM     11  C   UNL     1      -2.986  12.214  23.052  0.00  0.00    +0.000 C 
ATOM     12  C   UNL     1      -2.158  12.433  20.660  0.00  0.00    +0.000 C 
ATOM     13  C   UNL     1      -0.690  12.830  20.873  0.00  0.00    +0.000 C 
ATOM     14  C   UNL     1      -0.614  14.361  20.964  0.00  0.00    +0.000 C 
ATOM     15  C   UNL     1      -1.553  14.959  22.029  0.00  0.00    +0.000 C 
ATOM     16  C   UNL     1      -1.650  16.485  21.786  0.00  0.00    +0.000 C 
ATOM     17  C   UNL     1      -0.981  14.779  23.445  0.00  0.00    +0.000 C 
ATOM     18  N   UNL     1      -2.928  14.441  21.921  0.00  0.00    +0.000 NA
ATOM     19  H   UNL     1      -3.389  14.918  21.143  0.00  0.00    +0.000 HD
ENDBRANCH   1  13
BRANCH   5  20
ATOM     20  C   UNL     1       2.017   7.139  19.927  0.00  0.00    +0.000 A 
ATOM     21  C   UNL     1       1.587   6.197  20.845  0.00  0.00    +0.000 A 
ATOM     22  C   UNL     1       2.200   4.911  20.684  0.00  0.00    +0.000 A 
ATOM     23  C   UNL     1       2.003   3.699  21.387  0.00  0.00    +0.000 A 
ATOM     24  C   UNL     1       2.726   2.554  21.036  0.00  0.00    +0.000 A 
ATOM     25  C   UNL     1       3.646   2.595  19.999  0.00  0.00    +0.000 A 
ATOM     26  C   UNL     1       3.865   3.779  19.290  0.00  0.00    +0.000 A 
ATOM     27  C   UNL     1       3.131   4.929  19.644  0.00  0.00    +0.000 A 
ATOM     28  S   UNL     1       3.222   6.476  18.908  0.00  0.00    +0.000 S 
ENDBRANCH   5  20
TORSDOF 2
ENDMDL
