MODEL 1
REMARK VINA RESULT:      -8.4      0.000      0.000
REMARK  Name = 
REMARK  7 active torsions:
REMARK  status: ('A' for Active; 'I' for Inactive)
REMARK    1  A    between atoms: C_1  and  C_2
REMARK    2  A    between atoms: C_2  and  C_3
REMARK    3  A    between atoms: C_2  and  C_4
REMARK    4  A    between atoms: C_2  and  C_5
REMARK    5  A    between atoms: C_8  and  C_9
REMARK    6  A    between atoms: N_18  and  C_19
REMARK    7  A    between atoms: C_19  and  C_20
REMARK                            x       y       z     vdW  Elec       q    Type
REMARK                         _______ _______ _______ _____ _____    ______ ____
ROOT
ATOM      1  C   UNL     1       1.827   8.046  19.589  0.00  0.00    +0.000 C 
ATOM      2  O   UNL     1       1.521   7.707  20.724  0.00  0.00    +0.000 OA
ATOM      3  N   UNL     1       1.254   9.153  19.033  0.00  0.00    +0.000 N 
ATOM      4  C   UNL     1       0.352   9.976  19.747  0.00  0.00    +0.000 A 
ATOM      5  N   UNL     1       0.149   9.880  21.081  0.00  0.00    +0.000 NA
ATOM      6  C   UNL     1      -0.744  10.800  21.500  0.00  0.00    +0.000 A 
ATOM      7  C   UNL     1      -1.280  11.583  20.498  0.00  0.00    +0.000 A 
ATOM      8  S   UNL     1      -0.563  11.197  19.030  0.00  0.00    +0.000 S 
ATOM      9  C   UNL     1      -2.341  12.599  20.727  0.00  0.00    +0.000 C 
ATOM     10  N   UNL     1      -2.883  12.499  22.108  0.00  0.00    +0.000 NA
ATOM     11  C   UNL     1      -1.824  12.333  23.123  0.00  0.00    +0.000 C 
ATOM     12  C   UNL     1      -1.121  10.977  22.935  0.00  0.00    +0.000 C 
ATOM     13  H   UNL     1       1.449   9.426  18.064  0.00  0.00    +0.000 HD
ENDROOT
BRANCH   1  17
ATOM     14  C   UNL     1       4.646   5.685  17.334  0.00  0.00    +0.000 A 
ATOM     15  C   UNL     1       4.309   7.000  16.954  0.00  0.00    +0.000 A 
ATOM     16  C   UNL     1       3.419   7.753  17.702  0.00  0.00    +0.000 A 
ATOM     17  C   UNL     1       2.828   7.224  18.863  0.00  0.00    +0.000 A 
ATOM     18  C   UNL     1       3.181   5.927  19.269  0.00  0.00    +0.000 A 
ATOM     19  C   UNL     1       4.074   5.174  18.517  0.00  0.00    +0.000 A 
BRANCH  14  21
ATOM     20  C   UNL     1       5.660   5.238  15.021  0.00  0.00    +0.000 C 
ATOM     21  C   UNL     1       5.559   4.786  16.495  0.00  0.00    +0.000 C 
ATOM     22  C   UNL     1       4.964   3.360  16.516  0.00  0.00    +0.000 C 
ATOM     23  C   UNL     1       6.985   4.788  17.086  0.00  0.00    +0.000 C 
ENDBRANCH  14  21
ENDBRANCH   1  17
BRANCH  10  24
ATOM     24  C   UNL     1      -3.825  13.592  22.425  0.00  0.00    +0.000 C 
BRANCH  24  25
ATOM     25  C   UNL     1      -5.260  13.133  22.578  0.00  0.00    +0.000 A 
ATOM     26  C   UNL     1      -5.898  13.206  23.831  0.00  0.00    +0.000 A 
ATOM     27  C   UNL     1      -7.217  12.772  23.979  0.00  0.00    +0.000 A 
ATOM     28  C   UNL     1      -7.916  12.276  22.878  0.00  0.00    +0.000 A 
ATOM     29  C   UNL     1      -7.297  12.209  21.626  0.00  0.00    +0.000 A 
ATOM     30  C   UNL     1      -5.974  12.634  21.474  0.00  0.00    +0.000 A 
ENDBRANCH  24  25
ENDBRANCH  10  24
TORSDOF 4
ENDMDL
MODEL 2
REMARK VINA RESULT:      -8.3      0.545      1.029
REMARK  Name = 
REMARK  7 active torsions:
REMARK  status: ('A' for Active; 'I' for Inactive)
REMARK    1  A    between atoms: C_1  and  C_2
REMARK    2  A    between atoms: C_2  and  C_3
REMARK    3  A    between atoms: C_2  and  C_4
REMARK    4  A    between atoms: C_2  and  C_5
REMARK    5  A    between atoms: C_8  and  C_9
REMARK    6  A    between atoms: N_18  and  C_19
REMARK    7  A    between atoms: C_19  and  C_20
REMARK                            x       y       z     vdW  Elec       q    Type
REMARK                         _______ _______ _______ _____ _____    ______ ____
ROOT
ATOM      1  C   UNL     1       2.039   7.866  19.117  0.00  0.00    +0.000 C 
ATOM      2  O   UNL     1       1.790   7.487  20.254  0.00  0.00    +0.000 OA
ATOM      3  N   UNL     1       1.460   9.006  18.639  0.00  0.00    +0.000 N 
ATOM      4  C   UNL     1       0.620   9.818  19.436  0.00  0.00    +0.000 A 
ATOM      5  N   UNL     1       0.491   9.672  20.775  0.00  0.00    +0.000 NA
ATOM      6  C   UNL     1      -0.355  10.592  21.281  0.00  0.00    +0.000 A 
ATOM      7  C   UNL     1      -0.930  11.426  20.343  0.00  0.00    +0.000 A 
ATOM      8  S   UNL     1      -0.308  11.086  18.822  0.00  0.00    +0.000 S 
ATOM      9  C   UNL     1      -1.953  12.453  20.674  0.00  0.00    +0.000 C 
ATOM     10  N   UNL     1      -2.417  12.308  22.080  0.00  0.00    +0.000 NA
ATOM     11  C   UNL     1      -1.305  12.079  23.023  0.00  0.00    +0.000 C 
ATOM     12  C   UNL     1      -0.645  10.718  22.741  0.00  0.00    +0.000 C 
ATOM     13  H   UNL     1       1.605   9.315  17.671  0.00  0.00    +0.000 HD
ENDROOT
BRANCH   1  17
ATOM     14  C   UNL     1       4.822   5.435  16.891  0.00  0.00    +0.000 A 
ATOM     15  C   UNL     1       3.900   4.869  17.794  0.00  0.00    +0.000 A 
ATOM     16  C   UNL     1       2.998   5.661  18.485  0.00  0.00    +0.000 A 
ATOM     17  C   UNL     1       2.977   7.054  18.301  0.00  0.00    +0.000 A 
ATOM     18  C   UNL     1       3.869   7.627  17.379  0.00  0.00    +0.000 A 
ATOM     19  C   UNL     1       4.773   6.830  16.689  0.00  0.00    +0.000 A 
BRANCH  14  21
ATOM     20  C   UNL     1       6.279   5.199  14.793  0.00  0.00    +0.000 C 
ATOM     21  C   UNL     1       5.892   4.611  16.169  0.00  0.00    +0.000 C 
ATOM     22  C   UNL     1       5.318   3.196  15.937  0.00  0.00    +0.000 C 
ATOM     23  C   UNL     1       7.172   4.545  17.028  0.00  0.00    +0.000 C 
ENDBRANCH  14  21
ENDBRANCH   1  17
BRANCH  10  24
ATOM     24  C   UNL     1      -3.314  13.407  22.493  0.00  0.00    +0.000 C 
BRANCH  24  25
ATOM     25  C   UNL     1      -4.772  13.004  22.572  0.00  0.00    +0.000 A 
ATOM     26  C   UNL     1      -5.447  13.024  23.808  0.00  0.00    +0.000 A 
ATOM     27  C   UNL     1      -6.787  12.641  23.887  0.00  0.00    +0.000 A 
ATOM     28  C   UNL     1      -7.471  12.249  22.736  0.00  0.00    +0.000 A 
ATOM     29  C   UNL     1      -6.814  12.236  21.501  0.00  0.00    +0.000 A 
ATOM     30  C   UNL     1      -5.470  12.610  21.417  0.00  0.00    +0.000 A 
ENDBRANCH  24  25
ENDBRANCH  10  24
TORSDOF 4
ENDMDL
MODEL 3
REMARK VINA RESULT:      -8.3      0.398      1.545
REMARK  Name = 
REMARK  7 active torsions:
REMARK  status: ('A' for Active; 'I' for Inactive)
REMARK    1  A    between atoms: C_1  and  C_2
REMARK    2  A    between atoms: C_2  and  C_3
REMARK    3  A    between atoms: C_2  and  C_4
REMARK    4  A    between atoms: C_2  and  C_5
REMARK    5  A    between atoms: C_8  and  C_9
REMARK    6  A    between atoms: N_18  and  C_19
REMARK    7  A    between atoms: C_19  and  C_20
REMARK                            x       y       z     vdW  Elec       q    Type
REMARK                         _______ _______ _______ _____ _____    ______ ____
ROOT
ATOM      1  C   UNL     1       1.927   7.964  19.210  0.00  0.00    +0.000 C 
ATOM      2  O   UNL     1       1.681   7.603  20.353  0.00  0.00    +0.000 OA
ATOM      3  N   UNL     1       1.338   9.091  18.713  0.00  0.00    +0.000 N 
ATOM      4  C   UNL     1       0.490   9.908  19.495  0.00  0.00    +0.000 A 
ATOM      5  N   UNL     1       0.360   9.784  20.836  0.00  0.00    +0.000 NA
ATOM      6  C   UNL     1      -0.495  10.704  21.326  0.00  0.00    +0.000 A 
ATOM      7  C   UNL     1      -1.076  11.517  20.373  0.00  0.00    +0.000 A 
ATOM      8  S   UNL     1      -0.449  11.157  18.859  0.00  0.00    +0.000 S 
ATOM      9  C   UNL     1      -2.110  12.540  20.685  0.00  0.00    +0.000 C 
ATOM     10  N   UNL     1      -2.574  12.414  22.092  0.00  0.00    +0.000 NA
ATOM     11  C   UNL     1      -1.461  12.211  23.041  0.00  0.00    +0.000 C 
ATOM     12  C   UNL     1      -0.788  10.852  22.783  0.00  0.00    +0.000 C 
ATOM     13  H   UNL     1       1.482   9.385  17.740  0.00  0.00    +0.000 HD
ENDROOT
BRANCH   1  17
ATOM     14  C   UNL     1       4.733   5.520  17.028  0.00  0.00    +0.000 A 
ATOM     15  C   UNL     1       3.795   4.958  17.918  0.00  0.00    +0.000 A 
ATOM     16  C   UNL     1       2.886   5.755  18.594  0.00  0.00    +0.000 A 
ATOM     17  C   UNL     1       2.874   7.148  18.410  0.00  0.00    +0.000 A 
ATOM     18  C   UNL     1       3.783   7.717  17.501  0.00  0.00    +0.000 A 
ATOM     19  C   UNL     1       4.694   6.915  16.825  0.00  0.00    +0.000 A 
BRANCH  14  21
ATOM     20  C   UNL     1       7.174   4.732  17.049  0.00  0.00    +0.000 C 
ATOM     21  C   UNL     1       5.811   4.691  16.323  0.00  0.00    +0.000 C 
ATOM     22  C   UNL     1       6.007   5.279  14.908  0.00  0.00    +0.000 C 
ATOM     23  C   UNL     1       5.366   3.215  16.241  0.00  0.00    +0.000 C 
ENDBRANCH  14  21
ENDBRANCH   1  17
BRANCH  10  24
ATOM     24  C   UNL     1      -3.482  13.511  22.486  0.00  0.00    +0.000 C 
BRANCH  24  25
ATOM     25  C   UNL     1      -4.920  13.073  22.669  0.00  0.00    +0.000 A 
ATOM     26  C   UNL     1      -5.706  12.734  21.550  0.00  0.00    +0.000 A 
ATOM     27  C   UNL     1      -7.035  12.342  21.714  0.00  0.00    +0.000 A 
ATOM     28  C   UNL     1      -7.591  12.270  22.992  0.00  0.00    +0.000 A 
ATOM     29  C   UNL     1      -6.817  12.593  24.111  0.00  0.00    +0.000 A 
ATOM     30  C   UNL     1      -5.487  12.995  23.953  0.00  0.00    +0.000 A 
ENDBRANCH  24  25
ENDBRANCH  10  24
TORSDOF 4
ENDMDL
MODEL 4
REMARK VINA RESULT:      -8.3      0.317      1.244
REMARK  Name = 
REMARK  7 active torsions:
REMARK  status: ('A' for Active; 'I' for Inactive)
REMARK    1  A    between atoms: C_1  and  C_2
REMARK    2  A    between atoms: C_2  and  C_3
REMARK    3  A    between atoms: C_2  and  C_4
REMARK    4  A    between atoms: C_2  and  C_5
REMARK    5  A    between atoms: C_8  and  C_9
REMARK    6  A    between atoms: N_18  and  C_19
REMARK    7  A    between atoms: C_19  and  C_20
REMARK                            x       y       z     vdW  Elec       q    Type
REMARK                         _______ _______ _______ _____ _____    ______ ____
ROOT
ATOM      1  C   UNL     1       1.986   7.864  19.419  0.00  0.00    +0.000 C 
ATOM      2  O   UNL     1       1.678   7.513  20.549  0.00  0.00    +0.000 OA
ATOM      3  N   UNL     1       1.430   8.989  18.881  0.00  0.00    +0.000 N 
ATOM      4  C   UNL     1       0.545   9.816  19.610  0.00  0.00    +0.000 A 
ATOM      5  N   UNL     1       0.344   9.704  20.943  0.00  0.00    +0.000 NA
ATOM      6  C   UNL     1      -0.532  10.632  21.379  0.00  0.00    +0.000 A 
ATOM      7  C   UNL     1      -1.057  11.439  20.391  0.00  0.00    +0.000 A 
ATOM      8  S   UNL     1      -0.352  11.064  18.915  0.00  0.00    +0.000 S 
ATOM      9  C   UNL     1      -2.101  12.469  20.639  0.00  0.00    +0.000 C 
ATOM     10  N   UNL     1      -2.640  12.358  22.020  0.00  0.00    +0.000 NA
ATOM     11  C   UNL     1      -1.580  12.158  23.028  0.00  0.00    +0.000 C 
ATOM     12  C   UNL     1      -0.901  10.794  22.817  0.00  0.00    +0.000 C 
ATOM     13  H   UNL     1       1.627   9.273  17.915  0.00  0.00    +0.000 HD
ENDROOT
BRANCH   1  17
ATOM     14  C   UNL     1       4.778   5.516  17.116  0.00  0.00    +0.000 A 
ATOM     15  C   UNL     1       4.627   6.903  16.909  0.00  0.00    +0.000 A 
ATOM     16  C   UNL     1       3.743   7.646  17.672  0.00  0.00    +0.000 A 
ATOM     17  C   UNL     1       2.971   7.036  18.676  0.00  0.00    +0.000 A 
ATOM     18  C   UNL     1       3.136   5.662  18.914  0.00  0.00    +0.000 A 
ATOM     19  C   UNL     1       4.024   4.919  18.146  0.00  0.00    +0.000 A 
BRANCH  14  21
ATOM     20  C   UNL     1       5.192   3.177  16.150  0.00  0.00    +0.000 C 
ATOM     21  C   UNL     1       5.681   4.639  16.243  0.00  0.00    +0.000 C 
ATOM     22  C   UNL     1       7.088   4.632  16.880  0.00  0.00    +0.000 C 
ATOM     23  C   UNL     1       5.737   5.208  14.809  0.00  0.00    +0.000 C 
ENDBRANCH  14  21
ENDBRANCH   1  17
BRANCH  10  24
ATOM     24  C   UNL     1      -3.562  13.462  22.356  0.00  0.00    +0.000 C 
BRANCH  24  25
ATOM     25  C   UNL     1      -4.997  13.018  22.551  0.00  0.00    +0.000 A 
ATOM     26  C   UNL     1      -5.769  12.609  21.447  0.00  0.00    +0.000 A 
ATOM     27  C   UNL     1      -7.095  12.210  21.621  0.00  0.00    +0.000 A 
ATOM     28  C   UNL     1      -7.660  12.201  22.897  0.00  0.00    +0.000 A 
ATOM     29  C   UNL     1      -6.900  12.595  24.003  0.00  0.00    +0.000 A 
ATOM     30  C   UNL     1      -5.574  13.004  23.833  0.00  0.00    +0.000 A 
ENDBRANCH  24  25
ENDBRANCH  10  24
TORSDOF 4
ENDMDL
MODEL 5
REMARK VINA RESULT:      -8.1      1.098      1.724
REMARK  Name = 
REMARK  7 active torsions:
REMARK  status: ('A' for Active; 'I' for Inactive)
REMARK    1  A    between atoms: C_1  and  C_2
REMARK    2  A    between atoms: C_2  and  C_3
REMARK    3  A    between atoms: C_2  and  C_4
REMARK    4  A    between atoms: C_2  and  C_5
REMARK    5  A    between atoms: C_8  and  C_9
REMARK    6  A    between atoms: N_18  and  C_19
REMARK    7  A    between atoms: C_19  and  C_20
REMARK                            x       y       z     vdW  Elec       q    Type
REMARK                         _______ _______ _______ _____ _____    ______ ____
ROOT
ATOM      1  C   UNL     1       1.300   8.703  19.832  0.00  0.00    +0.000 C 
ATOM      2  O   UNL     1       1.121   8.529  21.030  0.00  0.00    +0.000 OA
ATOM      3  N   UNL     1       0.675   9.737  19.195  0.00  0.00    +0.000 N 
ATOM      4  C   UNL     1      -0.133  10.670  19.883  0.00  0.00    +0.000 A 
ATOM      5  N   UNL     1      -0.186  10.763  21.232  0.00  0.00    +0.000 NA
ATOM      6  C   UNL     1      -1.018  11.751  21.617  0.00  0.00    +0.000 A 
ATOM      7  C   UNL     1      -1.658  12.402  20.581  0.00  0.00    +0.000 A 
ATOM      8  S   UNL     1      -1.115  11.803  19.110  0.00  0.00    +0.000 S 
ATOM      9  C   UNL     1      -2.680  13.464  20.784  0.00  0.00    +0.000 C 
ATOM     10  N   UNL     1      -3.062  13.566  22.218  0.00  0.00    +0.000 NA
ATOM     11  C   UNL     1      -1.896  13.515  23.121  0.00  0.00    +0.000 C 
ATOM     12  C   UNL     1      -1.229  12.131  23.046  0.00  0.00    +0.000 C 
ATOM     13  H   UNL     1       0.762   9.870  18.181  0.00  0.00    +0.000 HD
ENDROOT
BRANCH   1  17
ATOM     14  C   UNL     1       4.023   5.968  17.905  0.00  0.00    +0.000 A 
ATOM     15  C   UNL     1       3.367   5.637  19.108  0.00  0.00    +0.000 A 
ATOM     16  C   UNL     1       2.478   6.517  19.702  0.00  0.00    +0.000 A 
ATOM     17  C   UNL     1       2.206   7.767  19.119  0.00  0.00    +0.000 A 
ATOM     18  C   UNL     1       2.828   8.095  17.903  0.00  0.00    +0.000 A 
ATOM     19  C   UNL     1       3.719   7.209  17.310  0.00  0.00    +0.000 A 
BRANCH  14  21
ATOM     20  C   UNL     1       4.533   3.656  16.917  0.00  0.00    +0.000 C 
ATOM     21  C   UNL     1       5.074   5.063  17.256  0.00  0.00    +0.000 C 
ATOM     22  C   UNL     1       6.236   4.897  18.260  0.00  0.00    +0.000 C 
ATOM     23  C   UNL     1       5.577   5.701  15.944  0.00  0.00    +0.000 C 
ENDBRANCH  14  21
ENDBRANCH   1  17
BRANCH  10  24
ATOM     24  C   UNL     1      -3.954  14.713  22.482  0.00  0.00    +0.000 C 
BRANCH  24  25
ATOM     25  C   UNL     1      -5.281  14.322  23.099  0.00  0.00    +0.000 A 
ATOM     26  C   UNL     1      -6.315  15.271  23.217  0.00  0.00    +0.000 A 
ATOM     27  C   UNL     1      -7.535  14.918  23.796  0.00  0.00    +0.000 A 
ATOM     28  C   UNL     1      -7.742  13.614  24.249  0.00  0.00    +0.000 A 
ATOM     29  C   UNL     1      -6.727  12.660  24.126  0.00  0.00    +0.000 A 
ATOM     30  C   UNL     1      -5.499  13.010  23.555  0.00  0.00    +0.000 A 
ENDBRANCH  24  25
ENDBRANCH  10  24
TORSDOF 4
ENDMDL
MODEL 6
REMARK VINA RESULT:      -8.0      1.059      1.341
REMARK  Name = 
REMARK  7 active torsions:
REMARK  status: ('A' for Active; 'I' for Inactive)
REMARK    1  A    between atoms: C_1  and  C_2
REMARK    2  A    between atoms: C_2  and  C_3
REMARK    3  A    between atoms: C_2  and  C_4
REMARK    4  A    between atoms: C_2  and  C_5
REMARK    5  A    between atoms: C_8  and  C_9
REMARK    6  A    between atoms: N_18  and  C_19
REMARK    7  A    between atoms: C_19  and  C_20
REMARK                            x       y       z     vdW  Elec       q    Type
REMARK                         _______ _______ _______ _____ _____    ______ ____
ROOT
ATOM      1  C   UNL     1       1.274   8.645  20.003  0.00  0.00    +0.000 C 
ATOM      2  O   UNL     1       0.925   8.377  21.145  0.00  0.00    +0.000 OA
ATOM      3  N   UNL     1       0.789   9.764  19.390  0.00  0.00    +0.000 N 
ATOM      4  C   UNL     1      -0.066  10.677  20.051  0.00  0.00    +0.000 A 
ATOM      5  N   UNL     1      -0.300  10.652  21.383  0.00  0.00    +0.000 NA
ATOM      6  C   UNL     1      -1.134  11.648  21.746  0.00  0.00    +0.000 A 
ATOM      7  C   UNL     1      -1.596  12.422  20.701  0.00  0.00    +0.000 A 
ATOM      8  S   UNL     1      -0.881  11.927  19.265  0.00  0.00    +0.000 S 
ATOM      9  C   UNL     1      -2.589  13.517  20.866  0.00  0.00    +0.000 C 
ATOM     10  N   UNL     1      -3.161  13.513  22.238  0.00  0.00    +0.000 NA
ATOM     11  C   UNL     1      -2.134  13.318  23.281  0.00  0.00    +0.000 C 
ATOM     12  C   UNL     1      -1.524  11.911  23.163  0.00  0.00    +0.000 C 
ATOM     13  H   UNL     1       1.021   9.983  18.415  0.00  0.00    +0.000 HD
ENDROOT
BRANCH   1  17
ATOM     14  C   UNL     1       3.952   5.987  17.912  0.00  0.00    +0.000 A 
ATOM     15  C   UNL     1       3.606   7.252  17.392  0.00  0.00    +0.000 A 
ATOM     16  C   UNL     1       2.763   8.102  18.087  0.00  0.00    +0.000 A 
ATOM     17  C   UNL     1       2.229   7.727  19.332  0.00  0.00    +0.000 A 
ATOM     18  C   UNL     1       2.593   6.484  19.876  0.00  0.00    +0.000 A 
ATOM     19  C   UNL     1       3.438   5.633  19.176  0.00  0.00    +0.000 A 
BRANCH  14  21
ATOM     20  C   UNL     1       5.307   5.523  15.784  0.00  0.00    +0.000 C 
ATOM     21  C   UNL     1       4.813   4.980  17.143  0.00  0.00    +0.000 C 
ATOM     22  C   UNL     1       3.944   3.732  16.869  0.00  0.00    +0.000 C 
ATOM     23  C   UNL     1       6.054   4.605  17.979  0.00  0.00    +0.000 C 
ENDBRANCH  14  21
ENDBRANCH   1  17
BRANCH  10  24
ATOM     24  C   UNL     1      -4.030  14.681  22.490  0.00  0.00    +0.000 C 
BRANCH  24  25
ATOM     25  C   UNL     1      -5.365  14.323  23.109  0.00  0.00    +0.000 A 
ATOM     26  C   UNL     1      -5.667  12.982  23.419  0.00  0.00    +0.000 A 
ATOM     27  C   UNL     1      -6.900  12.647  23.978  0.00  0.00    +0.000 A 
ATOM     28  C   UNL     1      -7.840  13.643  24.248  0.00  0.00    +0.000 A 
ATOM     29  C   UNL     1      -7.548  14.979  23.955  0.00  0.00    +0.000 A 
ATOM     30  C   UNL     1      -6.317  15.320  23.386  0.00  0.00    +0.000 A 
ENDBRANCH  24  25
ENDBRANCH  10  24
TORSDOF 4
ENDMDL
MODEL 7
REMARK VINA RESULT:      -8.0      2.519     11.942
REMARK  Name = 
REMARK  7 active torsions:
REMARK  status: ('A' for Active; 'I' for Inactive)
REMARK    1  A    between atoms: C_1  and  C_2
REMARK    2  A    between atoms: C_2  and  C_3
REMARK    3  A    between atoms: C_2  and  C_4
REMARK    4  A    between atoms: C_2  and  C_5
REMARK    5  A    between atoms: C_8  and  C_9
REMARK    6  A    between atoms: N_18  and  C_19
REMARK    7  A    between atoms: C_19  and  C_20
REMARK                            x       y       z     vdW  Elec       q    Type
REMARK                         _______ _______ _______ _____ _____    ______ ____
ROOT
ATOM      1  C   UNL     1       0.777   9.572  19.616  0.00  0.00    +0.000 C 
ATOM      2  O   UNL     1       1.066   9.999  18.507  0.00  0.00    +0.000 OA
ATOM      3  N   UNL     1       1.274   8.370  20.031  0.00  0.00    +0.000 N 
ATOM      4  C   UNL     1       2.174   7.612  19.246  0.00  0.00    +0.000 A 
ATOM      5  N   UNL     1       2.789   8.093  18.141  0.00  0.00    +0.000 NA
ATOM      6  C   UNL     1       3.608   7.167  17.603  0.00  0.00    +0.000 A 
ATOM      7  C   UNL     1       3.603   5.947  18.249  0.00  0.00    +0.000 A 
ATOM      8  S   UNL     1       2.614   6.024  19.603  0.00  0.00    +0.000 S 
ATOM      9  C   UNL     1       4.366   4.762  17.774  0.00  0.00    +0.000 C 
ATOM     10  N   UNL     1       4.942   5.007  16.425  0.00  0.00    +0.000 NA
ATOM     11  C   UNL     1       5.553   6.345  16.303  0.00  0.00    +0.000 C 
ATOM     12  C   UNL     1       4.470   7.432  16.412  0.00  0.00    +0.000 C 
ATOM     13  H   UNL     1       1.002   7.961  20.933  0.00  0.00    +0.000 HD
ENDROOT
BRANCH   1  17
ATOM     14  C   UNL     1      -1.728  12.113  22.040  0.00  0.00    +0.000 A 
ATOM     15  C   UNL     1      -1.636  12.277  20.642  0.00  0.00    +0.000 A 
ATOM     16  C   UNL     1      -0.844  11.438  19.876  0.00  0.00    +0.000 A 
ATOM     17  C   UNL     1      -0.110  10.398  20.472  0.00  0.00    +0.000 A 
ATOM     18  C   UNL     1      -0.220  10.204  21.859  0.00  0.00    +0.000 A 
ATOM     19  C   UNL     1      -1.014  11.047  22.625  0.00  0.00    +0.000 A 
BRANCH  14  21
ATOM     20  C   UNL     1      -3.424  14.034  22.141  0.00  0.00    +0.000 C 
ATOM     21  C   UNL     1      -2.523  13.065  22.938  0.00  0.00    +0.000 C 
ATOM     22  C   UNL     1      -1.509  13.911  23.741  0.00  0.00    +0.000 C 
ATOM     23  C   UNL     1      -3.429  12.256  23.889  0.00  0.00    +0.000 C 
ENDBRANCH  14  21
ENDBRANCH   1  17
BRANCH  10  24
ATOM     24  C   UNL     1       5.838   3.917  15.988  0.00  0.00    +0.000 C 
BRANCH  24  25
ATOM     25  C   UNL     1       6.276   4.031  14.543  0.00  0.00    +0.000 A 
ATOM     26  C   UNL     1       5.568   3.353  13.532  0.00  0.00    +0.000 A 
ATOM     27  C   UNL     1       5.975   3.447  12.200  0.00  0.00    +0.000 A 
ATOM     28  C   UNL     1       7.081   4.227  11.861  0.00  0.00    +0.000 A 
ATOM     29  C   UNL     1       7.785   4.913  12.855  0.00  0.00    +0.000 A 
ATOM     30  C   UNL     1       7.388   4.817  14.191  0.00  0.00    +0.000 A 
ENDBRANCH  24  25
ENDBRANCH  10  24
TORSDOF 4
ENDMDL
MODEL 8
REMARK VINA RESULT:      -8.0      2.473     11.895
REMARK  Name = 
REMARK  7 active torsions:
REMARK  status: ('A' for Active; 'I' for Inactive)
REMARK    1  A    between atoms: C_1  and  C_2
REMARK    2  A    between atoms: C_2  and  C_3
REMARK    3  A    between atoms: C_2  and  C_4
REMARK    4  A    between atoms: C_2  and  C_5
REMARK    5  A    between atoms: C_8  and  C_9
REMARK    6  A    between atoms: N_18  and  C_19
REMARK    7  A    between atoms: C_19  and  C_20
REMARK                            x       y       z     vdW  Elec       q    Type
REMARK                         _______ _______ _______ _____ _____    ______ ____
ROOT
ATOM      1  C   UNL     1       0.703   9.589  19.742  0.00  0.00    +0.000 C 
ATOM      2  O   UNL     1       0.971  10.008  18.624  0.00  0.00    +0.000 OA
ATOM      3  N   UNL     1       1.214   8.394  20.160  0.00  0.00    +0.000 N 
ATOM      4  C   UNL     1       2.106   7.635  19.368  0.00  0.00    +0.000 A 
ATOM      5  N   UNL     1       2.700   8.109  18.248  0.00  0.00    +0.000 NA
ATOM      6  C   UNL     1       3.516   7.184  17.705  0.00  0.00    +0.000 A 
ATOM      7  C   UNL     1       3.529   5.970  18.362  0.00  0.00    +0.000 A 
ATOM      8  S   UNL     1       2.562   6.053  19.731  0.00  0.00    +0.000 S 
ATOM      9  C   UNL     1       4.292   4.785  17.885  0.00  0.00    +0.000 C 
ATOM     10  N   UNL     1       4.844   5.021  16.525  0.00  0.00    +0.000 NA
ATOM     11  C   UNL     1       5.445   6.362  16.381  0.00  0.00    +0.000 C 
ATOM     12  C   UNL     1       4.356   7.444  16.498  0.00  0.00    +0.000 C 
ATOM     13  H   UNL     1       0.960   7.992  21.070  0.00  0.00    +0.000 HD
ENDROOT
BRANCH   1  17
ATOM     14  C   UNL     1      -1.789  12.137  22.174  0.00  0.00    +0.000 A 
ATOM     15  C   UNL     1      -1.792  12.220  20.766  0.00  0.00    +0.000 A 
ATOM     16  C   UNL     1      -1.003  11.379  19.999  0.00  0.00    +0.000 A 
ATOM     17  C   UNL     1      -0.176  10.418  20.605  0.00  0.00    +0.000 A 
ATOM     18  C   UNL     1      -0.188  10.303  22.005  0.00  0.00    +0.000 A 
ATOM     19  C   UNL     1      -0.981  11.148  22.772  0.00  0.00    +0.000 A 
BRANCH  14  21
ATOM     20  C   UNL     1      -3.528  12.371  24.044  0.00  0.00    +0.000 C 
ATOM     21  C   UNL     1      -2.580  13.098  23.065  0.00  0.00    +0.000 C 
ATOM     22  C   UNL     1      -3.440  13.993  22.145  0.00  0.00    +0.000 C 
ATOM     23  C   UNL     1      -1.608  13.956  23.903  0.00  0.00    +0.000 C 
ENDBRANCH  14  21
ENDBRANCH   1  17
BRANCH  10  24
ATOM     24  C   UNL     1       5.740   3.933  16.084  0.00  0.00    +0.000 C 
BRANCH  24  25
ATOM     25  C   UNL     1       6.206   4.072  14.649  0.00  0.00    +0.000 A 
ATOM     26  C   UNL     1       7.331   4.862  14.342  0.00  0.00    +0.000 A 
ATOM     27  C   UNL     1       7.755   5.002  13.020  0.00  0.00    +0.000 A 
ATOM     28  C   UNL     1       7.073   4.348  11.993  0.00  0.00    +0.000 A 
ATOM     29  C   UNL     1       5.962   3.552  12.287  0.00  0.00    +0.000 A 
ATOM     30  C   UNL     1       5.526   3.414  13.609  0.00  0.00    +0.000 A 
ENDBRANCH  24  25
ENDBRANCH  10  24
TORSDOF 4
ENDMDL
MODEL 9
REMARK VINA RESULT:      -7.9      2.400     11.416
REMARK  Name = 
REMARK  7 active torsions:
REMARK  status: ('A' for Active; 'I' for Inactive)
REMARK    1  A    between atoms: C_1  and  C_2
REMARK    2  A    between atoms: C_2  and  C_3
REMARK    3  A    between atoms: C_2  and  C_4
REMARK    4  A    between atoms: C_2  and  C_5
REMARK    5  A    between atoms: C_8  and  C_9
REMARK    6  A    between atoms: N_18  and  C_19
REMARK    7  A    between atoms: C_19  and  C_20
REMARK                            x       y       z     vdW  Elec       q    Type
REMARK                         _______ _______ _______ _____ _____    ______ ____
ROOT
ATOM      1  C   UNL     1       0.417   9.985  21.711  0.00  0.00    +0.000 C 
ATOM      2  O   UNL     1       0.614   9.133  22.567  0.00  0.00    +0.000 OA
ATOM      3  N   UNL     1       0.807   9.755  20.422  0.00  0.00    +0.000 N 
ATOM      4  C   UNL     1       1.380   8.529  20.013  0.00  0.00    +0.000 A 
ATOM      5  N   UNL     1       1.392   7.416  20.783  0.00  0.00    +0.000 NA
ATOM      6  C   UNL     1       1.980   6.389  20.138  0.00  0.00    +0.000 A 
ATOM      7  C   UNL     1       2.474   6.701  18.887  0.00  0.00    +0.000 A 
ATOM      8  S   UNL     1       2.097   8.291  18.506  0.00  0.00    +0.000 S 
ATOM      9  C   UNL     1       3.233   5.742  18.040  0.00  0.00    +0.000 C 
ATOM     10  N   UNL     1       3.565   4.508  18.802  0.00  0.00    +0.000 NA
ATOM     11  C   UNL     1       2.426   4.010  19.599  0.00  0.00    +0.000 C 
ATOM     12  C   UNL     1       2.083   5.015  20.713  0.00  0.00    +0.000 C 
ATOM     13  H   UNL     1       0.706  10.474  19.697  0.00  0.00    +0.000 HD
ENDROOT
BRANCH   1  17
ATOM     14  C   UNL     1      -1.671  13.580  22.862  0.00  0.00    +0.000 A 
ATOM     15  C   UNL     1      -2.031  12.317  23.373  0.00  0.00    +0.000 A 
ATOM     16  C   UNL     1      -1.336  11.175  23.010  0.00  0.00    +0.000 A 
ATOM     17  C   UNL     1      -0.250  11.246  22.122  0.00  0.00    +0.000 A 
ATOM     18  C   UNL     1       0.140  12.503  21.631  0.00  0.00    +0.000 A 
ATOM     19  C   UNL     1      -0.559  13.647  21.996  0.00  0.00    +0.000 A 
BRANCH  14  21
ATOM     20  C   UNL     1      -2.759  15.697  21.906  0.00  0.00    +0.000 C 
ATOM     21  C   UNL     1      -2.460  14.857  23.167  0.00  0.00    +0.000 C 
ATOM     22  C   UNL     1      -1.605  15.720  24.122  0.00  0.00    +0.000 C 
ATOM     23  C   UNL     1      -3.809  14.495  23.822  0.00  0.00    +0.000 C 
ENDBRANCH  14  21
ENDBRANCH   1  17
BRANCH  10  24
ATOM     24  C   UNL     1       4.177   3.468  17.950  0.00  0.00    +0.000 C 
BRANCH  24  25
ATOM     25  C   UNL     1       5.233   4.001  17.004  0.00  0.00    +0.000 A 
ATOM     26  C   UNL     1       6.457   4.483  17.506  0.00  0.00    +0.000 A 
ATOM     27  C   UNL     1       7.427   4.986  16.638  0.00  0.00    +0.000 A 
ATOM     28  C   UNL     1       7.194   5.002  15.262  0.00  0.00    +0.000 A 
ATOM     29  C   UNL     1       5.986   4.516  14.751  0.00  0.00    +0.000 A 
ATOM     30  C   UNL     1       5.007   4.018  15.616  0.00  0.00    +0.000 A 
ENDBRANCH  24  25
ENDBRANCH  10  24
TORSDOF 4
ENDMDL
