MODEL 1
REMARK VINA RESULT:      -7.7      0.000      0.000
REMARK  Name = 
REMARK  9 active torsions:
REMARK  status: ('A' for Active; 'I' for Inactive)
REMARK    1  A    between atoms: C_1  and  C_2
REMARK    2  A    between atoms: C_5  and  N_6
REMARK    3  A    between atoms: N_9  and  C_10
REMARK    4  A    between atoms: C_10  and  C_11
REMARK    5  A    between atoms: C_11  and  O_12
REMARK    6  A    between atoms: O_12  and  C_13
REMARK    7  A    between atoms: C_15  and  N_16
REMARK    8  A    between atoms: N_19  and  C_20
REMARK    9  A    between atoms: C_27  and  C_28
REMARK                            x       y       z     vdW  Elec       q    Type
REMARK                         _______ _______ _______ _____ _____    ______ ____
ROOT
ATOM      1  C   UNL     1      -0.208   9.672  23.222  0.00  0.00    +0.000 C 
ENDROOT
BRANCH   1   5
ATOM      2  N   UNL     1       1.937   7.652  21.061  0.00  0.00    +0.000 N 
ATOM      3  C   UNL     1       0.757   8.166  21.555  0.00  0.00    +0.000 C 
ATOM      4  O   UNL     1      -0.375   7.854  21.205  0.00  0.00    +0.000 OA
ATOM      5  N   UNL     1       0.951   9.117  22.535  0.00  0.00    +0.000 N 
ATOM      6  H   UNL     1       2.781   8.143  21.301  0.00  0.00    +0.000 HD
ATOM      7  H   UNL     1       1.860   9.223  22.955  0.00  0.00    +0.000 HD
BRANCH   2  12
ATOM      8  C   UNL     1       2.329   3.310  17.311  0.00  0.00    +0.000 C 
ATOM      9  C   UNL     1       2.215   4.426  18.312  0.00  0.00    +0.000 A 
ATOM     10  C   UNL     1       2.683   5.693  17.961  0.00  0.00    +0.000 A 
ATOM     11  C   UNL     1       2.596   6.758  18.855  0.00  0.00    +0.000 A 
ATOM     12  C   UNL     1       2.049   6.591  20.128  0.00  0.00    +0.000 A 
ATOM     13  C   UNL     1       1.567   5.323  20.486  0.00  0.00    +0.000 A 
ATOM     14  C   UNL     1       1.651   4.233  19.592  0.00  0.00    +0.000 A 
ATOM     15  C   UNL     1       1.140   2.881  20.006  0.00  0.00    +0.000 C 
ENDBRANCH   2  12
ENDBRANCH   1   5
BRANCH   1  16
ATOM     16  C   UNL     1      -0.691  11.005  22.636  0.00  0.00    +0.000 C 
BRANCH  16  17
ATOM     17  O   UNL     1       0.372  11.596  21.884  0.00  0.00    +0.000 OA
BRANCH  17  18
ATOM     18  C   UNL     1      -0.024  12.003  20.621  0.00  0.00    +0.000 A 
ATOM     19  C   UNL     1      -1.351  11.821  20.322  0.00  0.00    +0.000 A 
ATOM     20  C   UNL     1      -1.778  12.213  19.062  0.00  0.00    +0.000 A 
ATOM     21  N   UNL     1      -0.923  12.783  18.195  0.00  0.00    +0.000 NA
ATOM     22  C   UNL     1       0.354  12.904  18.590  0.00  0.00    +0.000 A 
ATOM     23  N   UNL     1       0.864  12.529  19.768  0.00  0.00    +0.000 NA
BRANCH  20  24
ATOM     24  N   UNL     1      -3.117  12.098  18.745  0.00  0.00    +0.000 N 
ATOM     25  C   UNL     1      -3.541  11.139  17.721  0.00  0.00    +0.000 C 
ATOM     26  C   UNL     1      -4.849  11.684  17.087  0.00  0.00    +0.000 C 
ATOM     27  N   UNL     1      -5.923  11.942  18.083  0.00  0.00    +0.000 NA
ATOM     28  C   UNL     1      -7.076  12.572  17.442  0.00  0.00    +0.000 C 
ATOM     29  C   UNL     1      -5.409  12.813  19.167  0.00  0.00    +0.000 C 
ATOM     30  C   UNL     1      -4.115  12.268  19.808  0.00  0.00    +0.000 C 
ENDBRANCH  20  24
ENDBRANCH  17  18
ENDBRANCH  16  17
ENDBRANCH   1  16
TORSDOF 6
ENDMDL
MODEL 2
REMARK VINA RESULT:      -7.7      6.409      9.795
REMARK  Name = 
REMARK  9 active torsions:
REMARK  status: ('A' for Active; 'I' for Inactive)
REMARK    1  A    between atoms: C_1  and  C_2
REMARK    2  A    between atoms: C_5  and  N_6
REMARK    3  A    between atoms: N_9  and  C_10
REMARK    4  A    between atoms: C_10  and  C_11
REMARK    5  A    between atoms: C_11  and  O_12
REMARK    6  A    between atoms: O_12  and  C_13
REMARK    7  A    between atoms: C_15  and  N_16
REMARK    8  A    between atoms: N_19  and  C_20
REMARK    9  A    between atoms: C_27  and  C_28
REMARK                            x       y       z     vdW  Elec       q    Type
REMARK                         _______ _______ _______ _____ _____    ______ ____
ROOT
ATOM      1  C   UNL     1       7.762   6.797  18.349  0.00  0.00    +0.000 C 
ENDROOT
BRANCH   1   5
ATOM      2  N   UNL     1       9.474   9.963  18.978  0.00  0.00    +0.000 N 
ATOM      3  C   UNL     1       8.574   9.103  18.387  0.00  0.00    +0.000 C 
ATOM      4  O   UNL     1       7.816   9.368  17.461  0.00  0.00    +0.000 OA
ATOM      5  N   UNL     1       8.586   7.841  18.942  0.00  0.00    +0.000 N 
ATOM      6  H   UNL     1       9.882   9.664  19.847  0.00  0.00    +0.000 HD
ATOM      7  H   UNL     1       9.339   7.574  19.556  0.00  0.00    +0.000 HD
BRANCH   2  12
ATOM      8  C   UNL     1      10.578  15.355  17.312  0.00  0.00    +0.000 C 
ATOM      9  C   UNL     1      10.264  13.955  17.761  0.00  0.00    +0.000 A 
ATOM     10  C   UNL     1      11.108  12.917  17.364  0.00  0.00    +0.000 A 
ATOM     11  C   UNL     1      10.859  11.604  17.758  0.00  0.00    +0.000 A 
ATOM     12  C   UNL     1       9.757  11.285  18.552  0.00  0.00    +0.000 A 
ATOM     13  C   UNL     1       8.907  12.323  18.964  0.00  0.00    +0.000 A 
ATOM     14  C   UNL     1       9.146  13.658  18.571  0.00  0.00    +0.000 A 
ATOM     15  C   UNL     1       8.213  14.750  19.015  0.00  0.00    +0.000 C 
ENDBRANCH   2  12
ENDBRANCH   1   5
BRANCH   1  16
ATOM     16  C   UNL     1       7.563   5.578  19.260  0.00  0.00    +0.000 C 
BRANCH  16  17
ATOM     17  O   UNL     1       6.797   4.593  18.561  0.00  0.00    +0.000 OA
BRANCH  17  18
ATOM     18  C   UNL     1       5.506   4.472  19.046  0.00  0.00    +0.000 A 
ATOM     19  C   UNL     1       4.759   5.623  19.056  0.00  0.00    +0.000 A 
ATOM     20  C   UNL     1       3.463   5.536  19.542  0.00  0.00    +0.000 A 
ATOM     21  N   UNL     1       2.960   4.356  19.945  0.00  0.00    +0.000 NA
ATOM     22  C   UNL     1       3.782   3.296  19.899  0.00  0.00    +0.000 A 
ATOM     23  N   UNL     1       5.052   3.288  19.477  0.00  0.00    +0.000 NA
BRANCH  20  24
ATOM     24  N   UNL     1       2.663   6.661  19.515  0.00  0.00    +0.000 N 
ATOM     25  C   UNL     1       2.273   7.245  18.228  0.00  0.00    +0.000 C 
ATOM     26  C   UNL     1       2.036   8.761  18.459  0.00  0.00    +0.000 C 
ATOM     27  N   UNL     1       1.036   9.046  19.522  0.00  0.00    +0.000 NA
ATOM     28  C   UNL     1       0.955  10.483  19.778  0.00  0.00    +0.000 C 
ATOM     29  C   UNL     1       1.404   8.332  20.768  0.00  0.00    +0.000 C 
ATOM     30  C   UNL     1       1.629   6.820  20.545  0.00  0.00    +0.000 C 
ENDBRANCH  20  24
ENDBRANCH  17  18
ENDBRANCH  16  17
ENDBRANCH   1  16
TORSDOF 6
ENDMDL
MODEL 3
REMARK VINA RESULT:      -7.5      7.658     11.407
REMARK  Name = 
REMARK  9 active torsions:
REMARK  status: ('A' for Active; 'I' for Inactive)
REMARK    1  A    between atoms: C_1  and  C_2
REMARK    2  A    between atoms: C_5  and  N_6
REMARK    3  A    between atoms: N_9  and  C_10
REMARK    4  A    between atoms: C_10  and  C_11
REMARK    5  A    between atoms: C_11  and  O_12
REMARK    6  A    between atoms: O_12  and  C_13
REMARK    7  A    between atoms: C_15  and  N_16
REMARK    8  A    between atoms: N_19  and  C_20
REMARK    9  A    between atoms: C_27  and  C_28
REMARK                            x       y       z     vdW  Elec       q    Type
REMARK                         _______ _______ _______ _____ _____    ______ ____
ROOT
ATOM      1  C   UNL     1       8.427   8.559  18.304  0.00  0.00    +0.000 C 
ENDROOT
BRANCH   1   5
ATOM      2  N   UNL     1       9.266  12.100  18.626  0.00  0.00    +0.000 N 
ATOM      3  C   UNL     1       9.224  10.769  18.981  0.00  0.00    +0.000 C 
ATOM      4  O   UNL     1       9.643  10.280  20.024  0.00  0.00    +0.000 OA
ATOM      5  N   UNL     1       8.636   9.973  18.021  0.00  0.00    +0.000 N 
ATOM      6  H   UNL     1       9.066  12.320  17.667  0.00  0.00    +0.000 HD
ATOM      7  H   UNL     1       8.119  10.398  17.268  0.00  0.00    +0.000 HD
BRANCH   2  12
ATOM      8  C   UNL     1      11.027  16.383  22.036  0.00  0.00    +0.000 C 
ATOM      9  C   UNL     1      10.540  15.265  21.158  0.00  0.00    +0.000 A 
ATOM     10  C   UNL     1      11.409  14.731  20.206  0.00  0.00    +0.000 A 
ATOM     11  C   UNL     1      11.002  13.693  19.371  0.00  0.00    +0.000 A 
ATOM     12  C   UNL     1       9.714  13.161  19.453  0.00  0.00    +0.000 A 
ATOM     13  C   UNL     1       8.836  13.685  20.414  0.00  0.00    +0.000 A 
ATOM     14  C   UNL     1       9.233  14.739  21.266  0.00  0.00    +0.000 A 
ATOM     15  C   UNL     1       8.269  15.292  22.277  0.00  0.00    +0.000 C 
ENDBRANCH   2  12
ENDBRANCH   1   5
BRANCH   1  16
ATOM     16  C   UNL     1       7.306   7.924  17.468  0.00  0.00    +0.000 C 
BRANCH  16  17
ATOM     17  O   UNL     1       7.886   7.041  16.505  0.00  0.00    +0.000 OA
BRANCH  17  18
ATOM     18  C   UNL     1       7.111   5.917  16.270  0.00  0.00    +0.000 A 
ATOM     19  C   UNL     1       6.196   5.606  17.245  0.00  0.00    +0.000 A 
ATOM     20  C   UNL     1       5.410   4.482  17.043  0.00  0.00    +0.000 A 
ATOM     21  N   UNL     1       5.521   3.761  15.914  0.00  0.00    +0.000 NA
ATOM     22  C   UNL     1       6.455   4.152  15.031  0.00  0.00    +0.000 A 
ATOM     23  N   UNL     1       7.279   5.199  15.152  0.00  0.00    +0.000 NA
BRANCH  20  24
ATOM     24  N   UNL     1       4.440   4.169  17.975  0.00  0.00    +0.000 N 
ATOM     25  C   UNL     1       3.783   2.859  17.928  0.00  0.00    +0.000 C 
ATOM     26  C   UNL     1       2.366   3.028  18.537  0.00  0.00    +0.000 C 
ATOM     27  N   UNL     1       2.379   3.592  19.913  0.00  0.00    +0.000 NA
ATOM     28  C   UNL     1       1.016   3.845  20.377  0.00  0.00    +0.000 C 
ATOM     29  C   UNL     1       3.162   4.851  19.936  0.00  0.00    +0.000 C 
ATOM     30  C   UNL     1       4.578   4.684  19.342  0.00  0.00    +0.000 C 
ENDBRANCH  20  24
ENDBRANCH  17  18
ENDBRANCH  16  17
ENDBRANCH   1  16
TORSDOF 6
ENDMDL
MODEL 4
REMARK VINA RESULT:      -7.5      7.138      9.876
REMARK  Name = 
REMARK  9 active torsions:
REMARK  status: ('A' for Active; 'I' for Inactive)
REMARK    1  A    between atoms: C_1  and  C_2
REMARK    2  A    between atoms: C_5  and  N_6
REMARK    3  A    between atoms: N_9  and  C_10
REMARK    4  A    between atoms: C_10  and  C_11
REMARK    5  A    between atoms: C_11  and  O_12
REMARK    6  A    between atoms: O_12  and  C_13
REMARK    7  A    between atoms: C_15  and  N_16
REMARK    8  A    between atoms: N_19  and  C_20
REMARK    9  A    between atoms: C_27  and  C_28
REMARK                            x       y       z     vdW  Elec       q    Type
REMARK                         _______ _______ _______ _____ _____    ______ ____
ROOT
ATOM      1  C   UNL     1       7.945   7.901  17.477  0.00  0.00    +0.000 C 
ENDROOT
BRANCH   1   5
ATOM      2  N   UNL     1       4.624   6.387  17.293  0.00  0.00    +0.000 N 
ATOM      3  C   UNL     1       5.902   6.591  17.771  0.00  0.00    +0.000 C 
ATOM      4  O   UNL     1       6.460   5.946  18.650  0.00  0.00    +0.000 OA
ATOM      5  N   UNL     1       6.550   7.637  17.149  0.00  0.00    +0.000 N 
ATOM      6  H   UNL     1       4.235   7.112  16.717  0.00  0.00    +0.000 HD
ATOM      7  H   UNL     1       6.169   8.027  16.302  0.00  0.00    +0.000 HD
BRANCH   2  12
ATOM      8  C   UNL     1       1.080   2.133  18.846  0.00  0.00    +0.000 C 
ATOM      9  C   UNL     1       1.997   3.261  18.464  0.00  0.00    +0.000 A 
ATOM     10  C   UNL     1       2.829   3.104  17.355  0.00  0.00    +0.000 A 
ATOM     11  C   UNL     1       3.694   4.123  16.962  0.00  0.00    +0.000 A 
ATOM     12  C   UNL     1       3.763   5.325  17.667  0.00  0.00    +0.000 A 
ATOM     13  C   UNL     1       2.923   5.496  18.778  0.00  0.00    +0.000 A 
ATOM     14  C   UNL     1       2.043   4.472  19.190  0.00  0.00    +0.000 A 
ATOM     15  C   UNL     1       1.164   4.674  20.392  0.00  0.00    +0.000 C 
ENDBRANCH   2  12
ENDBRANCH   1   5
BRANCH   1  16
ATOM     16  C   UNL     1       8.197   9.327  17.986  0.00  0.00    +0.000 C 
BRANCH  16  17
ATOM     17  O   UNL     1       9.144   9.280  19.057  0.00  0.00    +0.000 OA
BRANCH  17  18
ATOM     18  C   UNL     1       9.560  10.536  19.463  0.00  0.00    +0.000 A 
ATOM     19  C   UNL     1       9.052  10.979  20.659  0.00  0.00    +0.000 A 
ATOM     20  C   UNL     1       9.445  12.236  21.090  0.00  0.00    +0.000 A 
ATOM     21  N   UNL     1      10.321  12.964  20.375  0.00  0.00    +0.000 NA
ATOM     22  C   UNL     1      10.748  12.436  19.217  0.00  0.00    +0.000 A 
ATOM     23  N   UNL     1      10.403  11.250  18.704  0.00  0.00    +0.000 NA
BRANCH  20  24
ATOM     24  N   UNL     1       8.998  12.692  22.315  0.00  0.00    +0.000 N 
ATOM     25  C   UNL     1       8.628  14.101  22.474  0.00  0.00    +0.000 C 
ATOM     26  C   UNL     1       8.860  14.477  23.962  0.00  0.00    +0.000 C 
ATOM     27  N   UNL     1       8.126  13.601  24.913  0.00  0.00    +0.000 NA
ATOM     28  C   UNL     1       8.488  13.924  26.292  0.00  0.00    +0.000 C 
ATOM     29  C   UNL     1       8.434  12.178  24.630  0.00  0.00    +0.000 C 
ATOM     30  C   UNL     1       8.192  11.797  23.154  0.00  0.00    +0.000 C 
ENDBRANCH  20  24
ENDBRANCH  17  18
ENDBRANCH  16  17
ENDBRANCH   1  16
TORSDOF 6
ENDMDL
MODEL 5
REMARK VINA RESULT:      -7.4      3.731      6.696
REMARK  Name = 
REMARK  9 active torsions:
REMARK  status: ('A' for Active; 'I' for Inactive)
REMARK    1  A    between atoms: C_1  and  C_2
REMARK    2  A    between atoms: C_5  and  N_6
REMARK    3  A    between atoms: N_9  and  C_10
REMARK    4  A    between atoms: C_10  and  C_11
REMARK    5  A    between atoms: C_11  and  O_12
REMARK    6  A    between atoms: O_12  and  C_13
REMARK    7  A    between atoms: C_15  and  N_16
REMARK    8  A    between atoms: N_19  and  C_20
REMARK    9  A    between atoms: C_27  and  C_28
REMARK                            x       y       z     vdW  Elec       q    Type
REMARK                         _______ _______ _______ _____ _____    ______ ____
ROOT
ATOM      1  C   UNL     1       3.313   2.737  20.873  0.00  0.00    +0.000 C 
ENDROOT
BRANCH   1   5
ATOM      2  N   UNL     1       4.297   3.252  17.392  0.00  0.00    +0.000 N 
ATOM      3  C   UNL     1       4.443   3.233  18.762  0.00  0.00    +0.000 C 
ATOM      4  O   UNL     1       5.421   3.616  19.394  0.00  0.00    +0.000 OA
ATOM      5  N   UNL     1       3.343   2.721  19.416  0.00  0.00    +0.000 N 
ATOM      6  H   UNL     1       3.529   2.728  17.011  0.00  0.00    +0.000 HD
ATOM      7  H   UNL     1       2.477   2.598  18.915  0.00  0.00    +0.000 HD
BRANCH   2  12
ATOM      8  C   UNL     1       7.971   5.522  13.594  0.00  0.00    +0.000 C 
ATOM      9  C   UNL     1       6.999   4.911  14.565  0.00  0.00    +0.000 A 
ATOM     10  C   UNL     1       7.045   5.310  15.902  0.00  0.00    +0.000 A 
ATOM     11  C   UNL     1       6.163   4.772  16.837  0.00  0.00    +0.000 A 
ATOM     12  C   UNL     1       5.215   3.816  16.471  0.00  0.00    +0.000 A 
ATOM     13  C   UNL     1       5.155   3.416  15.127  0.00  0.00    +0.000 A 
ATOM     14  C   UNL     1       6.044   3.950  14.168  0.00  0.00    +0.000 A 
ATOM     15  C   UNL     1       5.968   3.494  12.738  0.00  0.00    +0.000 C 
ENDBRANCH   2  12
ENDBRANCH   1   5
BRANCH   1  16
ATOM     16  C   UNL     1       2.516   3.910  21.459  0.00  0.00    +0.000 C 
BRANCH  16  17
ATOM     17  O   UNL     1       1.541   4.335  20.504  0.00  0.00    +0.000 OA
BRANCH  17  18
ATOM     18  C   UNL     1       1.778   5.612  20.023  0.00  0.00    +0.000 A 
ATOM     19  C   UNL     1       1.195   6.635  20.728  0.00  0.00    +0.000 A 
ATOM     20  C   UNL     1       1.408   7.926  20.268  0.00  0.00    +0.000 A 
ATOM     21  N   UNL     1       2.189   8.152  19.198  0.00  0.00    +0.000 NA
ATOM     22  C   UNL     1       2.702   7.076  18.580  0.00  0.00    +0.000 A 
ATOM     23  N   UNL     1       2.528   5.797  18.929  0.00  0.00    +0.000 NA
BRANCH  20  24
ATOM     24  N   UNL     1       0.884   8.985  20.983  0.00  0.00    +0.000 N 
ATOM     25  C   UNL     1       1.157   9.097  22.419  0.00  0.00    +0.000 C 
ATOM     26  C   UNL     1      -0.033   9.861  23.060  0.00  0.00    +0.000 C 
ATOM     27  N   UNL     1      -0.284  11.188  22.438  0.00  0.00    +0.000 NA
ATOM     28  C   UNL     1      -1.490  11.795  22.997  0.00  0.00    +0.000 C 
ATOM     29  C   UNL     1      -0.427  11.040  20.970  0.00  0.00    +0.000 C 
ATOM     30  C   UNL     1       0.761  10.292  20.327  0.00  0.00    +0.000 C 
ENDBRANCH  20  24
ENDBRANCH  17  18
ENDBRANCH  16  17
ENDBRANCH   1  16
TORSDOF 6
ENDMDL
MODEL 6
REMARK VINA RESULT:      -7.4      2.804      3.721
REMARK  Name = 
REMARK  9 active torsions:
REMARK  status: ('A' for Active; 'I' for Inactive)
REMARK    1  A    between atoms: C_1  and  C_2
REMARK    2  A    between atoms: C_5  and  N_6
REMARK    3  A    between atoms: N_9  and  C_10
REMARK    4  A    between atoms: C_10  and  C_11
REMARK    5  A    between atoms: C_11  and  O_12
REMARK    6  A    between atoms: O_12  and  C_13
REMARK    7  A    between atoms: C_15  and  N_16
REMARK    8  A    between atoms: N_19  and  C_20
REMARK    9  A    between atoms: C_27  and  C_28
REMARK                            x       y       z     vdW  Elec       q    Type
REMARK                         _______ _______ _______ _____ _____    ______ ____
ROOT
ATOM      1  C   UNL     1       0.782   8.495  21.085  0.00  0.00    +0.000 C 
ENDROOT
BRANCH   1   5
ATOM      2  N   UNL     1       3.203   6.019  19.920  0.00  0.00    +0.000 N 
ATOM      3  C   UNL     1       2.391   7.131  19.850  0.00  0.00    +0.000 C 
ATOM      4  O   UNL     1       2.211   7.838  18.865  0.00  0.00    +0.000 OA
ATOM      5  N   UNL     1       1.753   7.410  21.040  0.00  0.00    +0.000 N 
ATOM      6  H   UNL     1       3.403   5.661  20.838  0.00  0.00    +0.000 HD
ATOM      7  H   UNL     1       1.746   6.722  21.776  0.00  0.00    +0.000 HD
BRANCH   2  12
ATOM      8  C   UNL     1       6.088   3.632  15.556  0.00  0.00    +0.000 C 
ATOM      9  C   UNL     1       5.361   4.264  16.709  0.00  0.00    +0.000 A 
ATOM     10  C   UNL     1       3.965   4.273  16.699  0.00  0.00    +0.000 A 
ATOM     11  C   UNL     1       3.248   4.845  17.747  0.00  0.00    +0.000 A 
ATOM     12  C   UNL     1       3.898   5.433  18.832  0.00  0.00    +0.000 A 
ATOM     13  C   UNL     1       5.302   5.421  18.856  0.00  0.00    +0.000 A 
ATOM     14  C   UNL     1       6.042   4.847  17.800  0.00  0.00    +0.000 A 
ATOM     15  C   UNL     1       7.545   4.859  17.843  0.00  0.00    +0.000 C 
ENDBRANCH   2  12
ENDBRANCH   1   5
BRANCH   1  16
ATOM     16  C   UNL     1       0.861   9.337  22.366  0.00  0.00    +0.000 C 
BRANCH  16  17
ATOM     17  O   UNL     1       1.143  10.694  22.015  0.00  0.00    +0.000 OA
BRANCH  17  18
ATOM     18  C   UNL     1       0.109  11.297  21.319  0.00  0.00    +0.000 A 
ATOM     19  C   UNL     1      -1.010  11.601  22.055  0.00  0.00    +0.000 A 
ATOM     20  C   UNL     1      -2.067  12.200  21.386  0.00  0.00    +0.000 A 
ATOM     21  N   UNL     1      -1.969  12.501  20.079  0.00  0.00    +0.000 NA
ATOM     22  C   UNL     1      -0.832  12.150  19.457  0.00  0.00    +0.000 A 
ATOM     23  N   UNL     1       0.225  11.544  20.008  0.00  0.00    +0.000 NA
BRANCH  20  24
ATOM     24  N   UNL     1      -3.186  12.572  22.103  0.00  0.00    +0.000 N 
ATOM     25  C   UNL     1      -3.066  12.875  23.532  0.00  0.00    +0.000 C 
ATOM     26  C   UNL     1      -4.436  12.561  24.191  0.00  0.00    +0.000 C 
ATOM     27  N   UNL     1      -5.571  13.289  23.565  0.00  0.00    +0.000 NA
ATOM     28  C   UNL     1      -6.841  12.853  24.143  0.00  0.00    +0.000 C 
ATOM     29  C   UNL     1      -5.576  13.054  22.101  0.00  0.00    +0.000 C 
ATOM     30  C   UNL     1      -4.219  13.377  21.439  0.00  0.00    +0.000 C 
ENDBRANCH  20  24
ENDBRANCH  17  18
ENDBRANCH  16  17
ENDBRANCH   1  16
TORSDOF 6
ENDMDL
MODEL 7
REMARK VINA RESULT:      -7.3      5.977      8.938
REMARK  Name = 
REMARK  9 active torsions:
REMARK  status: ('A' for Active; 'I' for Inactive)
REMARK    1  A    between atoms: C_1  and  C_2
REMARK    2  A    between atoms: C_5  and  N_6
REMARK    3  A    between atoms: N_9  and  C_10
REMARK    4  A    between atoms: C_10  and  C_11
REMARK    5  A    between atoms: C_11  and  O_12
REMARK    6  A    between atoms: O_12  and  C_13
REMARK    7  A    between atoms: C_15  and  N_16
REMARK    8  A    between atoms: N_19  and  C_20
REMARK    9  A    between atoms: C_27  and  C_28
REMARK                            x       y       z     vdW  Elec       q    Type
REMARK                         _______ _______ _______ _____ _____    ______ ____
ROOT
ATOM      1  C   UNL     1       6.450   5.911  17.483  0.00  0.00    +0.000 C 
ENDROOT
BRANCH   1   5
ATOM      2  N   UNL     1       7.915   9.247  17.749  0.00  0.00    +0.000 N 
ATOM      3  C   UNL     1       7.811   7.888  17.950  0.00  0.00    +0.000 C 
ATOM      4  O   UNL     1       8.550   7.196  18.640  0.00  0.00    +0.000 OA
ATOM      5  N   UNL     1       6.747   7.323  17.279  0.00  0.00    +0.000 N 
ATOM      6  H   UNL     1       7.362   9.640  17.008  0.00  0.00    +0.000 HD
ATOM      7  H   UNL     1       6.034   7.916  16.884  0.00  0.00    +0.000 HD
BRANCH   2  12
ATOM      8  C   UNL     1      11.671  12.789  20.282  0.00  0.00    +0.000 C 
ATOM      9  C   UNL     1      10.699  11.873  19.593  0.00  0.00    +0.000 A 
ATOM     10  C   UNL     1       9.906  11.028  20.370  0.00  0.00    +0.000 A 
ATOM     11  C   UNL     1       8.990  10.163  19.776  0.00  0.00    +0.000 A 
ATOM     12  C   UNL     1       8.841  10.108  18.390  0.00  0.00    +0.000 A 
ATOM     13  C   UNL     1       9.628  10.961  17.600  0.00  0.00    +0.000 A 
ATOM     14  C   UNL     1      10.562  11.841  18.188  0.00  0.00    +0.000 A 
ATOM     15  C   UNL     1      11.403  12.735  17.319  0.00  0.00    +0.000 C 
ENDBRANCH   2  12
ENDBRANCH   1   5
BRANCH   1  16
ATOM     16  C   UNL     1       6.087   5.561  18.933  0.00  0.00    +0.000 C 
BRANCH  16  17
ATOM     17  O   UNL     1       5.175   4.460  18.933  0.00  0.00    +0.000 OA
BRANCH  17  18
ATOM     18  C   UNL     1       3.957   4.770  19.514  0.00  0.00    +0.000 A 
ATOM     19  C   UNL     1       3.497   6.045  19.299  0.00  0.00    +0.000 A 
ATOM     20  C   UNL     1       2.283   6.388  19.874  0.00  0.00    +0.000 A 
ATOM     21  N   UNL     1       1.578   5.486  20.577  0.00  0.00    +0.000 NA
ATOM     22  C   UNL     1       2.127   4.270  20.732  0.00  0.00    +0.000 A 
ATOM     23  N   UNL     1       3.302   3.857  20.244  0.00  0.00    +0.000 NA
BRANCH  20  24
ATOM     24  N   UNL     1       1.761   7.644  19.632  0.00  0.00    +0.000 N 
ATOM     25  C   UNL     1       1.365   8.495  20.758  0.00  0.00    +0.000 C 
ATOM     26  C   UNL     1       0.236   9.434  20.256  0.00  0.00    +0.000 C 
ATOM     27  N   UNL     1       0.623  10.236  19.065  0.00  0.00    +0.000 NA
ATOM     28  C   UNL     1      -0.521  10.998  18.567  0.00  0.00    +0.000 C 
ATOM     29  C   UNL     1       1.136   9.343  17.999  0.00  0.00    +0.000 C 
ATOM     30  C   UNL     1       2.268   8.415  18.490  0.00  0.00    +0.000 C 
ENDBRANCH  20  24
ENDBRANCH  17  18
ENDBRANCH  16  17
ENDBRANCH   1  16
TORSDOF 6
ENDMDL
MODEL 8
REMARK VINA RESULT:      -7.3      3.201      4.070
REMARK  Name = 
REMARK  9 active torsions:
REMARK  status: ('A' for Active; 'I' for Inactive)
REMARK    1  A    between atoms: C_1  and  C_2
REMARK    2  A    between atoms: C_5  and  N_6
REMARK    3  A    between atoms: N_9  and  C_10
REMARK    4  A    between atoms: C_10  and  C_11
REMARK    5  A    between atoms: C_11  and  O_12
REMARK    6  A    between atoms: O_12  and  C_13
REMARK    7  A    between atoms: C_15  and  N_16
REMARK    8  A    between atoms: N_19  and  C_20
REMARK    9  A    between atoms: C_27  and  C_28
REMARK                            x       y       z     vdW  Elec       q    Type
REMARK                         _______ _______ _______ _____ _____    ______ ____
ROOT
ATOM      1  C   UNL     1       1.364  10.204  18.315  0.00  0.00    +0.000 C 
ENDROOT
BRANCH   1   5
ATOM      2  N   UNL     1       2.339   6.959  19.684  0.00  0.00    +0.000 N 
ATOM      3  C   UNL     1       2.170   7.931  18.721  0.00  0.00    +0.000 C 
ATOM      4  O   UNL     1       2.399   7.816  17.522  0.00  0.00    +0.000 OA
ATOM      5  N   UNL     1       1.691   9.119  19.231  0.00  0.00    +0.000 N 
ATOM      6  H   UNL     1       2.299   7.259  20.642  0.00  0.00    +0.000 HD
ATOM      7  H   UNL     1       1.319   9.147  20.167  0.00  0.00    +0.000 HD
BRANCH   2  12
ATOM      8  C   UNL     1       3.792   1.490  18.662  0.00  0.00    +0.000 C 
ATOM      9  C   UNL     1       3.383   2.911  18.928  0.00  0.00    +0.000 A 
ATOM     10  C   UNL     1       4.376   3.863  19.162  0.00  0.00    +0.000 A 
ATOM     11  C   UNL     1       4.045   5.194  19.410  0.00  0.00    +0.000 A 
ATOM     12  C   UNL     1       2.715   5.614  19.442  0.00  0.00    +0.000 A 
ATOM     13  C   UNL     1       1.709   4.666  19.198  0.00  0.00    +0.000 A 
ATOM     14  C   UNL     1       2.029   3.314  18.947  0.00  0.00    +0.000 A 
ATOM     15  C   UNL     1       0.932   2.315  18.702  0.00  0.00    +0.000 C 
ENDBRANCH   2  12
ENDBRANCH   1   5
BRANCH   1  16
ATOM     16  C   UNL     1       0.723  11.417  19.002  0.00  0.00    +0.000 C 
BRANCH  16  17
ATOM     17  O   UNL     1       1.367  11.634  20.261  0.00  0.00    +0.000 OA
BRANCH  17  18
ATOM     18  C   UNL     1       0.574  11.280  21.339  0.00  0.00    +0.000 A 
ATOM     19  C   UNL     1      -0.355  12.212  21.731  0.00  0.00    +0.000 A 
ATOM     20  C   UNL     1      -1.160  11.890  22.813  0.00  0.00    +0.000 A 
ATOM     21  N   UNL     1      -1.053  10.693  23.416  0.00  0.00    +0.000 NA
ATOM     22  C   UNL     1      -0.105   9.862  22.954  0.00  0.00    +0.000 A 
ATOM     23  N   UNL     1       0.737  10.095  21.942  0.00  0.00    +0.000 NA
BRANCH  20  24
ATOM     24  N   UNL     1      -2.144  12.778  23.201  0.00  0.00    +0.000 N 
ATOM     25  C   UNL     1      -3.394  12.273  23.775  0.00  0.00    +0.000 C 
ATOM     26  C   UNL     1      -4.504  13.311  23.457  0.00  0.00    +0.000 C 
ATOM     27  N   UNL     1      -4.186  14.680  23.942  0.00  0.00    +0.000 NA
ATOM     28  C   UNL     1      -5.206  15.629  23.499  0.00  0.00    +0.000 C 
ATOM     29  C   UNL     1      -2.856  15.098  23.440  0.00  0.00    +0.000 C 
ATOM     30  C   UNL     1      -1.746  14.074  23.765  0.00  0.00    +0.000 C 
ENDBRANCH  20  24
ENDBRANCH  17  18
ENDBRANCH  16  17
ENDBRANCH   1  16
TORSDOF 6
ENDMDL
MODEL 9
REMARK VINA RESULT:      -7.3      7.831     11.500
REMARK  Name = 
REMARK  9 active torsions:
REMARK  status: ('A' for Active; 'I' for Inactive)
REMARK    1  A    between atoms: C_1  and  C_2
REMARK    2  A    between atoms: C_5  and  N_6
REMARK    3  A    between atoms: N_9  and  C_10
REMARK    4  A    between atoms: C_10  and  C_11
REMARK    5  A    between atoms: C_11  and  O_12
REMARK    6  A    between atoms: O_12  and  C_13
REMARK    7  A    between atoms: C_15  and  N_16
REMARK    8  A    between atoms: N_19  and  C_20
REMARK    9  A    between atoms: C_27  and  C_28
REMARK                            x       y       z     vdW  Elec       q    Type
REMARK                         _______ _______ _______ _____ _____    ______ ____
ROOT
ATOM      1  C   UNL     1       8.431   8.562  18.452  0.00  0.00    +0.000 C 
ENDROOT
BRANCH   1   5
ATOM      2  N   UNL     1       9.265  12.070  17.857  0.00  0.00    +0.000 N 
ATOM      3  C   UNL     1       9.033  10.928  18.594  0.00  0.00    +0.000 C 
ATOM      4  O   UNL     1       9.023  10.841  19.816  0.00  0.00    +0.000 OA
ATOM      5  N   UNL     1       8.796   9.819  17.810  0.00  0.00    +0.000 N 
ATOM      6  H   UNL     1       9.436  11.948  16.875  0.00  0.00    +0.000 HD
ATOM      7  H   UNL     1       8.607   9.933  16.827  0.00  0.00    +0.000 HD
BRANCH   2  12
ATOM      8  C   UNL     1      10.029  17.358  19.983  0.00  0.00    +0.000 C 
ATOM      9  C   UNL     1       9.858  15.970  19.432  0.00  0.00    +0.000 A 
ATOM     10  C   UNL     1       8.586  15.555  19.038  0.00  0.00    +0.000 A 
ATOM     11  C   UNL     1       8.380  14.279  18.520  0.00  0.00    +0.000 A 
ATOM     12  C   UNL     1       9.433  13.374  18.387  0.00  0.00    +0.000 A 
ATOM     13  C   UNL     1      10.719  13.785  18.771  0.00  0.00    +0.000 A 
ATOM     14  C   UNL     1      10.943  15.075  19.300  0.00  0.00    +0.000 A 
ATOM     15  C   UNL     1      12.327  15.486  19.717  0.00  0.00    +0.000 C 
ENDBRANCH   2  12
ENDBRANCH   1   5
BRANCH   1  16
ATOM     16  C   UNL     1       7.361   7.770  17.689  0.00  0.00    +0.000 C 
BRANCH  16  17
ATOM     17  O   UNL     1       7.954   6.585  17.150  0.00  0.00    +0.000 OA
BRANCH  17  18
ATOM     18  C   UNL     1       7.023   5.717  16.606  0.00  0.00    +0.000 A 
ATOM     19  C   UNL     1       6.058   5.255  17.467  0.00  0.00    +0.000 A 
ATOM     20  C   UNL     1       5.115   4.379  16.953  0.00  0.00    +0.000 A 
ATOM     21  N   UNL     1       5.133   4.036  15.653  0.00  0.00    +0.000 NA
ATOM     22  C   UNL     1       6.126   4.542  14.904  0.00  0.00    +0.000 A 
ATOM     23  N   UNL     1       7.096   5.366  15.315  0.00  0.00    +0.000 NA
BRANCH  20  24
ATOM     24  N   UNL     1       4.097   3.937  17.774  0.00  0.00    +0.000 N 
ATOM     25  C   UNL     1       2.852   3.436  17.183  0.00  0.00    +0.000 C 
ATOM     26  C   UNL     1       1.716   3.688  18.211  0.00  0.00    +0.000 C 
ATOM     27  N   UNL     1       1.981   3.079  19.542  0.00  0.00    +0.000 NA
ATOM     28  C   UNL     1       0.940   3.460  20.495  0.00  0.00    +0.000 C 
ATOM     29  C   UNL     1       3.307   3.514  20.042  0.00  0.00    +0.000 C 
ATOM     30  C   UNL     1       4.442   3.254  19.028  0.00  0.00    +0.000 C 
ENDBRANCH  20  24
ENDBRANCH  17  18
ENDBRANCH  16  17
ENDBRANCH   1  16
TORSDOF 6
ENDMDL
