MODEL 1
REMARK VINA RESULT:      -6.9      0.000      0.000
REMARK  Name = 
REMARK  10 active torsions:
REMARK  status: ('A' for Active; 'I' for Inactive)
REMARK    1  A    between atoms: C_1  and  C_2
REMARK    2  A    between atoms: N_4  and  C_5
REMARK    3  A    between atoms: C_5  and  C_6
REMARK    4  A    between atoms: C_5  and  C_7
REMARK    5  A    between atoms: C_7  and  O_8
REMARK    6  A    between atoms: C_21  and  C_22
REMARK    7  A    between atoms: C_22  and  N_23
REMARK    8  A    between atoms: N_23  and  C_24
REMARK    9  A    between atoms: C_25  and  O_27
REMARK   10  A    between atoms: O_27  and  C_28
REMARK                            x       y       z     vdW  Elec       q    Type
REMARK                         _______ _______ _______ _____ _____    ______ ____
ROOT
ATOM      1  C   UNL     1       1.260  12.349  21.049  0.00  0.00    +0.000 C 
ATOM      2  C   UNL     1       0.173  12.717  20.027  0.00  0.00    +0.000 C 
ATOM      3  C   UNL     1      -0.553  14.035  20.387  0.00  0.00    +0.000 C 
ATOM      4  N   UNL     1      -1.551  14.108  21.458  0.00  0.00    +0.000 N 
ATOM      5  C   UNL     1      -2.305  15.291  21.362  0.00  0.00    +0.000 C 
ATOM      6  O   UNL     1      -1.865  16.328  20.865  0.00  0.00    +0.000 OA
ATOM      7  C   UNL     1      -3.793  15.141  21.607  0.00  0.00    +0.000 C 
ATOM      8  C   UNL     1      -4.413  14.359  20.452  0.00  0.00    +0.000 C 
ATOM      9  C   UNL     1      -4.597  12.888  20.809  0.00  0.00    +0.000 C 
ATOM     10  N   UNL     1      -4.992  12.072  19.689  0.00  0.00    +0.000 N 
ATOM     11  N   UNL     1      -6.254  11.603  19.630  0.00  0.00    +0.000 NA
ATOM     12  N   UNL     1      -6.346  10.844  18.550  0.00  0.00    +0.000 NA
ATOM     13  C   UNL     1      -5.127  10.842  17.934  0.00  0.00    +0.000 A 
ATOM     14  C   UNL     1      -4.232  11.609  18.646  0.00  0.00    +0.000 A 
ATOM     15  C   UNL     1      -2.803  11.941  18.400  0.00  0.00    +0.000 C 
ATOM     16  O   UNL     1      -2.089  11.725  19.621  0.00  0.00    +0.000 OA
ATOM     17  C   UNL     1      -0.679  11.526  19.451  0.00  0.00    +0.000 C 
ENDROOT
BRANCH   4  18
ATOM     18  C   UNL     1      -1.212  13.586  22.811  0.00  0.00    +0.000 C 
ATOM     19  C   UNL     1      -1.950  12.285  23.135  0.00  0.00    +0.000 C 
BRANCH  18  20
ATOM     20  C   UNL     1      -1.355  14.564  24.001  0.00  0.00    +0.000 C 
BRANCH  20  21
ATOM     21  O   UNL     1      -0.243  15.437  24.138  0.00  0.00    +0.000 OA
ATOM     22  H   UNL     1      -0.205  15.753  25.057  0.00  0.00    +0.000 HD
ENDBRANCH  20  21
ENDBRANCH  18  20
ENDBRANCH   4  18
BRANCH  17  23
ATOM     23  C   UNL     1      -0.297  10.166  20.098  0.00  0.00    +0.000 C 
BRANCH  23  24
ATOM     24  N   UNL     1       0.837   9.441  19.530  0.00  0.00    +0.000 N 
ATOM     25  C   UNL     1       0.885   9.389  18.073  0.00  0.00    +0.000 C 
ATOM     26  C   UNL     1       1.372   8.375  20.255  0.00  0.00    +0.000 C 
ATOM     27  O   UNL     1       1.036   8.081  21.396  0.00  0.00    +0.000 OA
BRANCH  26  28
ATOM     28  O   UNL     1       2.363   7.706  19.545  0.00  0.00    +0.000 OA
BRANCH  28  29
ATOM     29  C   UNL     1       2.297   6.311  19.387  0.00  0.00    +0.000 A 
ATOM     30  C   UNL     1       2.277   5.879  18.056  0.00  0.00    +0.000 A 
ATOM     31  C   UNL     1       2.189   4.521  17.769  0.00  0.00    +0.000 A 
ATOM     32  C   UNL     1       2.127   3.595  18.810  0.00  0.00    +0.000 A 
ATOM     33  C   UNL     1       2.150   4.032  20.137  0.00  0.00    +0.000 A 
ATOM     34  C   UNL     1       2.234   5.394  20.431  0.00  0.00    +0.000 A 
ENDBRANCH  28  29
ENDBRANCH  26  28
ENDBRANCH  23  24
ENDBRANCH  17  23
TORSDOF 7
ENDMDL
MODEL 2
REMARK VINA RESULT:      -6.7      2.288      4.192
REMARK  Name = 
REMARK  10 active torsions:
REMARK  status: ('A' for Active; 'I' for Inactive)
REMARK    1  A    between atoms: C_1  and  C_2
REMARK    2  A    between atoms: N_4  and  C_5
REMARK    3  A    between atoms: C_5  and  C_6
REMARK    4  A    between atoms: C_5  and  C_7
REMARK    5  A    between atoms: C_7  and  O_8
REMARK    6  A    between atoms: C_21  and  C_22
REMARK    7  A    between atoms: C_22  and  N_23
REMARK    8  A    between atoms: N_23  and  C_24
REMARK    9  A    between atoms: C_25  and  O_27
REMARK   10  A    between atoms: O_27  and  C_28
REMARK                            x       y       z     vdW  Elec       q    Type
REMARK                         _______ _______ _______ _____ _____    ______ ____
ROOT
ATOM      1  C   UNL     1      -1.109   9.816  22.049  0.00  0.00    +0.000 C 
ATOM      2  C   UNL     1      -0.056  10.932  22.140  0.00  0.00    +0.000 C 
ATOM      3  C   UNL     1      -0.608  12.210  22.816  0.00  0.00    +0.000 C 
ATOM      4  N   UNL     1      -1.510  13.132  22.119  0.00  0.00    +0.000 N 
ATOM      5  C   UNL     1      -1.588  14.364  22.794  0.00  0.00    +0.000 C 
ATOM      6  O   UNL     1      -1.420  14.474  24.009  0.00  0.00    +0.000 OA
ATOM      7  C   UNL     1      -1.572  15.596  21.913  0.00  0.00    +0.000 C 
ATOM      8  C   UNL     1      -0.187  15.745  21.287  0.00  0.00    +0.000 C 
ATOM      9  C   UNL     1      -0.155  15.198  19.864  0.00  0.00    +0.000 C 
ATOM     10  N   UNL     1       1.171  15.135  19.305  0.00  0.00    +0.000 N 
ATOM     11  N   UNL     1       1.522  16.011  18.343  0.00  0.00    +0.000 NA
ATOM     12  N   UNL     1       2.752  15.709  17.960  0.00  0.00    +0.000 NA
ATOM     13  C   UNL     1       3.167  14.634  18.692  0.00  0.00    +0.000 A 
ATOM     14  C   UNL     1       2.172  14.232  19.555  0.00  0.00    +0.000 A 
ATOM     15  C   UNL     1       2.122  13.139  20.562  0.00  0.00    +0.000 C 
ATOM     16  O   UNL     1       0.896  12.425  20.372  0.00  0.00    +0.000 OA
ATOM     17  C   UNL     1       0.902  11.093  20.903  0.00  0.00    +0.000 C 
ENDROOT
BRANCH   4  18
ATOM     18  C   UNL     1      -2.736  12.601  21.461  0.00  0.00    +0.000 C 
ATOM     19  C   UNL     1      -2.680  12.729  19.937  0.00  0.00    +0.000 C 
BRANCH  18  20
ATOM     20  C   UNL     1      -4.097  13.133  21.968  0.00  0.00    +0.000 C 
BRANCH  20  21
ATOM     21  O   UNL     1      -4.665  12.321  22.987  0.00  0.00    +0.000 OA
ATOM     22  H   UNL     1      -5.295  12.856  23.498  0.00  0.00    +0.000 HD
ENDBRANCH  20  21
ENDBRANCH  18  20
ENDBRANCH   4  18
BRANCH  17  23
ATOM     23  C   UNL     1       0.547  10.109  19.754  0.00  0.00    +0.000 C 
BRANCH  23  24
ATOM     24  N   UNL     1       1.554   9.122  19.373  0.00  0.00    +0.000 N 
ATOM     25  C   UNL     1       1.844   9.037  17.946  0.00  0.00    +0.000 C 
ATOM     26  C   UNL     1       1.679   7.970  20.149  0.00  0.00    +0.000 C 
ATOM     27  O   UNL     1       1.087   7.783  21.205  0.00  0.00    +0.000 OA
BRANCH  26  28
ATOM     28  O   UNL     1       2.588   7.069  19.605  0.00  0.00    +0.000 OA
BRANCH  28  29
ATOM     29  C   UNL     1       2.217   5.728  19.402  0.00  0.00    +0.000 A 
ATOM     30  C   UNL     1       2.215   5.324  18.063  0.00  0.00    +0.000 A 
ATOM     31  C   UNL     1       1.842   4.025  17.731  0.00  0.00    +0.000 A 
ATOM     32  C   UNL     1       1.478   3.130  18.737  0.00  0.00    +0.000 A 
ATOM     33  C   UNL     1       1.485   3.539  20.074  0.00  0.00    +0.000 A 
ATOM     34  C   UNL     1       1.854   4.843  20.411  0.00  0.00    +0.000 A 
ENDBRANCH  28  29
ENDBRANCH  26  28
ENDBRANCH  23  24
ENDBRANCH  17  23
TORSDOF 7
ENDMDL
MODEL 3
REMARK VINA RESULT:      -6.6      2.209      3.134
REMARK  Name = 
REMARK  10 active torsions:
REMARK  status: ('A' for Active; 'I' for Inactive)
REMARK    1  A    between atoms: C_1  and  C_2
REMARK    2  A    between atoms: N_4  and  C_5
REMARK    3  A    between atoms: C_5  and  C_6
REMARK    4  A    between atoms: C_5  and  C_7
REMARK    5  A    between atoms: C_7  and  O_8
REMARK    6  A    between atoms: C_21  and  C_22
REMARK    7  A    between atoms: C_22  and  N_23
REMARK    8  A    between atoms: N_23  and  C_24
REMARK    9  A    between atoms: C_25  and  O_27
REMARK   10  A    between atoms: O_27  and  C_28
REMARK                            x       y       z     vdW  Elec       q    Type
REMARK                         _______ _______ _______ _____ _____    ______ ____
ROOT
ATOM      1  C   UNL     1      -1.204  14.326  23.016  0.00  0.00    +0.000 C 
ATOM      2  C   UNL     1      -2.169  14.396  21.822  0.00  0.00    +0.000 C 
ATOM      3  C   UNL     1      -3.452  15.197  22.147  0.00  0.00    +0.000 C 
ATOM      4  N   UNL     1      -4.530  14.641  22.971  0.00  0.00    +0.000 N 
ATOM      5  C   UNL     1      -5.707  15.397  22.834  0.00  0.00    +0.000 C 
ATOM      6  O   UNL     1      -5.706  16.597  22.559  0.00  0.00    +0.000 OA
ATOM      7  C   UNL     1      -6.990  14.598  22.726  0.00  0.00    +0.000 C 
ATOM      8  C   UNL     1      -7.010  13.865  21.386  0.00  0.00    +0.000 C 
ATOM      9  C   UNL     1      -6.571  12.413  21.538  0.00  0.00    +0.000 C 
ATOM     10  N   UNL     1      -6.383  11.737  20.279  0.00  0.00    +0.000 N 
ATOM     11  N   UNL     1      -7.277  10.806  19.892  0.00  0.00    +0.000 NA
ATOM     12  N   UNL     1      -6.853  10.299  18.747  0.00  0.00    +0.000 NA
ATOM     13  C   UNL     1      -5.683  10.922  18.420  0.00  0.00    +0.000 A 
ATOM     14  C   UNL     1      -5.345  11.841  19.388  0.00  0.00    +0.000 A 
ATOM     15  C   UNL     1      -4.196  12.778  19.503  0.00  0.00    +0.000 C 
ATOM     16  O   UNL     1      -3.658  12.650  20.823  0.00  0.00    +0.000 OA
ATOM     17  C   UNL     1      -2.300  13.093  20.950  0.00  0.00    +0.000 C 
ENDROOT
BRANCH   4  18
ATOM     18  C   UNL     1      -4.206  14.059  24.304  0.00  0.00    +0.000 C 
ATOM     19  C   UNL     1      -3.181  14.897  25.071  0.00  0.00    +0.000 C 
BRANCH  18  20
ATOM     20  C   UNL     1      -3.781  12.573  24.341  0.00  0.00    +0.000 C 
BRANCH  20  21
ATOM     21  O   UNL     1      -4.779  11.724  24.892  0.00  0.00    +0.000 OA
ATOM     22  H   UNL     1      -5.279  11.317  24.164  0.00  0.00    +0.000 HD
ENDBRANCH  20  21
ENDBRANCH  18  20
ENDBRANCH   4  18
BRANCH  17  23
ATOM     23  C   UNL     1      -1.456  11.919  21.520  0.00  0.00    +0.000 C 
BRANCH  23  24
ATOM     24  N   UNL     1      -0.260  11.523  20.780  0.00  0.00    +0.000 N 
ATOM     25  C   UNL     1       0.859  12.457  20.847  0.00  0.00    +0.000 C 
ATOM     26  C   UNL     1      -0.418  10.751  19.630  0.00  0.00    +0.000 C 
ATOM     27  O   UNL     1      -1.484  10.274  19.261  0.00  0.00    +0.000 OA
BRANCH  26  28
ATOM     28  O   UNL     1       0.787  10.551  18.966  0.00  0.00    +0.000 OA
BRANCH  28  29
ATOM     29  C   UNL     1       1.425   9.298  19.023  0.00  0.00    +0.000 A 
ATOM     30  C   UNL     1       2.063   8.919  17.837  0.00  0.00    +0.000 A 
ATOM     31  C   UNL     1       2.709   7.689  17.760  0.00  0.00    +0.000 A 
ATOM     32  C   UNL     1       2.722   6.843  18.868  0.00  0.00    +0.000 A 
ATOM     33  C   UNL     1       2.085   7.229  20.051  0.00  0.00    +0.000 A 
ATOM     34  C   UNL     1       1.432   8.460  20.132  0.00  0.00    +0.000 A 
ENDBRANCH  28  29
ENDBRANCH  26  28
ENDBRANCH  23  24
ENDBRANCH  17  23
TORSDOF 7
ENDMDL
MODEL 4
REMARK VINA RESULT:      -6.5      2.556      4.143
REMARK  Name = 
REMARK  10 active torsions:
REMARK  status: ('A' for Active; 'I' for Inactive)
REMARK    1  A    between atoms: C_1  and  C_2
REMARK    2  A    between atoms: N_4  and  C_5
REMARK    3  A    between atoms: C_5  and  C_6
REMARK    4  A    between atoms: C_5  and  C_7
REMARK    5  A    between atoms: C_7  and  O_8
REMARK    6  A    between atoms: C_21  and  C_22
REMARK    7  A    between atoms: C_22  and  N_23
REMARK    8  A    between atoms: N_23  and  C_24
REMARK    9  A    between atoms: C_25  and  O_27
REMARK   10  A    between atoms: O_27  and  C_28
REMARK                            x       y       z     vdW  Elec       q    Type
REMARK                         _______ _______ _______ _____ _____    ______ ____
ROOT
ATOM      1  C   UNL     1      -0.700  11.184  21.804  0.00  0.00    +0.000 C 
ATOM      2  C   UNL     1      -0.205  12.639  21.795  0.00  0.00    +0.000 C 
ATOM      3  C   UNL     1      -0.979  13.532  22.794  0.00  0.00    +0.000 C 
ATOM      4  N   UNL     1      -2.340  14.005  22.523  0.00  0.00    +0.000 N 
ATOM      5  C   UNL     1      -2.687  15.058  23.388  0.00  0.00    +0.000 C 
ATOM      6  O   UNL     1      -2.209  15.184  24.516  0.00  0.00    +0.000 OA
ATOM      7  C   UNL     1      -3.436  16.210  22.750  0.00  0.00    +0.000 C 
ATOM      8  C   UNL     1      -2.492  16.960  21.813  0.00  0.00    +0.000 C 
ATOM      9  C   UNL     1      -2.690  16.533  20.363  0.00  0.00    +0.000 C 
ATOM     10  N   UNL     1      -1.693  17.064  19.469  0.00  0.00    +0.000 N 
ATOM     11  N   UNL     1      -2.035  18.041  18.606  0.00  0.00    +0.000 NA
ATOM     12  N   UNL     1      -0.972  18.310  17.866  0.00  0.00    +0.000 NA
ATOM     13  C   UNL     1       0.041  17.489  18.274  0.00  0.00    +0.000 A 
ATOM     14  C   UNL     1      -0.391  16.668  19.291  0.00  0.00    +0.000 A 
ATOM     15  C   UNL     1       0.311  15.623  20.082  0.00  0.00    +0.000 C 
ATOM     16  O   UNL     1      -0.523  14.461  20.109  0.00  0.00    +0.000 OA
ATOM     17  C   UNL     1       0.175  13.241  20.392  0.00  0.00    +0.000 C 
ENDROOT
BRANCH   4  18
ATOM     18  C   UNL     1      -3.393  13.024  22.136  0.00  0.00    +0.000 C 
ATOM     19  C   UNL     1      -3.750  13.110  20.651  0.00  0.00    +0.000 C 
BRANCH  18  20
ATOM     20  C   UNL     1      -4.693  13.016  22.973  0.00  0.00    +0.000 C 
BRANCH  20  21
ATOM     21  O   UNL     1      -5.742  12.279  22.362  0.00  0.00    +0.000 OA
ATOM     22  H   UNL     1      -5.568  11.329  22.479  0.00  0.00    +0.000 HD
ENDBRANCH  20  21
ENDBRANCH  18  20
ENDBRANCH   4  18
BRANCH  17  23
ATOM     23  C   UNL     1      -0.098  12.243  19.233  0.00  0.00    +0.000 C 
BRANCH  23  24
ATOM     24  N   UNL     1       1.019  11.422  18.769  0.00  0.00    +0.000 N 
ATOM     25  C   UNL     1       2.233  12.150  18.420  0.00  0.00    +0.000 C 
ATOM     26  C   UNL     1       0.733  10.236  18.092  0.00  0.00    +0.000 C 
ATOM     27  O   UNL     1      -0.393   9.769  17.966  0.00  0.00    +0.000 OA
BRANCH  26  28
ATOM     28  O   UNL     1       1.882   9.621  17.608  0.00  0.00    +0.000 OA
BRANCH  28  29
ATOM     29  C   UNL     1       2.329   8.416  18.176  0.00  0.00    +0.000 A 
ATOM     30  C   UNL     1       3.230   7.700  17.380  0.00  0.00    +0.000 A 
ATOM     31  C   UNL     1       3.727   6.478  17.823  0.00  0.00    +0.000 A 
ATOM     32  C   UNL     1       3.329   5.976  19.061  0.00  0.00    +0.000 A 
ATOM     33  C   UNL     1       2.432   6.697  19.854  0.00  0.00    +0.000 A 
ATOM     34  C   UNL     1       1.927   7.922  19.412  0.00  0.00    +0.000 A 
ENDBRANCH  28  29
ENDBRANCH  26  28
ENDBRANCH  23  24
ENDBRANCH  17  23
TORSDOF 7
ENDMDL
MODEL 5
REMARK VINA RESULT:      -6.4      2.453      4.577
REMARK  Name = 
REMARK  10 active torsions:
REMARK  status: ('A' for Active; 'I' for Inactive)
REMARK    1  A    between atoms: C_1  and  C_2
REMARK    2  A    between atoms: N_4  and  C_5
REMARK    3  A    between atoms: C_5  and  C_6
REMARK    4  A    between atoms: C_5  and  C_7
REMARK    5  A    between atoms: C_7  and  O_8
REMARK    6  A    between atoms: C_21  and  C_22
REMARK    7  A    between atoms: C_22  and  N_23
REMARK    8  A    between atoms: N_23  and  C_24
REMARK    9  A    between atoms: C_25  and  O_27
REMARK   10  A    between atoms: O_27  and  C_28
REMARK                            x       y       z     vdW  Elec       q    Type
REMARK                         _______ _______ _______ _____ _____    ______ ____
ROOT
ATOM      1  C   UNL     1      -1.187  10.555  21.502  0.00  0.00    +0.000 C 
ATOM      2  C   UNL     1      -0.013  11.540  21.629  0.00  0.00    +0.000 C 
ATOM      3  C   UNL     1      -0.467  12.940  22.106  0.00  0.00    +0.000 C 
ATOM      4  N   UNL     1      -1.147  13.884  21.214  0.00  0.00    +0.000 N 
ATOM      5  C   UNL     1      -1.141  15.181  21.757  0.00  0.00    +0.000 C 
ATOM      6  O   UNL     1      -1.107  15.401  22.968  0.00  0.00    +0.000 OA
ATOM      7  C   UNL     1      -0.857  16.300  20.776  0.00  0.00    +0.000 C 
ATOM      8  C   UNL     1       0.601  16.213  20.329  0.00  0.00    +0.000 C 
ATOM      9  C   UNL     1       0.730  15.516  18.979  0.00  0.00    +0.000 C 
ATOM     10  N   UNL     1       2.093  15.233  18.609  0.00  0.00    +0.000 N 
ATOM     11  N   UNL     1       2.671  15.952  17.626  0.00  0.00    +0.000 NA
ATOM     12  N   UNL     1       3.886  15.465  17.438  0.00  0.00    +0.000 NA
ATOM     13  C   UNL     1       4.064  14.433  18.314  0.00  0.00    +0.000 A 
ATOM     14  C   UNL     1       2.929  14.249  19.071  0.00  0.00    +0.000 A 
ATOM     15  C   UNL     1       2.613  13.285  20.159  0.00  0.00    +0.000 C 
ATOM     16  O   UNL     1       1.335  12.708  19.874  0.00  0.00    +0.000 OA
ATOM     17  C   UNL     1       1.100  11.450  20.521  0.00  0.00    +0.000 C 
ENDROOT
BRANCH   4  18
ATOM     18  C   UNL     1      -2.346  13.435  20.451  0.00  0.00    +0.000 C 
ATOM     19  C   UNL     1      -3.439  12.873  21.362  0.00  0.00    +0.000 C 
BRANCH  18  20
ATOM     20  C   UNL     1      -2.109  12.459  19.275  0.00  0.00    +0.000 C 
BRANCH  20  21
ATOM     21  O   UNL     1      -1.355  13.035  18.218  0.00  0.00    +0.000 OA
ATOM     22  H   UNL     1      -1.830  12.894  17.382  0.00  0.00    +0.000 HD
ENDBRANCH  20  21
ENDBRANCH  18  20
ENDBRANCH   4  18
BRANCH  17  23
ATOM     23  C   UNL     1       0.757  10.398  19.430  0.00  0.00    +0.000 C 
BRANCH  23  24
ATOM     24  N   UNL     1       1.716   9.319  19.205  0.00  0.00    +0.000 N 
ATOM     25  C   UNL     1       2.117   9.112  17.817  0.00  0.00    +0.000 C 
ATOM     26  C   UNL     1       1.691   8.220  20.063  0.00  0.00    +0.000 C 
ATOM     27  O   UNL     1       1.001   8.150  21.073  0.00  0.00    +0.000 OA
BRANCH  26  28
ATOM     28  O   UNL     1       2.572   7.223  19.661  0.00  0.00    +0.000 OA
BRANCH  28  29
ATOM     29  C   UNL     1       2.117   5.902  19.498  0.00  0.00    +0.000 A 
ATOM     30  C   UNL     1       2.127   5.446  18.175  0.00  0.00    +0.000 A 
ATOM     31  C   UNL     1       1.676   4.163  17.881  0.00  0.00    +0.000 A 
ATOM     32  C   UNL     1       1.223   3.336  18.908  0.00  0.00    +0.000 A 
ATOM     33  C   UNL     1       1.218   3.796  20.227  0.00  0.00    +0.000 A 
ATOM     34  C   UNL     1       1.665   5.084  20.527  0.00  0.00    +0.000 A 
ENDBRANCH  28  29
ENDBRANCH  26  28
ENDBRANCH  23  24
ENDBRANCH  17  23
TORSDOF 7
ENDMDL
MODEL 6
REMARK VINA RESULT:      -6.4      2.655      4.276
REMARK  Name = 
REMARK  10 active torsions:
REMARK  status: ('A' for Active; 'I' for Inactive)
REMARK    1  A    between atoms: C_1  and  C_2
REMARK    2  A    between atoms: N_4  and  C_5
REMARK    3  A    between atoms: C_5  and  C_6
REMARK    4  A    between atoms: C_5  and  C_7
REMARK    5  A    between atoms: C_7  and  O_8
REMARK    6  A    between atoms: C_21  and  C_22
REMARK    7  A    between atoms: C_22  and  N_23
REMARK    8  A    between atoms: N_23  and  C_24
REMARK    9  A    between atoms: C_25  and  O_27
REMARK   10  A    between atoms: O_27  and  C_28
REMARK                            x       y       z     vdW  Elec       q    Type
REMARK                         _______ _______ _______ _____ _____    ______ ____
ROOT
ATOM      1  C   UNL     1      -1.754  11.484  23.101  0.00  0.00    +0.000 C 
ATOM      2  C   UNL     1      -1.290  12.944  22.963  0.00  0.00    +0.000 C 
ATOM      3  C   UNL     1      -2.144  13.917  23.811  0.00  0.00    +0.000 C 
ATOM      4  N   UNL     1      -3.495  14.319  23.411  0.00  0.00    +0.000 N 
ATOM      5  C   UNL     1      -3.917  15.449  24.133  0.00  0.00    +0.000 C 
ATOM      6  O   UNL     1      -3.512  15.710  25.266  0.00  0.00    +0.000 OA
ATOM      7  C   UNL     1      -4.650  16.505  23.330  0.00  0.00    +0.000 C 
ATOM      8  C   UNL     1      -3.666  17.176  22.374  0.00  0.00    +0.000 C 
ATOM      9  C   UNL     1      -3.765  16.590  20.970  0.00  0.00    +0.000 C 
ATOM     10  N   UNL     1      -2.726  17.049  20.084  0.00  0.00    +0.000 N 
ATOM     11  N   UNL     1      -3.036  17.918  19.101  0.00  0.00    +0.000 NA
ATOM     12  N   UNL     1      -1.935  18.135  18.400  0.00  0.00    +0.000 NA
ATOM     13  C   UNL     1      -0.932  17.392  18.954  0.00  0.00    +0.000 A 
ATOM     14  C   UNL     1      -1.408  16.673  20.028  0.00  0.00    +0.000 A 
ATOM     15  C   UNL     1      -0.733  15.739  20.967  0.00  0.00    +0.000 C 
ATOM     16  O   UNL     1      -1.543  14.563  21.072  0.00  0.00    +0.000 OA
ATOM     17  C   UNL     1      -0.837  13.401  21.527  0.00  0.00    +0.000 C 
ENDROOT
BRANCH   4  18
ATOM     18  C   UNL     1      -4.501  13.273  23.071  0.00  0.00    +0.000 C 
ATOM     19  C   UNL     1      -4.805  13.223  21.572  0.00  0.00    +0.000 C 
BRANCH  18  20
ATOM     20  C   UNL     1      -5.830  13.290  23.861  0.00  0.00    +0.000 C 
BRANCH  20  21
ATOM     21  O   UNL     1      -6.942  13.678  23.067  0.00  0.00    +0.000 OA
ATOM     22  H   UNL     1      -7.466  12.887  22.854  0.00  0.00    +0.000 HD
ENDBRANCH  20  21
ENDBRANCH  18  20
ENDBRANCH   4  18
BRANCH  17  23
ATOM     23  C   UNL     1      -1.017  12.277  20.470  0.00  0.00    +0.000 C 
BRANCH  23  24
ATOM     24  N   UNL     1       0.189  11.634  19.954  0.00  0.00    +0.000 N 
ATOM     25  C   UNL     1       1.392  12.459  19.955  0.00  0.00    +0.000 C 
ATOM     26  C   UNL     1       0.049  10.659  18.966  0.00  0.00    +0.000 C 
ATOM     27  O   UNL     1      -1.027  10.212  18.586  0.00  0.00    +0.000 OA
BRANCH  26  28
ATOM     28  O   UNL     1       1.279  10.220  18.487  0.00  0.00    +0.000 OA
BRANCH  28  29
ATOM     29  C   UNL     1       1.753   8.941  18.827  0.00  0.00    +0.000 A 
ATOM     30  C   UNL     1       2.461   8.296  17.807  0.00  0.00    +0.000 A 
ATOM     31  C   UNL     1       2.960   7.014  18.013  0.00  0.00    +0.000 A 
ATOM     32  C   UNL     1       2.758   6.381  19.239  0.00  0.00    +0.000 A 
ATOM     33  C   UNL     1       2.053   7.031  20.255  0.00  0.00    +0.000 A 
ATOM     34  C   UNL     1       1.546   8.316  20.052  0.00  0.00    +0.000 A 
ENDBRANCH  28  29
ENDBRANCH  26  28
ENDBRANCH  23  24
ENDBRANCH  17  23
TORSDOF 7
ENDMDL
MODEL 7
REMARK VINA RESULT:      -6.4      1.939      2.429
REMARK  Name = 
REMARK  10 active torsions:
REMARK  status: ('A' for Active; 'I' for Inactive)
REMARK    1  A    between atoms: C_1  and  C_2
REMARK    2  A    between atoms: N_4  and  C_5
REMARK    3  A    between atoms: C_5  and  C_6
REMARK    4  A    between atoms: C_5  and  C_7
REMARK    5  A    between atoms: C_7  and  O_8
REMARK    6  A    between atoms: C_21  and  C_22
REMARK    7  A    between atoms: C_22  and  N_23
REMARK    8  A    between atoms: N_23  and  C_24
REMARK    9  A    between atoms: C_25  and  O_27
REMARK   10  A    between atoms: O_27  and  C_28
REMARK                            x       y       z     vdW  Elec       q    Type
REMARK                         _______ _______ _______ _____ _____    ______ ____
ROOT
ATOM      1  C   UNL     1      -0.654  13.907  22.568  0.00  0.00    +0.000 C 
ATOM      2  C   UNL     1      -1.785  14.109  21.545  0.00  0.00    +0.000 C 
ATOM      3  C   UNL     1      -2.941  14.971  22.107  0.00  0.00    +0.000 C 
ATOM      4  N   UNL     1      -3.916  14.438  23.063  0.00  0.00    +0.000 N 
ATOM      5  C   UNL     1      -5.042  15.275  23.150  0.00  0.00    +0.000 C 
ATOM      6  O   UNL     1      -4.995  16.487  22.936  0.00  0.00    +0.000 OA
ATOM      7  C   UNL     1      -6.381  14.568  23.207  0.00  0.00    +0.000 C 
ATOM      8  C   UNL     1      -6.660  13.919  21.854  0.00  0.00    +0.000 C 
ATOM      9  C   UNL     1      -6.310  12.435  21.864  0.00  0.00    +0.000 C 
ATOM     10  N   UNL     1      -6.368  11.823  20.561  0.00  0.00    +0.000 N 
ATOM     11  N   UNL     1      -7.377  10.977  20.276  0.00  0.00    +0.000 NA
ATOM     12  N   UNL     1      -7.172  10.511  19.054  0.00  0.00    +0.000 NA
ATOM     13  C   UNL     1      -6.024  11.076  18.578  0.00  0.00    +0.000 A 
ATOM     14  C   UNL     1      -5.475  11.912  19.524  0.00  0.00    +0.000 A 
ATOM     15  C   UNL     1      -4.257  12.764  19.500  0.00  0.00    +0.000 C 
ATOM     16  O   UNL     1      -3.533  12.525  20.711  0.00  0.00    +0.000 OA
ATOM     17  C   UNL     1      -2.142  12.871  20.644  0.00  0.00    +0.000 C 
ENDROOT
BRANCH   4  18
ATOM     18  C   UNL     1      -3.434  13.760  24.299  0.00  0.00    +0.000 C 
ATOM     19  C   UNL     1      -4.319  12.576  24.696  0.00  0.00    +0.000 C 
BRANCH  18  20
ATOM     20  C   UNL     1      -3.184  14.648  25.540  0.00  0.00    +0.000 C 
BRANCH  20  21
ATOM     21  O   UNL     1      -2.750  15.959  25.206  0.00  0.00    +0.000 OA
ATOM     22  H   UNL     1      -2.986  16.140  24.280  0.00  0.00    +0.000 HD
ENDBRANCH  20  21
ENDBRANCH  18  20
ENDBRANCH   4  18
BRANCH  17  23
ATOM     23  C   UNL     1      -1.309  11.613  21.017  0.00  0.00    +0.000 C 
BRANCH  23  24
ATOM     24  N   UNL     1      -0.476  11.020  19.973  0.00  0.00    +0.000 N 
ATOM     25  C   UNL     1      -1.198  10.384  18.877  0.00  0.00    +0.000 C 
ATOM     26  C   UNL     1       0.774  10.515  20.332  0.00  0.00    +0.000 C 
ATOM     27  O   UNL     1       1.277  10.645  21.441  0.00  0.00    +0.000 OA
BRANCH  26  28
ATOM     28  O   UNL     1       1.403   9.876  19.269  0.00  0.00    +0.000 OA
BRANCH  28  29
ATOM     29  C   UNL     1       1.754   8.519  19.369  0.00  0.00    +0.000 A 
ATOM     30  C   UNL     1       2.276   7.967  18.194  0.00  0.00    +0.000 A 
ATOM     31  C   UNL     1       2.638   6.624  18.159  0.00  0.00    +0.000 A 
ATOM     32  C   UNL     1       2.486   5.836  19.300  0.00  0.00    +0.000 A 
ATOM     33  C   UNL     1       1.968   6.394  20.472  0.00  0.00    +0.000 A 
ATOM     34  C   UNL     1       1.599   7.739  20.510  0.00  0.00    +0.000 A 
ENDBRANCH  28  29
ENDBRANCH  26  28
ENDBRANCH  23  24
ENDBRANCH  17  23
TORSDOF 7
ENDMDL
MODEL 8
REMARK VINA RESULT:      -6.4      2.145      2.860
REMARK  Name = 
REMARK  10 active torsions:
REMARK  status: ('A' for Active; 'I' for Inactive)
REMARK    1  A    between atoms: C_1  and  C_2
REMARK    2  A    between atoms: N_4  and  C_5
REMARK    3  A    between atoms: C_5  and  C_6
REMARK    4  A    between atoms: C_5  and  C_7
REMARK    5  A    between atoms: C_7  and  O_8
REMARK    6  A    between atoms: C_21  and  C_22
REMARK    7  A    between atoms: C_22  and  N_23
REMARK    8  A    between atoms: N_23  and  C_24
REMARK    9  A    between atoms: C_25  and  O_27
REMARK   10  A    between atoms: O_27  and  C_28
REMARK                            x       y       z     vdW  Elec       q    Type
REMARK                         _______ _______ _______ _____ _____    ______ ____
ROOT
ATOM      1  C   UNL     1      -0.194  14.549  20.850  0.00  0.00    +0.000 C 
ATOM      2  C   UNL     1      -1.664  14.596  20.401  0.00  0.00    +0.000 C 
ATOM      3  C   UNL     1      -2.465  15.708  21.119  0.00  0.00    +0.000 C 
ATOM      4  N   UNL     1      -2.907  15.576  22.510  0.00  0.00    +0.000 N 
ATOM      5  C   UNL     1      -3.891  16.531  22.818  0.00  0.00    +0.000 C 
ATOM      6  O   UNL     1      -3.964  17.623  22.255  0.00  0.00    +0.000 OA
ATOM      7  C   UNL     1      -5.054  16.029  23.649  0.00  0.00    +0.000 C 
ATOM      8  C   UNL     1      -5.894  15.071  22.807  0.00  0.00    +0.000 C 
ATOM      9  C   UNL     1      -5.551  13.617  23.107  0.00  0.00    +0.000 C 
ATOM     10  N   UNL     1      -6.170  12.683  22.201  0.00  0.00    +0.000 N 
ATOM     11  N   UNL     1      -7.187  11.916  22.640  0.00  0.00    +0.000 NA
ATOM     12  N   UNL     1      -7.537  11.113  21.648  0.00  0.00    +0.000 NA
ATOM     13  C   UNL     1      -6.729  11.387  20.582  0.00  0.00    +0.000 A 
ATOM     14  C   UNL     1      -5.832  12.380  20.907  0.00  0.00    +0.000 A 
ATOM     15  C   UNL     1      -4.764  13.044  20.112  0.00  0.00    +0.000 C 
ATOM     16  O   UNL     1      -3.574  13.061  20.907  0.00  0.00    +0.000 OA
ATOM     17  C   UNL     1      -2.364  13.209  20.152  0.00  0.00    +0.000 C 
ENDROOT
BRANCH   4  18
ATOM     18  C   UNL     1      -1.916  15.209  23.561  0.00  0.00    +0.000 C 
ATOM     19  C   UNL     1      -2.046  13.749  24.000  0.00  0.00    +0.000 C 
BRANCH  18  20
ATOM     20  C   UNL     1      -1.848  16.114  24.814  0.00  0.00    +0.000 C 
BRANCH  20  21
ATOM     21  O   UNL     1      -2.109  15.411  26.020  0.00  0.00    +0.000 OA
ATOM     22  H   UNL     1      -1.356  14.826  26.211  0.00  0.00    +0.000 HD
ENDBRANCH  20  21
ENDBRANCH  18  20
ENDBRANCH   4  18
BRANCH  17  23
ATOM     23  C   UNL     1      -1.431  12.013  20.488  0.00  0.00    +0.000 C 
BRANCH  23  24
ATOM     24  N   UNL     1      -0.767  11.339  19.374  0.00  0.00    +0.000 N 
ATOM     25  C   UNL     1      -1.600  10.417  18.609  0.00  0.00    +0.000 C 
ATOM     26  C   UNL     1       0.598  11.075  19.479  0.00  0.00    +0.000 C 
ATOM     27  O   UNL     1       1.310  11.480  20.390  0.00  0.00    +0.000 OA
BRANCH  26  28
ATOM     28  O   UNL     1       1.070  10.328  18.405  0.00  0.00    +0.000 OA
BRANCH  28  29
ATOM     29  C   UNL     1       1.658   9.070  18.625  0.00  0.00    +0.000 A 
ATOM     30  C   UNL     1       1.390   8.517  19.881  0.00  0.00    +0.000 A 
ATOM     31  C   UNL     1       1.936   7.285  20.228  0.00  0.00    +0.000 A 
ATOM     32  C   UNL     1       2.743   6.604  19.317  0.00  0.00    +0.000 A 
ATOM     33  C   UNL     1       3.004   7.160  18.062  0.00  0.00    +0.000 A 
ATOM     34  C   UNL     1       2.462   8.398  17.711  0.00  0.00    +0.000 A 
ENDBRANCH  28  29
ENDBRANCH  26  28
ENDBRANCH  23  24
ENDBRANCH  17  23
TORSDOF 7
ENDMDL
MODEL 9
REMARK VINA RESULT:      -6.4      2.281      4.390
REMARK  Name = 
REMARK  10 active torsions:
REMARK  status: ('A' for Active; 'I' for Inactive)
REMARK    1  A    between atoms: C_1  and  C_2
REMARK    2  A    between atoms: N_4  and  C_5
REMARK    3  A    between atoms: C_5  and  C_6
REMARK    4  A    between atoms: C_5  and  C_7
REMARK    5  A    between atoms: C_7  and  O_8
REMARK    6  A    between atoms: C_21  and  C_22
REMARK    7  A    between atoms: C_22  and  N_23
REMARK    8  A    between atoms: N_23  and  C_24
REMARK    9  A    between atoms: C_25  and  O_27
REMARK   10  A    between atoms: O_27  and  C_28
REMARK                            x       y       z     vdW  Elec       q    Type
REMARK                         _______ _______ _______ _____ _____    ______ ____
ROOT
ATOM      1  C   UNL     1      -1.308   9.947  22.330  0.00  0.00    +0.000 C 
ATOM      2  C   UNL     1      -0.267  11.077  22.380  0.00  0.00    +0.000 C 
ATOM      3  C   UNL     1      -0.881  12.425  22.826  0.00  0.00    +0.000 C 
ATOM      4  N   UNL     1      -1.706  13.240  21.929  0.00  0.00    +0.000 N 
ATOM      5  C   UNL     1      -1.848  14.547  22.428  0.00  0.00    +0.000 C 
ATOM      6  O   UNL     1      -1.802  14.816  23.628  0.00  0.00    +0.000 OA
ATOM      7  C   UNL     1      -1.741  15.656  21.400  0.00  0.00    +0.000 C 
ATOM      8  C   UNL     1      -0.300  15.737  20.901  0.00  0.00    +0.000 C 
ATOM      9  C   UNL     1      -0.128  15.012  19.572  0.00  0.00    +0.000 C 
ATOM     10  N   UNL     1       1.247  14.890  19.160  0.00  0.00    +0.000 N 
ATOM     11  N   UNL     1       1.695  15.638  18.132  0.00  0.00    +0.000 NA
ATOM     12  N   UNL     1       2.956  15.303  17.915  0.00  0.00    +0.000 NA
ATOM     13  C   UNL     1       3.294  14.336  18.818  0.00  0.00    +0.000 A 
ATOM     14  C   UNL     1       2.217  14.038  19.623  0.00  0.00    +0.000 A 
ATOM     15  C   UNL     1       2.063  13.084  20.753  0.00  0.00    +0.000 C 
ATOM     16  O   UNL     1       0.861  12.339  20.537  0.00  0.00    +0.000 OA
ATOM     17  C   UNL     1       0.811  11.087  21.234  0.00  0.00    +0.000 C 
ENDROOT
BRANCH   4  18
ATOM     18  C   UNL     1      -2.861  12.615  21.227  0.00  0.00    +0.000 C 
ATOM     19  C   UNL     1      -2.643  12.524  19.715  0.00  0.00    +0.000 C 
BRANCH  18  20
ATOM     20  C   UNL     1      -4.262  13.209  21.505  0.00  0.00    +0.000 C 
BRANCH  20  21
ATOM     21  O   UNL     1      -5.040  12.407  22.384  0.00  0.00    +0.000 OA
ATOM     22  H   UNL     1      -4.531  11.611  22.614  0.00  0.00    +0.000 HD
ENDBRANCH  20  21
ENDBRANCH  18  20
ENDBRANCH   4  18
BRANCH  17  23
ATOM     23  C   UNL     1       0.570   9.959  20.192  0.00  0.00    +0.000 C 
BRANCH  23  24
ATOM     24  N   UNL     1       1.253   8.685  20.404  0.00  0.00    +0.000 N 
ATOM     25  C   UNL     1       1.748   8.453  21.756  0.00  0.00    +0.000 C 
ATOM     26  C   UNL     1       1.945   8.119  19.333  0.00  0.00    +0.000 C 
ATOM     27  O   UNL     1       1.917   8.553  18.188  0.00  0.00    +0.000 OA
BRANCH  26  28
ATOM     28  O   UNL     1       2.642   6.975  19.708  0.00  0.00    +0.000 OA
BRANCH  28  29
ATOM     29  C   UNL     1       2.132   5.703  19.393  0.00  0.00    +0.000 A 
ATOM     30  C   UNL     1       1.586   5.013  20.480  0.00  0.00    +0.000 A 
ATOM     31  C   UNL     1       1.071   3.733  20.301  0.00  0.00    +0.000 A 
ATOM     32  C   UNL     1       1.095   3.147  19.036  0.00  0.00    +0.000 A 
ATOM     33  C   UNL     1       1.639   3.843  17.952  0.00  0.00    +0.000 A 
ATOM     34  C   UNL     1       2.161   5.126  18.128  0.00  0.00    +0.000 A 
ENDBRANCH  28  29
ENDBRANCH  26  28
ENDBRANCH  23  24
ENDBRANCH  17  23
TORSDOF 7
ENDMDL
