MODEL 1
REMARK VINA RESULT:      -6.9      0.000      0.000
REMARK  Name = 
REMARK  7 active torsions:
REMARK  status: ('A' for Active; 'I' for Inactive)
REMARK    1  A    between atoms: C_1  and  C_2
REMARK    2  A    between atoms: C_2  and  O_3
REMARK    3  A    between atoms: O_3  and  C_4
REMARK    4  A    between atoms: C_9  and  N_10
REMARK    5  A    between atoms: C_11  and  O_13
REMARK    6  A    between atoms: O_13  and  C_14
REMARK    7  A    between atoms: C_14  and  C_15
REMARK                            x       y       z     vdW  Elec       q    Type
REMARK                         _______ _______ _______ _____ _____    ______ ____
ROOT
ATOM      1  N   UNL     1       4.367   4.979  17.883  0.00  0.00    +0.000 N 
ATOM      2  C   UNL     1       4.374   4.237  19.027  0.00  0.00    +0.000 C 
ATOM      3  O   UNL     1       5.182   3.383  19.360  0.00  0.00    +0.000 OA
ATOM      4  H   UNL     1       3.618   5.656  17.789  0.00  0.00    +0.000 HD
ENDROOT
BRANCH   1  10
ATOM      5  C   UNL     1       6.318   5.812  16.685  0.00  0.00    +0.000 A 
ATOM      6  N   UNL     1       7.230   5.806  15.681  0.00  0.00    +0.000 NA
ATOM      7  C   UNL     1       7.088   4.861  14.732  0.00  0.00    +0.000 A 
ATOM      8  C   UNL     1       6.075   3.921  14.736  0.00  0.00    +0.000 A 
ATOM      9  C   UNL     1       5.160   3.936  15.787  0.00  0.00    +0.000 A 
ATOM     10  C   UNL     1       5.269   4.890  16.798  0.00  0.00    +0.000 A 
BRANCH   5  11
ATOM     11  O   UNL     1       6.424   6.791  17.664  0.00  0.00    +0.000 OA
BRANCH  11  13
ATOM     12  C   UNL     1       7.866   5.774  19.299  0.00  0.00    +0.000 C 
ATOM     13  C   UNL     1       7.744   6.835  18.219  0.00  0.00    +0.000 C 
ENDBRANCH  11  13
ENDBRANCH   5  11
ENDBRANCH   1  10
BRANCH   2  14
ATOM     14  O   UNL     1       3.303   4.569  19.798  0.00  0.00    +0.000 OA
BRANCH  14  15
ATOM     15  C   UNL     1       2.824   3.474  20.611  0.00  0.00    +0.000 C 
BRANCH  15  16
ATOM     16  C   UNL     1       1.302   3.342  20.642  0.00  0.00    +0.000 C 
ATOM     17  F   UNL     1       0.677   4.541  20.608  0.00  0.00    +0.000 F 
ATOM     18  F   UNL     1       0.873   2.644  19.562  0.00  0.00    +0.000 F 
ATOM     19  F   UNL     1       0.874   2.678  21.737  0.00  0.00    +0.000 F 
ENDBRANCH  15  16
ENDBRANCH  14  15
ENDBRANCH   2  14
TORSDOF 6
ENDMDL
MODEL 2
REMARK VINA RESULT:      -6.8      1.333      1.704
REMARK  Name = 
REMARK  7 active torsions:
REMARK  status: ('A' for Active; 'I' for Inactive)
REMARK    1  A    between atoms: C_1  and  C_2
REMARK    2  A    between atoms: C_2  and  O_3
REMARK    3  A    between atoms: O_3  and  C_4
REMARK    4  A    between atoms: C_9  and  N_10
REMARK    5  A    between atoms: C_11  and  O_13
REMARK    6  A    between atoms: O_13  and  C_14
REMARK    7  A    between atoms: C_14  and  C_15
REMARK                            x       y       z     vdW  Elec       q    Type
REMARK                         _______ _______ _______ _____ _____    ______ ____
ROOT
ATOM      1  N   UNL     1       4.230   4.858  17.466  0.00  0.00    +0.000 N 
ATOM      2  C   UNL     1       4.267   4.241  18.682  0.00  0.00    +0.000 C 
ATOM      3  O   UNL     1       5.170   3.565  19.152  0.00  0.00    +0.000 OA
ATOM      4  H   UNL     1       3.395   5.392  17.257  0.00  0.00    +0.000 HD
ENDROOT
BRANCH   1  10
ATOM      5  C   UNL     1       6.261   5.741  16.451  0.00  0.00    +0.000 A 
ATOM      6  N   UNL     1       7.248   5.774  15.521  0.00  0.00    +0.000 NA
ATOM      7  C   UNL     1       7.186   4.861  14.533  0.00  0.00    +0.000 A 
ATOM      8  C   UNL     1       6.184   3.916  14.427  0.00  0.00    +0.000 A 
ATOM      9  C   UNL     1       5.191   3.890  15.404  0.00  0.00    +0.000 A 
ATOM     10  C   UNL     1       5.214   4.810  16.452  0.00  0.00    +0.000 A 
BRANCH   5  11
ATOM     11  O   UNL     1       6.283   6.687  17.467  0.00  0.00    +0.000 OA
BRANCH  11  13
ATOM     12  C   UNL     1       7.893   8.448  17.779  0.00  0.00    +0.000 C 
ATOM     13  C   UNL     1       7.623   6.958  17.899  0.00  0.00    +0.000 C 
ENDBRANCH  11  13
ENDBRANCH   5  11
ENDBRANCH   1  10
BRANCH   2  14
ATOM     14  O   UNL     1       3.103   4.469  19.350  0.00  0.00    +0.000 OA
BRANCH  14  15
ATOM     15  C   UNL     1       1.931   4.056  18.613  0.00  0.00    +0.000 C 
BRANCH  15  16
ATOM     16  C   UNL     1       1.698   2.546  18.607  0.00  0.00    +0.000 C 
ATOM     17  F   UNL     1       2.191   1.942  19.712  0.00  0.00    +0.000 F 
ATOM     18  F   UNL     1       0.369   2.279  18.571  0.00  0.00    +0.000 F 
ATOM     19  F   UNL     1       2.249   1.953  17.525  0.00  0.00    +0.000 F 
ENDBRANCH  15  16
ENDBRANCH  14  15
ENDBRANCH   2  14
TORSDOF 6
ENDMDL
MODEL 3
REMARK VINA RESULT:      -6.8      0.974      1.310
REMARK  Name = 
REMARK  7 active torsions:
REMARK  status: ('A' for Active; 'I' for Inactive)
REMARK    1  A    between atoms: C_1  and  C_2
REMARK    2  A    between atoms: C_2  and  O_3
REMARK    3  A    between atoms: O_3  and  C_4
REMARK    4  A    between atoms: C_9  and  N_10
REMARK    5  A    between atoms: C_11  and  O_13
REMARK    6  A    between atoms: O_13  and  C_14
REMARK    7  A    between atoms: C_14  and  C_15
REMARK                            x       y       z     vdW  Elec       q    Type
REMARK                         _______ _______ _______ _____ _____    ______ ____
ROOT
ATOM      1  N   UNL     1       4.338   4.929  17.782  0.00  0.00    +0.000 N 
ATOM      2  C   UNL     1       4.359   4.211  18.941  0.00  0.00    +0.000 C 
ATOM      3  O   UNL     1       5.198   3.402  19.307  0.00  0.00    +0.000 OA
ATOM      4  H   UNL     1       3.561   5.568  17.661  0.00  0.00    +0.000 HD
ENDROOT
BRANCH   1  10
ATOM      5  C   UNL     1       6.304   5.794  16.634  0.00  0.00    +0.000 A 
ATOM      6  N   UNL     1       7.237   5.809  15.648  0.00  0.00    +0.000 NA
ATOM      7  C   UNL     1       7.125   4.871  14.688  0.00  0.00    +0.000 A 
ATOM      8  C   UNL     1       6.123   3.920  14.662  0.00  0.00    +0.000 A 
ATOM      9  C   UNL     1       5.186   3.914  15.693  0.00  0.00    +0.000 A 
ATOM     10  C   UNL     1       5.264   4.859  16.716  0.00  0.00    +0.000 A 
BRANCH   5  11
ATOM     11  O   UNL     1       6.378   6.765  17.623  0.00  0.00    +0.000 OA
BRANCH  11  13
ATOM     12  C   UNL     1       7.826   5.783  19.275  0.00  0.00    +0.000 C 
ATOM     13  C   UNL     1       7.694   6.836  18.189  0.00  0.00    +0.000 C 
ENDBRANCH  11  13
ENDBRANCH   5  11
ENDBRANCH   1  10
BRANCH   2  14
ATOM     14  O   UNL     1       3.259   4.507  19.687  0.00  0.00    +0.000 OA
BRANCH  14  15
ATOM     15  C   UNL     1       2.016   4.179  19.028  0.00  0.00    +0.000 C 
BRANCH  15  16
ATOM     16  C   UNL     1       1.619   2.707  19.145  0.00  0.00    +0.000 C 
ATOM     17  F   UNL     1       2.173   1.943  18.176  0.00  0.00    +0.000 F 
ATOM     18  F   UNL     1       2.039   2.205  20.332  0.00  0.00    +0.000 F 
ATOM     19  F   UNL     1       0.280   2.539  19.097  0.00  0.00    +0.000 F 
ENDBRANCH  15  16
ENDBRANCH  14  15
ENDBRANCH   2  14
TORSDOF 6
ENDMDL
MODEL 4
REMARK VINA RESULT:      -6.7      1.160      1.393
REMARK  Name = 
REMARK  7 active torsions:
REMARK  status: ('A' for Active; 'I' for Inactive)
REMARK    1  A    between atoms: C_1  and  C_2
REMARK    2  A    between atoms: C_2  and  O_3
REMARK    3  A    between atoms: O_3  and  C_4
REMARK    4  A    between atoms: C_9  and  N_10
REMARK    5  A    between atoms: C_11  and  O_13
REMARK    6  A    between atoms: O_13  and  C_14
REMARK    7  A    between atoms: C_14  and  C_15
REMARK                            x       y       z     vdW  Elec       q    Type
REMARK                         _______ _______ _______ _____ _____    ______ ____
ROOT
ATOM      1  N   UNL     1       5.030   3.444  18.126  0.00  0.00    +0.000 N 
ATOM      2  C   UNL     1       4.092   4.061  18.899  0.00  0.00    +0.000 C 
ATOM      3  O   UNL     1       3.542   5.134  18.697  0.00  0.00    +0.000 OA
ATOM      4  H   UNL     1       5.360   2.542  18.451  0.00  0.00    +0.000 HD
ENDROOT
BRANCH   1  10
ATOM      5  C   UNL     1       6.920   4.448  16.963  0.00  0.00    +0.000 A 
ATOM      6  N   UNL     1       7.565   4.941  15.876  0.00  0.00    +0.000 NA
ATOM      7  C   UNL     1       6.885   4.947  14.714  0.00  0.00    +0.000 A 
ATOM      8  C   UNL     1       5.589   4.487  14.584  0.00  0.00    +0.000 A 
ATOM      9  C   UNL     1       4.953   3.970  15.711  0.00  0.00    +0.000 A 
ATOM     10  C   UNL     1       5.617   3.934  16.937  0.00  0.00    +0.000 A 
BRANCH   5  11
ATOM     11  O   UNL     1       7.587   4.454  18.181  0.00  0.00    +0.000 OA
BRANCH  11  13
ATOM     12  C   UNL     1       7.899   6.834  18.344  0.00  0.00    +0.000 C 
ATOM     13  C   UNL     1       7.245   5.609  18.959  0.00  0.00    +0.000 C 
ENDBRANCH  11  13
ENDBRANCH   5  11
ENDBRANCH   1  10
BRANCH   2  14
ATOM     14  O   UNL     1       3.830   3.304  19.999  0.00  0.00    +0.000 OA
BRANCH  14  15
ATOM     15  C   UNL     1       2.484   2.777  20.024  0.00  0.00    +0.000 C 
BRANCH  15  16
ATOM     16  C   UNL     1       1.569   3.455  21.042  0.00  0.00    +0.000 C 
ATOM     17  F   UNL     1       2.187   4.457  21.708  0.00  0.00    +0.000 F 
ATOM     18  F   UNL     1       0.498   4.000  20.416  0.00  0.00    +0.000 F 
ATOM     19  F   UNL     1       1.091   2.580  21.953  0.00  0.00    +0.000 F 
ENDBRANCH  15  16
ENDBRANCH  14  15
ENDBRANCH   2  14
TORSDOF 6
ENDMDL
MODEL 5
REMARK VINA RESULT:      -6.7      0.593      1.060
REMARK  Name = 
REMARK  7 active torsions:
REMARK  status: ('A' for Active; 'I' for Inactive)
REMARK    1  A    between atoms: C_1  and  C_2
REMARK    2  A    between atoms: C_2  and  O_3
REMARK    3  A    between atoms: O_3  and  C_4
REMARK    4  A    between atoms: C_9  and  N_10
REMARK    5  A    between atoms: C_11  and  O_13
REMARK    6  A    between atoms: O_13  and  C_14
REMARK    7  A    between atoms: C_14  and  C_15
REMARK                            x       y       z     vdW  Elec       q    Type
REMARK                         _______ _______ _______ _____ _____    ______ ____
ROOT
ATOM      1  N   UNL     1       4.497   4.980  17.871  0.00  0.00    +0.000 N 
ATOM      2  C   UNL     1       4.614   4.327  19.062  0.00  0.00    +0.000 C 
ATOM      3  O   UNL     1       5.502   3.565  19.414  0.00  0.00    +0.000 OA
ATOM      4  H   UNL     1       3.692   5.588  17.767  0.00  0.00    +0.000 HD
ENDROOT
BRANCH   1  10
ATOM      5  C   UNL     1       6.348   5.850  16.548  0.00  0.00    +0.000 A 
ATOM      6  N   UNL     1       7.215   5.841  15.505  0.00  0.00    +0.000 NA
ATOM      7  C   UNL     1       7.083   4.843  14.610  0.00  0.00    +0.000 A 
ATOM      8  C   UNL     1       6.124   3.854  14.705  0.00  0.00    +0.000 A 
ATOM      9  C   UNL     1       5.255   3.874  15.794  0.00  0.00    +0.000 A 
ATOM     10  C   UNL     1       5.355   4.882  16.752  0.00  0.00    +0.000 A 
BRANCH   5  11
ATOM     11  O   UNL     1       6.442   6.882  17.472  0.00  0.00    +0.000 OA
BRANCH  11  13
ATOM     12  C   UNL     1       7.951   6.068  19.160  0.00  0.00    +0.000 C 
ATOM     13  C   UNL     1       7.777   7.008  17.980  0.00  0.00    +0.000 C 
ENDBRANCH  11  13
ENDBRANCH   5  11
ENDBRANCH   1  10
BRANCH   2  14
ATOM     14  O   UNL     1       3.554   4.629  19.860  0.00  0.00    +0.000 OA
BRANCH  14  15
ATOM     15  C   UNL     1       2.364   3.873  19.542  0.00  0.00    +0.000 C 
BRANCH  15  16
ATOM     16  C   UNL     1       1.385   3.733  20.706  0.00  0.00    +0.000 C 
ATOM     17  F   UNL     1       0.834   2.500  20.774  0.00  0.00    +0.000 F 
ATOM     18  F   UNL     1       2.027   3.943  21.882  0.00  0.00    +0.000 F 
ATOM     19  F   UNL     1       0.383   4.636  20.636  0.00  0.00    +0.000 F 
ENDBRANCH  15  16
ENDBRANCH  14  15
ENDBRANCH   2  14
TORSDOF 6
ENDMDL
MODEL 6
REMARK VINA RESULT:      -6.6      4.443      6.240
REMARK  Name = 
REMARK  7 active torsions:
REMARK  status: ('A' for Active; 'I' for Inactive)
REMARK    1  A    between atoms: C_1  and  C_2
REMARK    2  A    between atoms: C_2  and  O_3
REMARK    3  A    between atoms: O_3  and  C_4
REMARK    4  A    between atoms: C_9  and  N_10
REMARK    5  A    between atoms: C_11  and  O_13
REMARK    6  A    between atoms: O_13  and  C_14
REMARK    7  A    between atoms: C_14  and  C_15
REMARK                            x       y       z     vdW  Elec       q    Type
REMARK                         _______ _______ _______ _____ _____    ______ ____
ROOT
ATOM      1  N   UNL     1       5.467   4.099  15.968  0.00  0.00    +0.000 N 
ATOM      2  C   UNL     1       5.771   5.229  15.268  0.00  0.00    +0.000 C 
ATOM      3  O   UNL     1       5.424   6.375  15.508  0.00  0.00    +0.000 OA
ATOM      4  H   UNL     1       5.863   3.233  15.621  0.00  0.00    +0.000 HD
ENDROOT
BRANCH   1  10
ATOM      5  C   UNL     1       5.191   4.119  18.388  0.00  0.00    +0.000 A 
ATOM      6  N   UNL     1       4.475   4.033  19.538  0.00  0.00    +0.000 NA
ATOM      7  C   UNL     1       3.155   3.791  19.418  0.00  0.00    +0.000 A 
ATOM      8  C   UNL     1       2.515   3.628  18.205  0.00  0.00    +0.000 A 
ATOM      9  C   UNL     1       3.267   3.738  17.037  0.00  0.00    +0.000 A 
ATOM     10  C   UNL     1       4.636   3.995  17.107  0.00  0.00    +0.000 A 
BRANCH   5  11
ATOM     11  O   UNL     1       6.558   4.342  18.481  0.00  0.00    +0.000 OA
BRANCH  11  13
ATOM     12  C   UNL     1       7.701   6.456  18.385  0.00  0.00    +0.000 C 
ATOM     13  C   UNL     1       6.844   5.530  19.230  0.00  0.00    +0.000 C 
ENDBRANCH  11  13
ENDBRANCH   5  11
ENDBRANCH   1  10
BRANCH   2  14
ATOM     14  O   UNL     1       6.544   4.911  14.193  0.00  0.00    +0.000 OA
BRANCH  14  15
ATOM     15  C   UNL     1       6.288   3.587  13.676  0.00  0.00    +0.000 C 
BRANCH  15  16
ATOM     16  C   UNL     1       6.339   3.493  12.152  0.00  0.00    +0.000 C 
ATOM     17  F   UNL     1       7.085   4.475  11.597  0.00  0.00    +0.000 F 
ATOM     18  F   UNL     1       6.895   2.315  11.776  0.00  0.00    +0.000 F 
ATOM     19  F   UNL     1       5.107   3.542  11.601  0.00  0.00    +0.000 F 
ENDBRANCH  15  16
ENDBRANCH  14  15
ENDBRANCH   2  14
TORSDOF 6
ENDMDL
MODEL 7
REMARK VINA RESULT:      -6.6      1.306      1.572
REMARK  Name = 
REMARK  7 active torsions:
REMARK  status: ('A' for Active; 'I' for Inactive)
REMARK    1  A    between atoms: C_1  and  C_2
REMARK    2  A    between atoms: C_2  and  O_3
REMARK    3  A    between atoms: O_3  and  C_4
REMARK    4  A    between atoms: C_9  and  N_10
REMARK    5  A    between atoms: C_11  and  O_13
REMARK    6  A    between atoms: O_13  and  C_14
REMARK    7  A    between atoms: C_14  and  C_15
REMARK                            x       y       z     vdW  Elec       q    Type
REMARK                         _______ _______ _______ _____ _____    ______ ____
ROOT
ATOM      1  N   UNL     1       5.345   3.837  17.494  0.00  0.00    +0.000 N 
ATOM      2  C   UNL     1       4.237   4.412  18.042  0.00  0.00    +0.000 C 
ATOM      3  O   UNL     1       3.539   5.295  17.567  0.00  0.00    +0.000 OA
ATOM      4  H   UNL     1       5.786   3.101  18.035  0.00  0.00    +0.000 HD
ENDROOT
BRANCH   1  10
ATOM      5  C   UNL     1       6.940   5.180  16.234  0.00  0.00    +0.000 A 
ATOM      6  N   UNL     1       7.589   5.570  15.109  0.00  0.00    +0.000 NA
ATOM      7  C   UNL     1       7.247   4.954  13.961  0.00  0.00    +0.000 A 
ATOM      8  C   UNL     1       6.284   3.967  13.882  0.00  0.00    +0.000 A 
ATOM      9  C   UNL     1       5.643   3.569  15.054  0.00  0.00    +0.000 A 
ATOM     10  C   UNL     1       5.967   4.172  16.269  0.00  0.00    +0.000 A 
BRANCH   5  11
ATOM     11  O   UNL     1       7.253   5.816  17.428  0.00  0.00    +0.000 OA
BRANCH  11  13
ATOM     12  C   UNL     1       7.895   8.121  17.680  0.00  0.00    +0.000 C 
ATOM     13  C   UNL     1       6.744   7.156  17.455  0.00  0.00    +0.000 C 
ENDBRANCH  11  13
ENDBRANCH   5  11
ENDBRANCH   1  10
BRANCH   2  14
ATOM     14  O   UNL     1       3.988   3.864  19.262  0.00  0.00    +0.000 OA
BRANCH  14  15
ATOM     15  C   UNL     1       2.593   3.554  19.477  0.00  0.00    +0.000 C 
BRANCH  15  16
ATOM     16  C   UNL     1       1.952   4.335  20.623  0.00  0.00    +0.000 C 
ATOM     17  F   UNL     1       2.125   5.671  20.500  0.00  0.00    +0.000 F 
ATOM     18  F   UNL     1       0.615   4.112  20.648  0.00  0.00    +0.000 F 
ATOM     19  F   UNL     1       2.437   3.959  21.826  0.00  0.00    +0.000 F 
ENDBRANCH  15  16
ENDBRANCH  14  15
ENDBRANCH   2  14
TORSDOF 6
ENDMDL
MODEL 8
REMARK VINA RESULT:      -6.6      1.291      1.689
REMARK  Name = 
REMARK  7 active torsions:
REMARK  status: ('A' for Active; 'I' for Inactive)
REMARK    1  A    between atoms: C_1  and  C_2
REMARK    2  A    between atoms: C_2  and  O_3
REMARK    3  A    between atoms: O_3  and  C_4
REMARK    4  A    between atoms: C_9  and  N_10
REMARK    5  A    between atoms: C_11  and  O_13
REMARK    6  A    between atoms: O_13  and  C_14
REMARK    7  A    between atoms: C_14  and  C_15
REMARK                            x       y       z     vdW  Elec       q    Type
REMARK                         _______ _______ _______ _____ _____    ______ ____
ROOT
ATOM      1  N   UNL     1       5.665   3.918  17.699  0.00  0.00    +0.000 N 
ATOM      2  C   UNL     1       4.364   3.800  18.088  0.00  0.00    +0.000 C 
ATOM      3  O   UNL     1       3.363   3.876  17.390  0.00  0.00    +0.000 OA
ATOM      4  H   UNL     1       6.365   3.809  18.425  0.00  0.00    +0.000 HD
ENDROOT
BRANCH   1  10
ATOM      5  C   UNL     1       7.103   5.218  16.223  0.00  0.00    +0.000 A 
ATOM      6  N   UNL     1       7.623   5.567  15.020  0.00  0.00    +0.000 NA
ATOM      7  C   UNL     1       7.166   4.903  13.941  0.00  0.00    +0.000 A 
ATOM      8  C   UNL     1       6.209   3.907  14.006  0.00  0.00    +0.000 A 
ATOM      9  C   UNL     1       5.702   3.554  15.254  0.00  0.00    +0.000 A 
ATOM     10  C   UNL     1       6.149   4.207  16.403  0.00  0.00    +0.000 A 
BRANCH   5  11
ATOM     11  O   UNL     1       7.536   5.903  17.350  0.00  0.00    +0.000 OA
BRANCH  11  13
ATOM     12  C   UNL     1       7.972   8.241  17.713  0.00  0.00    +0.000 C 
ATOM     13  C   UNL     1       6.909   7.189  17.453  0.00  0.00    +0.000 C 
ENDBRANCH  11  13
ENDBRANCH   5  11
ENDBRANCH   1  10
BRANCH   2  14
ATOM     14  O   UNL     1       4.301   3.588  19.431  0.00  0.00    +0.000 OA
BRANCH  14  15
ATOM     15  C   UNL     1       3.109   4.132  20.041  0.00  0.00    +0.000 C 
BRANCH  15  16
ATOM     16  C   UNL     1       2.222   3.086  20.716  0.00  0.00    +0.000 C 
ATOM     17  F   UNL     1       1.990   2.015  19.924  0.00  0.00    +0.000 F 
ATOM     18  F   UNL     1       2.823   2.621  21.839  0.00  0.00    +0.000 F 
ATOM     19  F   UNL     1       1.030   3.599  21.089  0.00  0.00    +0.000 F 
ENDBRANCH  15  16
ENDBRANCH  14  15
ENDBRANCH   2  14
TORSDOF 6
ENDMDL
MODEL 9
REMARK VINA RESULT:      -6.6      1.400      2.864
REMARK  Name = 
REMARK  7 active torsions:
REMARK  status: ('A' for Active; 'I' for Inactive)
REMARK    1  A    between atoms: C_1  and  C_2
REMARK    2  A    between atoms: C_2  and  O_3
REMARK    3  A    between atoms: O_3  and  C_4
REMARK    4  A    between atoms: C_9  and  N_10
REMARK    5  A    between atoms: C_11  and  O_13
REMARK    6  A    between atoms: O_13  and  C_14
REMARK    7  A    between atoms: C_14  and  C_15
REMARK                            x       y       z     vdW  Elec       q    Type
REMARK                         _______ _______ _______ _____ _____    ______ ____
ROOT
ATOM      1  N   UNL     1       5.485   3.982  18.605  0.00  0.00    +0.000 N 
ATOM      2  C   UNL     1       4.355   3.928  19.366  0.00  0.00    +0.000 C 
ATOM      3  O   UNL     1       3.764   4.856  19.897  0.00  0.00    +0.000 OA
ATOM      4  H   UNL     1       5.821   3.101  18.233  0.00  0.00    +0.000 HD
ENDROOT
BRANCH   1  10
ATOM      5  C   UNL     1       6.032   5.825  17.109  0.00  0.00    +0.000 A 
ATOM      6  N   UNL     1       6.724   6.930  16.732  0.00  0.00    +0.000 NA
ATOM      7  C   UNL     1       7.698   7.351  17.560  0.00  0.00    +0.000 A 
ATOM      8  C   UNL     1       8.019   6.721  18.747  0.00  0.00    +0.000 A 
ATOM      9  C   UNL     1       7.284   5.598  19.121  0.00  0.00    +0.000 A 
ATOM     10  C   UNL     1       6.259   5.126  18.302  0.00  0.00    +0.000 A 
BRANCH   5  11
ATOM     11  O   UNL     1       5.039   5.351  16.262  0.00  0.00    +0.000 OA
BRANCH  11  13
ATOM     12  C   UNL     1       6.165   3.870  14.738  0.00  0.00    +0.000 C 
ATOM     13  C   UNL     1       5.514   5.230  14.915  0.00  0.00    +0.000 C 
ENDBRANCH  11  13
ENDBRANCH   5  11
ENDBRANCH   1  10
BRANCH   2  14
ATOM     14  O   UNL     1       3.940   2.637  19.484  0.00  0.00    +0.000 OA
BRANCH  14  15
ATOM     15  C   UNL     1       2.893   2.284  18.552  0.00  0.00    +0.000 C 
BRANCH  15  16
ATOM     16  C   UNL     1       1.485   2.617  19.044  0.00  0.00    +0.000 C 
ATOM     17  F   UNL     1       1.074   3.842  18.644  0.00  0.00    +0.000 F 
ATOM     18  F   UNL     1       0.595   1.723  18.548  0.00  0.00    +0.000 F 
ATOM     19  F   UNL     1       1.392   2.562  20.390  0.00  0.00    +0.000 F 
ENDBRANCH  15  16
ENDBRANCH  14  15
ENDBRANCH   2  14
TORSDOF 6
ENDMDL
