MODEL 1
REMARK VINA RESULT:      -6.5      0.000      0.000
REMARK  Name = 
REMARK  9 active torsions:
REMARK  status: ('A' for Active; 'I' for Inactive)
REMARK    1  A    between atoms: C_1  and  C_2
REMARK    2  A    between atoms: C_2  and  C_3
REMARK    3  A    between atoms: C_3  and  C_4
REMARK    4  A    between atoms: C_4  and  C_5
REMARK    5  A    between atoms: C_5  and  C_19
REMARK    6  A    between atoms: C_6  and  C_7
REMARK    7  A    between atoms: C_6  and  C_13
REMARK    8  A    between atoms: C_22  and  S_23
REMARK    9  A    between atoms: S_23  and  C_24
REMARK                            x       y       z     vdW  Elec       q    Type
REMARK                         _______ _______ _______ _____ _____    ______ ____
ROOT
ATOM      1  C   UNL     1       3.931   6.633  17.520  0.00  0.00    +0.000 C 
ATOM      2  C   UNL     1       3.968   5.285  17.320  0.00  0.00    +0.000 C 
ENDROOT
BRANCH   2   3
ATOM      3  C   UNL     1       2.987   4.394  18.007  0.00  0.00    +0.000 A 
ATOM      4  C   UNL     1       3.425   3.577  19.060  0.00  0.00    +0.000 A 
ATOM      5  C   UNL     1       2.531   2.732  19.720  0.00  0.00    +0.000 A 
ATOM      6  C   UNL     1       1.193   2.701  19.333  0.00  0.00    +0.000 A 
ATOM      7  C   UNL     1       0.747   3.511  18.291  0.00  0.00    +0.000 A 
ATOM      8  C   UNL     1       1.640   4.359  17.630  0.00  0.00    +0.000 A 
ENDBRANCH   2   3
BRANCH   2   9
ATOM      9  C   UNL     1       4.957   4.656  16.407  0.00  0.00    +0.000 A 
ATOM     10  C   UNL     1       4.644   4.505  15.048  0.00  0.00    +0.000 A 
ATOM     11  C   UNL     1       5.622   4.100  14.136  0.00  0.00    +0.000 A 
ATOM     12  C   UNL     1       6.919   3.840  14.574  0.00  0.00    +0.000 A 
ATOM     13  C   UNL     1       7.235   3.970  15.926  0.00  0.00    +0.000 A 
ATOM     14  C   UNL     1       6.258   4.373  16.841  0.00  0.00    +0.000 A 
ENDBRANCH   2   9
BRANCH   1  15
ATOM     15  C   UNL     1       3.020   7.187  18.556  0.00  0.00    +0.000 A 
ATOM     16  C   UNL     1       2.265   8.336  18.267  0.00  0.00    +0.000 A 
ATOM     17  C   UNL     1       1.405   8.878  19.223  0.00  0.00    +0.000 A 
ATOM     18  C   UNL     1       1.294   8.262  20.471  0.00  0.00    +0.000 A 
ATOM     19  C   UNL     1       2.039   7.119  20.774  0.00  0.00    +0.000 A 
ATOM     20  C   UNL     1       2.898   6.580  19.814  0.00  0.00    +0.000 A 
BRANCH  18  21
ATOM     21  S   UNL     1       0.267   9.001  21.720  0.00  0.00    +0.000 S 
ATOM     22  C   UNL     1      -0.360  10.466  20.944  0.00  0.00    +0.000 C 
ATOM     23  O   UNL     1      -0.854   8.104  21.953  0.00  0.00    +0.000 OA
ATOM     24  O   UNL     1       1.127   9.409  22.813  0.00  0.00    +0.000 OA
ENDBRANCH  18  21
ENDBRANCH   1  15
BRANCH   1  25
ATOM     25  C   UNL     1       4.787   7.666  16.770  0.00  0.00    +0.000 C 
BRANCH  25  26
ATOM     26  C   UNL     1       6.019   8.170  17.556  0.00  0.00    +0.000 C 
BRANCH  26  28
ATOM     27  C   UNL     1       7.968   6.925  18.468  0.00  0.00    +0.000 C 
ATOM     28  C   UNL     1       7.355   7.523  17.202  0.00  0.00    +0.000 C 
ENDBRANCH  26  28
ENDBRANCH  25  26
ENDBRANCH   1  25
TORSDOF 7
ENDMDL
MODEL 2
REMARK VINA RESULT:      -6.5      8.131     10.850
REMARK  Name = 
REMARK  9 active torsions:
REMARK  status: ('A' for Active; 'I' for Inactive)
REMARK    1  A    between atoms: C_1  and  C_2
REMARK    2  A    between atoms: C_2  and  C_3
REMARK    3  A    between atoms: C_3  and  C_4
REMARK    4  A    between atoms: C_4  and  C_5
REMARK    5  A    between atoms: C_5  and  C_19
REMARK    6  A    between atoms: C_6  and  C_7
REMARK    7  A    between atoms: C_6  and  C_13
REMARK    8  A    between atoms: C_22  and  S_23
REMARK    9  A    between atoms: S_23  and  C_24
REMARK                            x       y       z     vdW  Elec       q    Type
REMARK                         _______ _______ _______ _____ _____    ______ ____
ROOT
ATOM      1  C   UNL     1       9.353  12.923  21.817  0.00  0.00    +0.000 C 
ATOM      2  C   UNL     1       9.456  14.226  21.429  0.00  0.00    +0.000 C 
ENDROOT
BRANCH   2   3
ATOM      3  C   UNL     1       8.767  15.299  22.205  0.00  0.00    +0.000 A 
ATOM      4  C   UNL     1       9.429  15.890  23.292  0.00  0.00    +0.000 A 
ATOM      5  C   UNL     1       8.808  16.893  24.037  0.00  0.00    +0.000 A 
ATOM      6  C   UNL     1       7.523  17.313  23.700  0.00  0.00    +0.000 A 
ATOM      7  C   UNL     1       6.859  16.735  22.620  0.00  0.00    +0.000 A 
ATOM      8  C   UNL     1       7.479  15.731  21.871  0.00  0.00    +0.000 A 
ENDBRANCH   2   3
BRANCH   2   9
ATOM      9  C   UNL     1      10.264  14.629  20.250  0.00  0.00    +0.000 A 
ATOM     10  C   UNL     1       9.628  14.835  19.016  0.00  0.00    +0.000 A 
ATOM     11  C   UNL     1      10.326  15.400  17.945  0.00  0.00    +0.000 A 
ATOM     12  C   UNL     1      11.663  15.761  18.095  0.00  0.00    +0.000 A 
ATOM     13  C   UNL     1      12.308  15.544  19.313  0.00  0.00    +0.000 A 
ATOM     14  C   UNL     1      11.613  14.977  20.385  0.00  0.00    +0.000 A 
ENDBRANCH   2   9
BRANCH   1  15
ATOM     15  C   UNL     1       8.413  12.564  22.912  0.00  0.00    +0.000 A 
ATOM     16  C   UNL     1       7.071  12.286  22.606  0.00  0.00    +0.000 A 
ATOM     17  C   UNL     1       6.169  11.949  23.616  0.00  0.00    +0.000 A 
ATOM     18  C   UNL     1       6.614  11.884  24.937  0.00  0.00    +0.000 A 
ATOM     19  C   UNL     1       7.946  12.159  25.259  0.00  0.00    +0.000 A 
ATOM     20  C   UNL     1       8.845  12.495  24.244  0.00  0.00    +0.000 A 
BRANCH  18  21
ATOM     21  S   UNL     1       5.448  11.544  26.235  0.00  0.00    +0.000 S 
ATOM     22  C   UNL     1       6.454  10.937  27.563  0.00  0.00    +0.000 C 
ATOM     23  O   UNL     1       4.874  12.812  26.654  0.00  0.00    +0.000 OA
ATOM     24  O   UNL     1       4.597  10.458  25.789  0.00  0.00    +0.000 OA
ENDBRANCH  18  21
ENDBRANCH   1  15
BRANCH   1  25
ATOM     25  C   UNL     1      10.121  11.747  21.194  0.00  0.00    +0.000 C 
BRANCH  25  26
ATOM     26  C   UNL     1       9.374  11.026  20.049  0.00  0.00    +0.000 C 
BRANCH  26  28
ATOM     27  C   UNL     1      11.445  11.535  18.768  0.00  0.00    +0.000 C 
ATOM     28  C   UNL     1       9.958  11.201  18.649  0.00  0.00    +0.000 C 
ENDBRANCH  26  28
ENDBRANCH  25  26
ENDBRANCH   1  25
TORSDOF 7
ENDMDL
MODEL 3
REMARK VINA RESULT:      -6.4      8.192     10.753
REMARK  Name = 
REMARK  9 active torsions:
REMARK  status: ('A' for Active; 'I' for Inactive)
REMARK    1  A    between atoms: C_1  and  C_2
REMARK    2  A    between atoms: C_2  and  C_3
REMARK    3  A    between atoms: C_3  and  C_4
REMARK    4  A    between atoms: C_4  and  C_5
REMARK    5  A    between atoms: C_5  and  C_19
REMARK    6  A    between atoms: C_6  and  C_7
REMARK    7  A    between atoms: C_6  and  C_13
REMARK    8  A    between atoms: C_22  and  S_23
REMARK    9  A    between atoms: S_23  and  C_24
REMARK                            x       y       z     vdW  Elec       q    Type
REMARK                         _______ _______ _______ _____ _____    ______ ____
ROOT
ATOM      1  C   UNL     1       8.979  12.936  22.192  0.00  0.00    +0.000 C 
ATOM      2  C   UNL     1       8.923  14.227  21.759  0.00  0.00    +0.000 C 
ENDROOT
BRANCH   2   3
ATOM      3  C   UNL     1       8.080  15.226  22.479  0.00  0.00    +0.000 A 
ATOM      4  C   UNL     1       6.757  15.434  22.059  0.00  0.00    +0.000 A 
ATOM      5  C   UNL     1       5.946  16.364  22.711  0.00  0.00    +0.000 A 
ATOM      6  C   UNL     1       6.451  17.090  23.787  0.00  0.00    +0.000 A 
ATOM      7  C   UNL     1       7.762  16.888  24.213  0.00  0.00    +0.000 A 
ATOM      8  C   UNL     1       8.576  15.957  23.564  0.00  0.00    +0.000 A 
ENDBRANCH   2   3
BRANCH   2   9
ATOM      9  C   UNL     1       9.703  14.692  20.583  0.00  0.00    +0.000 A 
ATOM     10  C   UNL     1       9.082  14.762  19.327  0.00  0.00    +0.000 A 
ATOM     11  C   UNL     1       9.728  15.376  18.250  0.00  0.00    +0.000 A 
ATOM     12  C   UNL     1      10.998  15.923  18.418  0.00  0.00    +0.000 A 
ATOM     13  C   UNL     1      11.630  15.844  19.659  0.00  0.00    +0.000 A 
ATOM     14  C   UNL     1      10.988  15.228  20.737  0.00  0.00    +0.000 A 
ENDBRANCH   2   9
BRANCH   1  15
ATOM     15  C   UNL     1       8.065  12.494  23.278  0.00  0.00    +0.000 A 
ATOM     16  C   UNL     1       8.499  12.556  24.612  0.00  0.00    +0.000 A 
ATOM     17  C   UNL     1       7.661  12.146  25.650  0.00  0.00    +0.000 A 
ATOM     18  C   UNL     1       6.380  11.678  25.350  0.00  0.00    +0.000 A 
ATOM     19  C   UNL     1       5.933  11.610  24.027  0.00  0.00    +0.000 A 
ATOM     20  C   UNL     1       6.776  12.023  22.993  0.00  0.00    +0.000 A 
BRANCH  18  21
ATOM     21  S   UNL     1       5.344  11.072  26.661  0.00  0.00    +0.000 S 
ATOM     22  C   UNL     1       4.789  12.543  27.480  0.00  0.00    +0.000 C 
ATOM     23  O   UNL     1       4.187  10.438  26.049  0.00  0.00    +0.000 OA
ATOM     24  O   UNL     1       6.186  10.339  27.586  0.00  0.00    +0.000 OA
ENDBRANCH  18  21
ENDBRANCH   1  15
BRANCH   1  25
ATOM     25  C   UNL     1       9.911  11.850  21.629  0.00  0.00    +0.000 C 
BRANCH  25  26
ATOM     26  C   UNL     1       9.357  11.107  20.392  0.00  0.00    +0.000 C 
BRANCH  26  28
ATOM     27  C   UNL     1      11.578  11.725  19.460  0.00  0.00    +0.000 C 
ATOM     28  C   UNL     1      10.174  11.232  19.109  0.00  0.00    +0.000 C 
ENDBRANCH  26  28
ENDBRANCH  25  26
ENDBRANCH   1  25
TORSDOF 7
ENDMDL
MODEL 4
REMARK VINA RESULT:      -6.3      8.657     11.081
REMARK  Name = 
REMARK  9 active torsions:
REMARK  status: ('A' for Active; 'I' for Inactive)
REMARK    1  A    between atoms: C_1  and  C_2
REMARK    2  A    between atoms: C_2  and  C_3
REMARK    3  A    between atoms: C_3  and  C_4
REMARK    4  A    between atoms: C_4  and  C_5
REMARK    5  A    between atoms: C_5  and  C_19
REMARK    6  A    between atoms: C_6  and  C_7
REMARK    7  A    between atoms: C_6  and  C_13
REMARK    8  A    between atoms: C_22  and  S_23
REMARK    9  A    between atoms: S_23  and  C_24
REMARK                            x       y       z     vdW  Elec       q    Type
REMARK                         _______ _______ _______ _____ _____    ______ ____
ROOT
ATOM      1  C   UNL     1       9.078  13.230  21.269  0.00  0.00    +0.000 C 
ATOM      2  C   UNL     1       9.443  14.538  21.152  0.00  0.00    +0.000 C 
ENDROOT
BRANCH   2   3
ATOM      3  C   UNL     1       9.174  15.497  22.264  0.00  0.00    +0.000 A 
ATOM      4  C   UNL     1       8.005  16.272  22.232  0.00  0.00    +0.000 A 
ATOM      5  C   UNL     1       7.728  17.179  23.256  0.00  0.00    +0.000 A 
ATOM      6  C   UNL     1       8.617  17.316  24.320  0.00  0.00    +0.000 A 
ATOM      7  C   UNL     1       9.780  16.548  24.363  0.00  0.00    +0.000 A 
ATOM      8  C   UNL     1      10.058  15.638  23.339  0.00  0.00    +0.000 A 
ENDBRANCH   2   3
BRANCH   2   9
ATOM      9  C   UNL     1      10.132  15.053  19.941  0.00  0.00    +0.000 A 
ATOM     10  C   UNL     1      11.526  15.214  19.956  0.00  0.00    +0.000 A 
ATOM     11  C   UNL     1      12.218  15.507  18.778  0.00  0.00    +0.000 A 
ATOM     12  C   UNL     1      11.525  15.645  17.577  0.00  0.00    +0.000 A 
ATOM     13  C   UNL     1      10.137  15.504  17.556  0.00  0.00    +0.000 A 
ATOM     14  C   UNL     1       9.442  15.213  18.733  0.00  0.00    +0.000 A 
ENDBRANCH   2   9
BRANCH   1  15
ATOM     15  C   UNL     1       8.260  12.807  22.437  0.00  0.00    +0.000 A 
ATOM     16  C   UNL     1       8.895  12.238  23.553  0.00  0.00    +0.000 A 
ATOM     17  C   UNL     1       8.149  11.830  24.660  0.00  0.00    +0.000 A 
ATOM     18  C   UNL     1       6.764  12.000  24.653  0.00  0.00    +0.000 A 
ATOM     19  C   UNL     1       6.117  12.565  23.549  0.00  0.00    +0.000 A 
ATOM     20  C   UNL     1       6.868  12.972  22.444  0.00  0.00    +0.000 A 
BRANCH  18  21
ATOM     21  S   UNL     1       5.804  11.401  26.024  0.00  0.00    +0.000 S 
ATOM     22  C   UNL     1       5.100  12.869  26.724  0.00  0.00    +0.000 C 
ATOM     23  O   UNL     1       4.717  10.600  25.482  0.00  0.00    +0.000 OA
ATOM     24  O   UNL     1       6.723  10.841  26.995  0.00  0.00    +0.000 OA
ENDBRANCH  18  21
ENDBRANCH   1  15
BRANCH   1  25
ATOM     25  C   UNL     1       9.420  12.119  20.264  0.00  0.00    +0.000 C 
BRANCH  25  26
ATOM     26  C   UNL     1      10.858  11.565  20.385  0.00  0.00    +0.000 C 
BRANCH  26  28
ATOM     27  C   UNL     1      10.847  11.788  17.908  0.00  0.00    +0.000 C 
ATOM     28  C   UNL     1      11.739  11.703  19.146  0.00  0.00    +0.000 C 
ENDBRANCH  26  28
ENDBRANCH  25  26
ENDBRANCH   1  25
TORSDOF 7
ENDMDL
MODEL 5
REMARK VINA RESULT:      -6.3      7.385     11.366
REMARK  Name = 
REMARK  9 active torsions:
REMARK  status: ('A' for Active; 'I' for Inactive)
REMARK    1  A    between atoms: C_1  and  C_2
REMARK    2  A    between atoms: C_2  and  C_3
REMARK    3  A    between atoms: C_3  and  C_4
REMARK    4  A    between atoms: C_4  and  C_5
REMARK    5  A    between atoms: C_5  and  C_19
REMARK    6  A    between atoms: C_6  and  C_7
REMARK    7  A    between atoms: C_6  and  C_13
REMARK    8  A    between atoms: C_22  and  S_23
REMARK    9  A    between atoms: S_23  and  C_24
REMARK                            x       y       z     vdW  Elec       q    Type
REMARK                         _______ _______ _______ _____ _____    ______ ____
ROOT
ATOM      1  C   UNL     1      -1.418  14.408  21.927  0.00  0.00    +0.000 C 
ATOM      2  C   UNL     1      -2.140  13.268  21.733  0.00  0.00    +0.000 C 
ENDROOT
BRANCH   2   3
ATOM      3  C   UNL     1      -1.671  12.236  20.762  0.00  0.00    +0.000 A 
ATOM      4  C   UNL     1      -0.728  11.284  21.178  0.00  0.00    +0.000 A 
ATOM      5  C   UNL     1      -0.269  10.309  20.291  0.00  0.00    +0.000 A 
ATOM      6  C   UNL     1      -0.752  10.278  18.984  0.00  0.00    +0.000 A 
ATOM      7  C   UNL     1      -1.691  11.217  18.563  0.00  0.00    +0.000 A 
ATOM      8  C   UNL     1      -2.153  12.193  19.450  0.00  0.00    +0.000 A 
ENDBRANCH   2   3
BRANCH   2   9
ATOM      9  C   UNL     1      -3.393  12.999  22.484  0.00  0.00    +0.000 A 
ATOM     10  C   UNL     1      -3.328  12.352  23.727  0.00  0.00    +0.000 A 
ATOM     11  C   UNL     1      -4.461  12.261  24.540  0.00  0.00    +0.000 A 
ATOM     12  C   UNL     1      -5.669  12.813  24.117  0.00  0.00    +0.000 A 
ATOM     13  C   UNL     1      -5.747  13.443  22.875  0.00  0.00    +0.000 A 
ATOM     14  C   UNL     1      -4.616  13.533  22.059  0.00  0.00    +0.000 A 
ENDBRANCH   2   9
BRANCH   1  15
ATOM     15  C   UNL     1      -0.257  14.690  21.042  0.00  0.00    +0.000 A 
ATOM     16  C   UNL     1       1.039  14.376  21.482  0.00  0.00    +0.000 A 
ATOM     17  C   UNL     1       2.145  14.633  20.671  0.00  0.00    +0.000 A 
ATOM     18  C   UNL     1       1.952  15.201  19.411  0.00  0.00    +0.000 A 
ATOM     19  C   UNL     1       0.668  15.520  18.957  0.00  0.00    +0.000 A 
ATOM     20  C   UNL     1      -0.435  15.259  19.773  0.00  0.00    +0.000 A 
BRANCH  18  21
ATOM     21  S   UNL     1       3.365  15.611  18.413  0.00  0.00    +0.000 S 
ATOM     22  C   UNL     1       4.381  16.583  19.493  0.00  0.00    +0.000 C 
ATOM     23  O   UNL     1       4.074  14.375  18.126  0.00  0.00    +0.000 OA
ATOM     24  O   UNL     1       2.911  16.470  17.337  0.00  0.00    +0.000 OA
ENDBRANCH  18  21
ENDBRANCH   1  15
BRANCH   1  25
ATOM     25  C   UNL     1      -1.713  15.477  22.991  0.00  0.00    +0.000 C 
BRANCH  25  26
ATOM     26  C   UNL     1      -1.238  15.113  24.416  0.00  0.00    +0.000 C 
BRANCH  26  28
ATOM     27  C   UNL     1      -3.530  15.894  24.982  0.00  0.00    +0.000 C 
ATOM     28  C   UNL     1      -2.165  15.517  25.559  0.00  0.00    +0.000 C 
ENDBRANCH  26  28
ENDBRANCH  25  26
ENDBRANCH   1  25
TORSDOF 7
ENDMDL
MODEL 6
REMARK VINA RESULT:      -6.2      7.190     11.525
REMARK  Name = 
REMARK  9 active torsions:
REMARK  status: ('A' for Active; 'I' for Inactive)
REMARK    1  A    between atoms: C_1  and  C_2
REMARK    2  A    between atoms: C_2  and  C_3
REMARK    3  A    between atoms: C_3  and  C_4
REMARK    4  A    between atoms: C_4  and  C_5
REMARK    5  A    between atoms: C_5  and  C_19
REMARK    6  A    between atoms: C_6  and  C_7
REMARK    7  A    between atoms: C_6  and  C_13
REMARK    8  A    between atoms: C_22  and  S_23
REMARK    9  A    between atoms: S_23  and  C_24
REMARK                            x       y       z     vdW  Elec       q    Type
REMARK                         _______ _______ _______ _____ _____    ______ ____
ROOT
ATOM      1  C   UNL     1      -1.893  14.426  22.040  0.00  0.00    +0.000 C 
ATOM      2  C   UNL     1      -2.354  13.147  22.131  0.00  0.00    +0.000 C 
ENDROOT
BRANCH   2   3
ATOM      3  C   UNL     1      -1.535  12.012  21.612  0.00  0.00    +0.000 A 
ATOM      4  C   UNL     1      -1.575  11.711  20.242  0.00  0.00    +0.000 A 
ATOM      5  C   UNL     1      -0.821  10.654  19.728  0.00  0.00    +0.000 A 
ATOM      6  C   UNL     1      -0.023   9.894  20.579  0.00  0.00    +0.000 A 
ATOM      7  C   UNL     1       0.026  10.188  21.941  0.00  0.00    +0.000 A 
ATOM      8  C   UNL     1      -0.726  11.246  22.457  0.00  0.00    +0.000 A 
ENDBRANCH   2   3
BRANCH   2   9
ATOM      9  C   UNL     1      -3.662  12.830  22.760  0.00  0.00    +0.000 A 
ATOM     10  C   UNL     1      -3.707  12.467  24.115  0.00  0.00    +0.000 A 
ATOM     11  C   UNL     1      -4.931  12.354  24.778  0.00  0.00    +0.000 A 
ATOM     12  C   UNL     1      -6.121  12.601  24.095  0.00  0.00    +0.000 A 
ATOM     13  C   UNL     1      -6.087  12.945  22.744  0.00  0.00    +0.000 A 
ATOM     14  C   UNL     1      -4.863  13.056  22.077  0.00  0.00    +0.000 A 
ENDBRANCH   2   9
BRANCH   1  15
ATOM     15  C   UNL     1      -0.651  14.696  21.269  0.00  0.00    +0.000 A 
ATOM     16  C   UNL     1      -0.747  15.121  19.933  0.00  0.00    +0.000 A 
ATOM     17  C   UNL     1       0.404  15.379  19.188  0.00  0.00    +0.000 A 
ATOM     18  C   UNL     1       1.657  15.216  19.783  0.00  0.00    +0.000 A 
ATOM     19  C   UNL     1       1.769  14.793  21.111  0.00  0.00    +0.000 A 
ATOM     20  C   UNL     1       0.614  14.538  21.853  0.00  0.00    +0.000 A 
BRANCH  18  21
ATOM     21  S   UNL     1       3.124  15.457  18.809  0.00  0.00    +0.000 S 
ATOM     22  C   UNL     1       4.207  16.357  19.886  0.00  0.00    +0.000 C 
ATOM     23  O   UNL     1       3.715  14.149  18.574  0.00  0.00    +0.000 OA
ATOM     24  O   UNL     1       2.779  16.324  17.699  0.00  0.00    +0.000 OA
ENDBRANCH  18  21
ENDBRANCH   1  15
BRANCH   1  25
ATOM     25  C   UNL     1      -2.569  15.661  22.657  0.00  0.00    +0.000 C 
BRANCH  25  26
ATOM     26  C   UNL     1      -2.226  15.905  24.144  0.00  0.00    +0.000 C 
BRANCH  26  28
ATOM     27  C   UNL     1      -4.700  16.121  24.272  0.00  0.00    +0.000 C 
ATOM     28  C   UNL     1      -3.411  16.062  25.092  0.00  0.00    +0.000 C 
ENDBRANCH  26  28
ENDBRANCH  25  26
ENDBRANCH   1  25
TORSDOF 7
ENDMDL
MODEL 7
REMARK VINA RESULT:      -6.2      7.731     11.829
REMARK  Name = 
REMARK  9 active torsions:
REMARK  status: ('A' for Active; 'I' for Inactive)
REMARK    1  A    between atoms: C_1  and  C_2
REMARK    2  A    between atoms: C_2  and  C_3
REMARK    3  A    between atoms: C_3  and  C_4
REMARK    4  A    between atoms: C_4  and  C_5
REMARK    5  A    between atoms: C_5  and  C_19
REMARK    6  A    between atoms: C_6  and  C_7
REMARK    7  A    between atoms: C_6  and  C_13
REMARK    8  A    between atoms: C_22  and  S_23
REMARK    9  A    between atoms: S_23  and  C_24
REMARK                            x       y       z     vdW  Elec       q    Type
REMARK                         _______ _______ _______ _____ _____    ______ ____
ROOT
ATOM      1  C   UNL     1      -1.716  14.811  21.912  0.00  0.00    +0.000 C 
ATOM      2  C   UNL     1      -2.243  13.565  21.744  0.00  0.00    +0.000 C 
ENDROOT
BRANCH   2   3
ATOM      3  C   UNL     1      -1.616  12.605  20.789  0.00  0.00    +0.000 A 
ATOM      4  C   UNL     1      -2.109  12.525  19.478  0.00  0.00    +0.000 A 
ATOM      5  C   UNL     1      -1.545  11.634  18.563  0.00  0.00    +0.000 A 
ATOM      6  C   UNL     1      -0.482  10.821  18.952  0.00  0.00    +0.000 A 
ATOM      7  C   UNL     1       0.017  10.897  20.251  0.00  0.00    +0.000 A 
ATOM      8  C   UNL     1      -0.546  11.789  21.168  0.00  0.00    +0.000 A 
ENDBRANCH   2   3
BRANCH   2   9
ATOM      9  C   UNL     1      -3.433  13.110  22.508  0.00  0.00    +0.000 A 
ATOM     10  C   UNL     1      -3.278  12.673  23.832  0.00  0.00    +0.000 A 
ATOM     11  C   UNL     1      -4.397  12.426  24.632  0.00  0.00    +0.000 A 
ATOM     12  C   UNL     1      -5.678  12.610  24.117  0.00  0.00    +0.000 A 
ATOM     13  C   UNL     1      -5.842  13.027  22.796  0.00  0.00    +0.000 A 
ATOM     14  C   UNL     1      -4.725  13.273  21.993  0.00  0.00    +0.000 A 
ENDBRANCH   2   9
BRANCH   1  15
ATOM     15  C   UNL     1      -0.621  15.262  21.015  0.00  0.00    +0.000 A 
ATOM     16  C   UNL     1       0.715  15.089  21.416  0.00  0.00    +0.000 A 
ATOM     17  C   UNL     1       1.761  15.506  20.592  0.00  0.00    +0.000 A 
ATOM     18  C   UNL     1       1.471  16.093  19.359  0.00  0.00    +0.000 A 
ATOM     19  C   UNL     1       0.147  16.273  18.946  0.00  0.00    +0.000 A 
ATOM     20  C   UNL     1      -0.897  15.853  19.774  0.00  0.00    +0.000 A 
BRANCH  18  21
ATOM     21  S   UNL     1       2.799  16.706  18.349  0.00  0.00    +0.000 S 
ATOM     22  C   UNL     1       3.488  15.244  17.620  0.00  0.00    +0.000 C 
ATOM     23  O   UNL     1       2.209  17.501  17.284  0.00  0.00    +0.000 OA
ATOM     24  O   UNL     1       3.797  17.275  19.232  0.00  0.00    +0.000 OA
ENDBRANCH  18  21
ENDBRANCH   1  15
BRANCH   1  25
ATOM     25  C   UNL     1      -2.179  15.838  22.959  0.00  0.00    +0.000 C 
BRANCH  25  26
ATOM     26  C   UNL     1      -3.325  16.762  22.490  0.00  0.00    +0.000 C 
BRANCH  26  28
ATOM     27  C   UNL     1      -4.330  16.253  24.706  0.00  0.00    +0.000 C 
ATOM     28  C   UNL     1      -4.636  16.656  23.263  0.00  0.00    +0.000 C 
ENDBRANCH  26  28
ENDBRANCH  25  26
ENDBRANCH   1  25
TORSDOF 7
ENDMDL
MODEL 8
REMARK VINA RESULT:      -6.1      8.145     10.912
REMARK  Name = 
REMARK  9 active torsions:
REMARK  status: ('A' for Active; 'I' for Inactive)
REMARK    1  A    between atoms: C_1  and  C_2
REMARK    2  A    between atoms: C_2  and  C_3
REMARK    3  A    between atoms: C_3  and  C_4
REMARK    4  A    between atoms: C_4  and  C_5
REMARK    5  A    between atoms: C_5  and  C_19
REMARK    6  A    between atoms: C_6  and  C_7
REMARK    7  A    between atoms: C_6  and  C_13
REMARK    8  A    between atoms: C_22  and  S_23
REMARK    9  A    between atoms: S_23  and  C_24
REMARK                            x       y       z     vdW  Elec       q    Type
REMARK                         _______ _______ _______ _____ _____    ______ ____
ROOT
ATOM      1  C   UNL     1       9.004  13.104  22.149  0.00  0.00    +0.000 C 
ATOM      2  C   UNL     1       9.014  14.434  21.847  0.00  0.00    +0.000 C 
ENDROOT
BRANCH   2   3
ATOM      3  C   UNL     1       8.272  15.405  22.703  0.00  0.00    +0.000 A 
ATOM      4  C   UNL     1       6.940  15.714  22.391  0.00  0.00    +0.000 A 
ATOM      5  C   UNL     1       6.222  16.621  23.172  0.00  0.00    +0.000 A 
ATOM      6  C   UNL     1       6.831  17.224  24.270  0.00  0.00    +0.000 A 
ATOM      7  C   UNL     1       8.153  16.922  24.590  0.00  0.00    +0.000 A 
ATOM      8  C   UNL     1       8.873  16.012  23.811  0.00  0.00    +0.000 A 
ENDBRANCH   2   3
BRANCH   2   9
ATOM      9  C   UNL     1       9.768  14.966  20.683  0.00  0.00    +0.000 A 
ATOM     10  C   UNL     1      11.155  15.151  20.786  0.00  0.00    +0.000 A 
ATOM     11  C   UNL     1      11.914  15.462  19.654  0.00  0.00    +0.000 A 
ATOM     12  C   UNL     1      11.296  15.593  18.413  0.00  0.00    +0.000 A 
ATOM     13  C   UNL     1       9.915  15.428  18.304  0.00  0.00    +0.000 A 
ATOM     14  C   UNL     1       9.153  15.119  19.435  0.00  0.00    +0.000 A 
ENDBRANCH   2   9
BRANCH   1  15
ATOM     15  C   UNL     1       8.113  12.613  23.232  0.00  0.00    +0.000 A 
ATOM     16  C   UNL     1       8.589  12.578  24.554  0.00  0.00    +0.000 A 
ATOM     17  C   UNL     1       7.772  12.119  25.589  0.00  0.00    +0.000 A 
ATOM     18  C   UNL     1       6.472  11.701  25.301  0.00  0.00    +0.000 A 
ATOM     19  C   UNL     1       5.984  11.730  23.991  0.00  0.00    +0.000 A 
ATOM     20  C   UNL     1       6.804  12.191  22.959  0.00  0.00    +0.000 A 
BRANCH  18  21
ATOM     21  S   UNL     1       5.462  11.033  26.602  0.00  0.00    +0.000 S 
ATOM     22  C   UNL     1       4.774  12.467  27.385  0.00  0.00    +0.000 C 
ATOM     23  O   UNL     1       4.372  10.299  25.980  0.00  0.00    +0.000 OA
ATOM     24  O   UNL     1       6.342  10.385  27.555  0.00  0.00    +0.000 OA
ENDBRANCH  18  21
ENDBRANCH   1  15
BRANCH   1  25
ATOM     25  C   UNL     1       9.834  12.025  21.436  0.00  0.00    +0.000 C 
BRANCH  25  26
ATOM     26  C   UNL     1       9.178  11.446  20.162  0.00  0.00    +0.000 C 
BRANCH  26  28
ATOM     27  C   UNL     1      10.459  11.871  18.073  0.00  0.00    +0.000 C 
ATOM     28  C   UNL     1      10.124  10.826  19.138  0.00  0.00    +0.000 C 
ENDBRANCH  26  28
ENDBRANCH  25  26
ENDBRANCH   1  25
TORSDOF 7
ENDMDL
MODEL 9
REMARK VINA RESULT:      -6.1      7.122      9.355
REMARK  Name = 
REMARK  9 active torsions:
REMARK  status: ('A' for Active; 'I' for Inactive)
REMARK    1  A    between atoms: C_1  and  C_2
REMARK    2  A    between atoms: C_2  and  C_3
REMARK    3  A    between atoms: C_3  and  C_4
REMARK    4  A    between atoms: C_4  and  C_5
REMARK    5  A    between atoms: C_5  and  C_19
REMARK    6  A    between atoms: C_6  and  C_7
REMARK    7  A    between atoms: C_6  and  C_13
REMARK    8  A    between atoms: C_22  and  S_23
REMARK    9  A    between atoms: S_23  and  C_24
REMARK                            x       y       z     vdW  Elec       q    Type
REMARK                         _______ _______ _______ _____ _____    ______ ____
ROOT
ATOM      1  C   UNL     1      -0.666  13.585  19.585  0.00  0.00    +0.000 C 
ATOM      2  C   UNL     1       0.262  13.015  20.406  0.00  0.00    +0.000 C 
ENDROOT
BRANCH   2   3
ATOM      3  C   UNL     1      -0.058  11.759  21.145  0.00  0.00    +0.000 A 
ATOM      4  C   UNL     1      -0.674  11.844  22.403  0.00  0.00    +0.000 A 
ATOM      5  C   UNL     1      -0.982  10.686  23.120  0.00  0.00    +0.000 A 
ATOM      6  C   UNL     1      -0.679   9.437  22.583  0.00  0.00    +0.000 A 
ATOM      7  C   UNL     1      -0.071   9.343  21.333  0.00  0.00    +0.000 A 
ATOM      8  C   UNL     1       0.237  10.500  20.612  0.00  0.00    +0.000 A 
ENDBRANCH   2   3
BRANCH   2   9
ATOM      9  C   UNL     1       1.616  13.599  20.579  0.00  0.00    +0.000 A 
ATOM     10  C   UNL     1       2.567  13.452  19.559  0.00  0.00    +0.000 A 
ATOM     11  C   UNL     1       3.776  14.153  19.610  0.00  0.00    +0.000 A 
ATOM     12  C   UNL     1       4.045  15.003  20.680  0.00  0.00    +0.000 A 
ATOM     13  C   UNL     1       3.112  15.142  21.708  0.00  0.00    +0.000 A 
ATOM     14  C   UNL     1       1.904  14.441  21.661  0.00  0.00    +0.000 A 
ENDBRANCH   2   9
BRANCH   1  15
ATOM     15  C   UNL     1      -2.050  13.041  19.567  0.00  0.00    +0.000 A 
ATOM     16  C   UNL     1      -2.998  13.537  20.478  0.00  0.00    +0.000 A 
ATOM     17  C   UNL     1      -4.303  13.041  20.482  0.00  0.00    +0.000 A 
ATOM     18  C   UNL     1      -4.661  12.050  19.567  0.00  0.00    +0.000 A 
ATOM     19  C   UNL     1      -3.729  11.546  18.655  0.00  0.00    +0.000 A 
ATOM     20  C   UNL     1      -2.425  12.046  18.654  0.00  0.00    +0.000 A 
BRANCH  18  21
ATOM     21  S   UNL     1      -6.296  11.354  19.631  0.00  0.00    +0.000 S 
ATOM     22  C   UNL     1      -7.323  12.617  18.928  0.00  0.00    +0.000 C 
ATOM     23  O   UNL     1      -6.321  10.209  18.735  0.00  0.00    +0.000 OA
ATOM     24  O   UNL     1      -6.660  11.210  21.026  0.00  0.00    +0.000 OA
ENDBRANCH  18  21
ENDBRANCH   1  15
BRANCH   1  25
ATOM     25  C   UNL     1      -0.418  14.791  18.665  0.00  0.00    +0.000 C 
BRANCH  25  26
ATOM     26  C   UNL     1      -0.574  16.166  19.353  0.00  0.00    +0.000 C 
BRANCH  26  28
ATOM     27  C   UNL     1       1.636  17.101  18.703  0.00  0.00    +0.000 C 
ATOM     28  C   UNL     1       0.127  17.341  18.677  0.00  0.00    +0.000 C 
ENDBRANCH  26  28
ENDBRANCH  25  26
ENDBRANCH   1  25
TORSDOF 7
ENDMDL
