MODEL 1
REMARK VINA RESULT:      -6.8      0.000      0.000
REMARK  Name = 
REMARK  7 active torsions:
REMARK  status: ('A' for Active; 'I' for Inactive)
REMARK    1  A    between atoms: C_1  and  N_2
REMARK    2  A    between atoms: N_2  and  C_3
REMARK    3  A    between atoms: N_2  and  S_4
REMARK    4  A    between atoms: S_4  and  C_7
REMARK    5  A    between atoms: C_10  and  N_11
REMARK    6  A    between atoms: C_16  and  C_17
REMARK    7  A    between atoms: N_22  and  C_23
REMARK                            x       y       z     vdW  Elec       q    Type
REMARK                         _______ _______ _______ _____ _____    ______ ____
ROOT
ATOM      1  C   UNL     1      -2.844  13.099  22.209  0.00  0.00    +0.000 A 
ATOM      2  C   UNL     1      -1.945  13.955  22.817  0.00  0.00    +0.000 A 
ATOM      3  C   UNL     1      -0.699  14.147  22.219  0.00  0.00    +0.000 A 
ATOM      4  C   UNL     1      -0.336  13.572  20.968  0.00  0.00    +0.000 A 
ATOM      5  C   UNL     1      -1.295  12.723  20.356  0.00  0.00    +0.000 A 
ATOM      6  C   UNL     1      -2.498  12.446  21.037  0.00  0.00    +0.000 A 
ENDROOT
BRANCH   5   7
ATOM      7  C   UNL     1      -1.078  11.918  19.112  0.00  0.00    +0.000 C 
ATOM      8  O   UNL     1      -1.272  12.472  18.031  0.00  0.00    +0.000 OA
ATOM      9  N   UNL     1      -0.561  10.611  19.172  0.00  0.00    +0.000 N 
ATOM     10  C   UNL     1      -0.118   9.982  17.922  0.00  0.00    +0.000 C 
ATOM     11  C   UNL     1       1.375   9.607  18.001  0.00  0.00    +0.000 C 
ATOM     12  N   UNL     1       1.623   8.756  19.184  0.00  0.00    +0.000 N 
ATOM     13  C   UNL     1       1.153   9.302  20.470  0.00  0.00    +0.000 C 
ATOM     14  C   UNL     1      -0.340   9.738  20.349  0.00  0.00    +0.000 C 
BRANCH  12  15
ATOM     15  C   UNL     1       2.254   7.532  19.090  0.00  0.00    +0.000 A 
ATOM     16  C   UNL     1       3.066   7.196  17.995  0.00  0.00    +0.000 A 
ATOM     17  C   UNL     1       3.719   5.959  17.911  0.00  0.00    +0.000 A 
ATOM     18  C   UNL     1       3.576   5.023  18.928  0.00  0.00    +0.000 A 
ATOM     19  C   UNL     1       2.779   5.325  20.024  0.00  0.00    +0.000 A 
ATOM     20  C   UNL     1       2.129   6.563  20.098  0.00  0.00    +0.000 A 
ENDBRANCH  12  15
ENDBRANCH   5   7
BRANCH   4  21
ATOM     21  N   UNL     1       0.922  13.934  20.507  0.00  0.00    +0.000 N 
ATOM     22  C   UNL     1       2.128  13.113  20.570  0.00  0.00    +0.000 C 
ATOM     23  C   UNL     1       3.191  14.032  21.163  0.00  0.00    +0.000 C 
ATOM     24  C   UNL     1       2.800  15.398  20.628  0.00  0.00    +0.000 C 
ATOM     25  C   UNL     1       1.275  15.362  20.605  0.00  0.00    +0.000 C 
ENDBRANCH   4  21
BRANCH   1  26
ATOM     26  S   UNL     1      -4.511  12.941  22.819  0.00  0.00    +0.000 S 
ATOM     27  O   UNL     1      -4.410  12.417  24.166  0.00  0.00    +0.000 OA
ATOM     28  O   UNL     1      -5.273  12.252  21.806  0.00  0.00    +0.000 OA
BRANCH  26  30
ATOM     29  C   UNL     1      -5.133  15.295  21.637  0.00  0.00    +0.000 C 
ATOM     30  N   UNL     1      -5.049  14.544  22.903  0.00  0.00    +0.000 NA
ATOM     31  C   UNL     1      -6.171  14.808  23.819  0.00  0.00    +0.000 C 
ENDBRANCH  26  30
ENDBRANCH   1  26
TORSDOF 5
ENDMDL
MODEL 2
REMARK VINA RESULT:      -6.7      0.869      1.397
REMARK  Name = 
REMARK  7 active torsions:
REMARK  status: ('A' for Active; 'I' for Inactive)
REMARK    1  A    between atoms: C_1  and  N_2
REMARK    2  A    between atoms: N_2  and  C_3
REMARK    3  A    between atoms: N_2  and  S_4
REMARK    4  A    between atoms: S_4  and  C_7
REMARK    5  A    between atoms: C_10  and  N_11
REMARK    6  A    between atoms: C_16  and  C_17
REMARK    7  A    between atoms: N_22  and  C_23
REMARK                            x       y       z     vdW  Elec       q    Type
REMARK                         _______ _______ _______ _____ _____    ______ ____
ROOT
ATOM      1  C   UNL     1      -2.128  13.303  22.727  0.00  0.00    +0.000 A 
ATOM      2  C   UNL     1      -1.125  14.159  23.141  0.00  0.00    +0.000 A 
ATOM      3  C   UNL     1       0.011  14.290  22.341  0.00  0.00    +0.000 A 
ATOM      4  C   UNL     1       0.155  13.651  21.077  0.00  0.00    +0.000 A 
ATOM      5  C   UNL     1      -0.908  12.802  20.669  0.00  0.00    +0.000 A 
ATOM      6  C   UNL     1      -1.990  12.590  21.548  0.00  0.00    +0.000 A 
ENDROOT
BRANCH   5   7
ATOM      7  C   UNL     1      -0.911  11.937  19.447  0.00  0.00    +0.000 C 
ATOM      8  O   UNL     1      -1.240  12.455  18.380  0.00  0.00    +0.000 OA
ATOM      9  N   UNL     1      -0.447  10.610  19.493  0.00  0.00    +0.000 N 
ATOM     10  C   UNL     1      -0.221   9.910  18.223  0.00  0.00    +0.000 C 
ATOM     11  C   UNL     1       1.250   9.466  18.101  0.00  0.00    +0.000 C 
ATOM     12  N   UNL     1       1.634   8.653  19.274  0.00  0.00    +0.000 N 
ATOM     13  C   UNL     1       1.384   9.274  20.587  0.00  0.00    +0.000 C 
ATOM     14  C   UNL     1      -0.090   9.777  20.665  0.00  0.00    +0.000 C 
BRANCH  12  15
ATOM     15  C   UNL     1       2.193   7.397  19.148  0.00  0.00    +0.000 A 
ATOM     16  C   UNL     1       2.048   6.416  20.141  0.00  0.00    +0.000 A 
ATOM     17  C   UNL     1       2.602   5.136  20.004  0.00  0.00    +0.000 A 
ATOM     18  C   UNL     1       3.317   4.805  18.859  0.00  0.00    +0.000 A 
ATOM     19  C   UNL     1       3.478   5.753  17.858  0.00  0.00    +0.000 A 
ATOM     20  C   UNL     1       2.923   7.030  18.006  0.00  0.00    +0.000 A 
ENDBRANCH  12  15
ENDBRANCH   5   7
BRANCH   4  21
ATOM     21  N   UNL     1       1.329  13.956  20.403  0.00  0.00    +0.000 N 
ATOM     22  C   UNL     1       2.680  13.868  20.950  0.00  0.00    +0.000 C 
ATOM     23  C   UNL     1       3.323  15.207  20.606  0.00  0.00    +0.000 C 
ATOM     24  C   UNL     1       2.680  15.567  19.278  0.00  0.00    +0.000 C 
ATOM     25  C   UNL     1       1.253  15.039  19.406  0.00  0.00    +0.000 C 
ENDBRANCH   4  21
BRANCH   1  26
ATOM     26  S   UNL     1      -3.678  13.219  23.604  0.00  0.00    +0.000 S 
ATOM     27  O   UNL     1      -3.676  14.315  24.551  0.00  0.00    +0.000 OA
ATOM     28  O   UNL     1      -3.846  11.855  24.042  0.00  0.00    +0.000 OA
BRANCH  26  30
ATOM     29  C   UNL     1      -6.141  12.897  22.530  0.00  0.00    +0.000 C 
ATOM     30  N   UNL     1      -4.824  13.547  22.402  0.00  0.00    +0.000 NA
ATOM     31  C   UNL     1      -4.899  14.942  21.938  0.00  0.00    +0.000 C 
ENDBRANCH  26  30
ENDBRANCH   1  26
TORSDOF 5
ENDMDL
MODEL 3
REMARK VINA RESULT:      -6.7      3.033      3.964
REMARK  Name = 
REMARK  7 active torsions:
REMARK  status: ('A' for Active; 'I' for Inactive)
REMARK    1  A    between atoms: C_1  and  N_2
REMARK    2  A    between atoms: N_2  and  C_3
REMARK    3  A    between atoms: N_2  and  S_4
REMARK    4  A    between atoms: S_4  and  C_7
REMARK    5  A    between atoms: C_10  and  N_11
REMARK    6  A    between atoms: C_16  and  C_17
REMARK    7  A    between atoms: N_22  and  C_23
REMARK                            x       y       z     vdW  Elec       q    Type
REMARK                         _______ _______ _______ _____ _____    ______ ____
ROOT
ATOM      1  C   UNL     1      -2.296  11.219  18.397  0.00  0.00    +0.000 A 
ATOM      2  C   UNL     1      -2.010  12.570  18.449  0.00  0.00    +0.000 A 
ATOM      3  C   UNL     1      -0.905  12.989  19.192  0.00  0.00    +0.000 A 
ATOM      4  C   UNL     1      -0.007  12.088  19.832  0.00  0.00    +0.000 A 
ATOM      5  C   UNL     1      -0.315  10.705  19.733  0.00  0.00    +0.000 A 
ATOM      6  C   UNL     1      -1.502  10.314  19.081  0.00  0.00    +0.000 A 
ENDROOT
BRANCH   5   7
ATOM      7  C   UNL     1       0.414   9.599  20.431  0.00  0.00    +0.000 C 
ATOM      8  O   UNL     1      -0.031   9.214  21.512  0.00  0.00    +0.000 OA
ATOM      9  N   UNL     1       1.499   8.945  19.821  0.00  0.00    +0.000 N 
ATOM     10  C   UNL     1       1.991   7.703  20.430  0.00  0.00    +0.000 C 
ATOM     11  C   UNL     1       1.892   6.533  19.432  0.00  0.00    +0.000 C 
ATOM     12  N   UNL     1       2.601   6.871  18.180  0.00  0.00    +0.000 N 
ATOM     13  C   UNL     1       2.195   8.136  17.542  0.00  0.00    +0.000 C 
ATOM     14  C   UNL     1       2.236   9.295  18.584  0.00  0.00    +0.000 C 
BRANCH  12  15
ATOM     15  C   UNL     1       3.576   6.055  17.643  0.00  0.00    +0.000 A 
ATOM     16  C   UNL     1       3.552   4.661  17.806  0.00  0.00    +0.000 A 
ATOM     17  C   UNL     1       4.534   3.833  17.245  0.00  0.00    +0.000 A 
ATOM     18  C   UNL     1       5.570   4.386  16.502  0.00  0.00    +0.000 A 
ATOM     19  C   UNL     1       5.623   5.760  16.322  0.00  0.00    +0.000 A 
ATOM     20  C   UNL     1       4.638   6.579  16.889  0.00  0.00    +0.000 A 
ENDBRANCH  12  15
ENDBRANCH   5   7
BRANCH   4  21
ATOM     21  N   UNL     1       1.067  12.695  20.468  0.00  0.00    +0.000 N 
ATOM     22  C   UNL     1       0.984  13.694  21.529  0.00  0.00    +0.000 C 
ATOM     23  C   UNL     1       1.917  14.813  21.080  0.00  0.00    +0.000 C 
ATOM     24  C   UNL     1       3.011  14.069  20.334  0.00  0.00    +0.000 C 
ATOM     25  C   UNL     1       2.274  12.920  19.652  0.00  0.00    +0.000 C 
ENDBRANCH   4  21
BRANCH   1  26
ATOM     26  S   UNL     1      -3.581  10.598  17.329  0.00  0.00    +0.000 S 
ATOM     27  O   UNL     1      -3.687   9.177  17.594  0.00  0.00    +0.000 OA
ATOM     28  O   UNL     1      -3.308  11.090  16.001  0.00  0.00    +0.000 OA
BRANCH  26  30
ATOM     29  C   UNL     1      -5.612  12.362  17.040  0.00  0.00    +0.000 C 
ATOM     30  N   UNL     1      -4.975  11.360  17.913  0.00  0.00    +0.000 NA
ATOM     31  C   UNL     1      -5.939  10.502  18.623  0.00  0.00    +0.000 C 
ENDBRANCH  26  30
ENDBRANCH   1  26
TORSDOF 5
ENDMDL
MODEL 4
REMARK VINA RESULT:      -6.6      3.025      4.017
REMARK  Name = 
REMARK  7 active torsions:
REMARK  status: ('A' for Active; 'I' for Inactive)
REMARK    1  A    between atoms: C_1  and  N_2
REMARK    2  A    between atoms: N_2  and  C_3
REMARK    3  A    between atoms: N_2  and  S_4
REMARK    4  A    between atoms: S_4  and  C_7
REMARK    5  A    between atoms: C_10  and  N_11
REMARK    6  A    between atoms: C_16  and  C_17
REMARK    7  A    between atoms: N_22  and  C_23
REMARK                            x       y       z     vdW  Elec       q    Type
REMARK                         _______ _______ _______ _____ _____    ______ ____
ROOT
ATOM      1  C   UNL     1      -2.190  11.143  18.140  0.00  0.00    +0.000 A 
ATOM      2  C   UNL     1      -1.758  12.443  17.959  0.00  0.00    +0.000 A 
ATOM      3  C   UNL     1      -0.524  12.815  18.493  0.00  0.00    +0.000 A 
ATOM      4  C   UNL     1       0.353  11.902  19.145  0.00  0.00    +0.000 A 
ATOM      5  C   UNL     1      -0.110  10.567  19.287  0.00  0.00    +0.000 A 
ATOM      6  C   UNL     1      -1.410  10.243  18.848  0.00  0.00    +0.000 A 
ENDROOT
BRANCH   5   7
ATOM      7  C   UNL     1       0.586   9.480  20.045  0.00  0.00    +0.000 C 
ATOM      8  O   UNL     1       0.098   9.128  21.118  0.00  0.00    +0.000 OA
ATOM      9  N   UNL     1       1.693   8.806  19.499  0.00  0.00    +0.000 N 
ATOM     10  C   UNL     1       2.157   7.581  20.163  0.00  0.00    +0.000 C 
ATOM     11  C   UNL     1       2.094   6.382  19.197  0.00  0.00    +0.000 C 
ATOM     12  N   UNL     1       2.853   6.682  17.965  0.00  0.00    +0.000 N 
ATOM     13  C   UNL     1       2.478   7.929  17.274  0.00  0.00    +0.000 C 
ATOM     14  C   UNL     1       2.481   9.118  18.284  0.00  0.00    +0.000 C 
BRANCH  12  15
ATOM     15  C   UNL     1       3.847   5.849  17.491  0.00  0.00    +0.000 A 
ATOM     16  C   UNL     1       5.067   6.348  17.008  0.00  0.00    +0.000 A 
ATOM     17  C   UNL     1       6.081   5.499  16.543  0.00  0.00    +0.000 A 
ATOM     18  C   UNL     1       5.897   4.122  16.554  0.00  0.00    +0.000 A 
ATOM     19  C   UNL     1       4.702   3.597  17.026  0.00  0.00    +0.000 A 
ATOM     20  C   UNL     1       3.694   4.454  17.485  0.00  0.00    +0.000 A 
ENDBRANCH  12  15
ENDBRANCH   5   7
BRANCH   4  21
ATOM     21  N   UNL     1       1.562  12.449  19.551  0.00  0.00    +0.000 N 
ATOM     22  C   UNL     1       1.801  13.179  20.792  0.00  0.00    +0.000 C 
ATOM     23  C   UNL     1       2.526  14.449  20.360  0.00  0.00    +0.000 C 
ATOM     24  C   UNL     1       3.341  13.989  19.164  0.00  0.00    +0.000 C 
ATOM     25  C   UNL     1       2.447  12.955  18.485  0.00  0.00    +0.000 C 
ENDBRANCH   4  21
BRANCH   1  26
ATOM     26  S   UNL     1      -3.668  10.551  17.338  0.00  0.00    +0.000 S 
ATOM     27  O   UNL     1      -3.827   9.166  17.735  0.00  0.00    +0.000 OA
ATOM     28  O   UNL     1      -3.577  10.922  15.947  0.00  0.00    +0.000 OA
BRANCH  26  30
ATOM     29  C   UNL     1      -4.608  12.054  19.382  0.00  0.00    +0.000 C 
ATOM     30  N   UNL     1      -4.896  11.463  18.062  0.00  0.00    +0.000 NA
ATOM     31  C   UNL     1      -5.657  12.355  17.172  0.00  0.00    +0.000 C 
ENDBRANCH  26  30
ENDBRANCH   1  26
TORSDOF 5
ENDMDL
MODEL 5
REMARK VINA RESULT:      -6.5      2.685      6.144
REMARK  Name = 
REMARK  7 active torsions:
REMARK  status: ('A' for Active; 'I' for Inactive)
REMARK    1  A    between atoms: C_1  and  N_2
REMARK    2  A    between atoms: N_2  and  C_3
REMARK    3  A    between atoms: N_2  and  S_4
REMARK    4  A    between atoms: S_4  and  C_7
REMARK    5  A    between atoms: C_10  and  N_11
REMARK    6  A    between atoms: C_16  and  C_17
REMARK    7  A    between atoms: N_22  and  C_23
REMARK                            x       y       z     vdW  Elec       q    Type
REMARK                         _______ _______ _______ _____ _____    ______ ____
ROOT
ATOM      1  C   UNL     1      -3.608  11.293  18.265  0.00  0.00    +0.000 A 
ATOM      2  C   UNL     1      -3.055  10.217  17.597  0.00  0.00    +0.000 A 
ATOM      3  C   UNL     1      -1.714   9.907  17.829  0.00  0.00    +0.000 A 
ATOM      4  C   UNL     1      -0.907  10.590  18.783  0.00  0.00    +0.000 A 
ATOM      5  C   UNL     1      -1.517  11.671  19.474  0.00  0.00    +0.000 A 
ATOM      6  C   UNL     1      -2.834  12.043  19.135  0.00  0.00    +0.000 A 
ENDROOT
BRANCH   5   7
ATOM      7  C   UNL     1      -0.824  12.602  20.419  0.00  0.00    +0.000 C 
ATOM      8  O   UNL     1      -1.094  12.507  21.616  0.00  0.00    +0.000 OA
ATOM      9  N   UNL     1       0.183  13.477  19.973  0.00  0.00    +0.000 N 
ATOM     10  C   UNL     1       1.005  14.160  20.979  0.00  0.00    +0.000 C 
ATOM     11  C   UNL     1       2.494  13.802  20.797  0.00  0.00    +0.000 C 
ATOM     12  N   UNL     1       2.923  14.100  19.415  0.00  0.00    +0.000 N 
ATOM     13  C   UNL     1       2.107  13.490  18.350  0.00  0.00    +0.000 C 
ATOM     14  C   UNL     1       0.599  13.807  18.589  0.00  0.00    +0.000 C 
BRANCH  12  15
ATOM     15  C   UNL     1       4.018  14.895  19.140  0.00  0.00    +0.000 A 
ATOM     16  C   UNL     1       4.212  16.136  19.768  0.00  0.00    +0.000 A 
ATOM     17  C   UNL     1       5.332  16.933  19.500  0.00  0.00    +0.000 A 
ATOM     18  C   UNL     1       6.293  16.504  18.591  0.00  0.00    +0.000 A 
ATOM     19  C   UNL     1       6.130  15.283  17.953  0.00  0.00    +0.000 A 
ATOM     20  C   UNL     1       5.005  14.494  18.226  0.00  0.00    +0.000 A 
ENDBRANCH  12  15
ENDBRANCH   5   7
BRANCH   4  21
ATOM     21  N   UNL     1       0.382  10.093  18.915  0.00  0.00    +0.000 N 
ATOM     22  C   UNL     1       1.318   9.836  17.825  0.00  0.00    +0.000 C 
ATOM     23  C   UNL     1       1.830   8.423  18.080  0.00  0.00    +0.000 C 
ATOM     24  C   UNL     1       1.831   8.327  19.596  0.00  0.00    +0.000 C 
ATOM     25  C   UNL     1       0.611   9.141  20.017  0.00  0.00    +0.000 C 
ENDBRANCH   4  21
BRANCH   1  26
ATOM     26  S   UNL     1      -5.353  11.639  18.153  0.00  0.00    +0.000 S 
ATOM     27  O   UNL     1      -6.038  10.378  18.354  0.00  0.00    +0.000 OA
ATOM     28  O   UNL     1      -5.558  12.416  16.955  0.00  0.00    +0.000 OA
BRANCH  26  30
ATOM     29  C   UNL     1      -6.124  13.996  19.235  0.00  0.00    +0.000 C 
ATOM     30  N   UNL     1      -5.641  12.628  19.496  0.00  0.00    +0.000 NA
ATOM     31  C   UNL     1      -6.290  11.986  20.651  0.00  0.00    +0.000 C 
ENDBRANCH  26  30
ENDBRANCH   1  26
TORSDOF 5
ENDMDL
MODEL 6
REMARK VINA RESULT:      -6.5      3.189      4.040
REMARK  Name = 
REMARK  7 active torsions:
REMARK  status: ('A' for Active; 'I' for Inactive)
REMARK    1  A    between atoms: C_1  and  N_2
REMARK    2  A    between atoms: N_2  and  C_3
REMARK    3  A    between atoms: N_2  and  S_4
REMARK    4  A    between atoms: S_4  and  C_7
REMARK    5  A    between atoms: C_10  and  N_11
REMARK    6  A    between atoms: C_16  and  C_17
REMARK    7  A    between atoms: N_22  and  C_23
REMARK                            x       y       z     vdW  Elec       q    Type
REMARK                         _______ _______ _______ _____ _____    ______ ____
ROOT
ATOM      1  C   UNL     1      -2.118  11.101  18.153  0.00  0.00    +0.000 A 
ATOM      2  C   UNL     1      -1.661  12.364  17.829  0.00  0.00    +0.000 A 
ATOM      3  C   UNL     1      -0.472  12.810  18.408  0.00  0.00    +0.000 A 
ATOM      4  C   UNL     1       0.339  11.999  19.252  0.00  0.00    +0.000 A 
ATOM      5  C   UNL     1      -0.146  10.696  19.539  0.00  0.00    +0.000 A 
ATOM      6  C   UNL     1      -1.408  10.311  19.042  0.00  0.00    +0.000 A 
ENDROOT
BRANCH   5   7
ATOM      7  C   UNL     1       0.474   9.727  20.498  0.00  0.00    +0.000 C 
ATOM      8  O   UNL     1       0.028   9.692  21.644  0.00  0.00    +0.000 OA
ATOM      9  N   UNL     1       1.453   8.811  20.074  0.00  0.00    +0.000 N 
ATOM     10  C   UNL     1       1.820   7.718  20.983  0.00  0.00    +0.000 C 
ATOM     11  C   UNL     1       1.548   6.350  20.326  0.00  0.00    +0.000 C 
ATOM     12  N   UNL     1       2.244   6.265  19.025  0.00  0.00    +0.000 N 
ATOM     13  C   UNL     1       1.964   7.361  18.081  0.00  0.00    +0.000 C 
ATOM     14  C   UNL     1       2.179   8.737  18.785  0.00  0.00    +0.000 C 
BRANCH  12  15
ATOM     15  C   UNL     1       3.098   5.225  18.714  0.00  0.00    +0.000 A 
ATOM     16  C   UNL     1       3.355   4.180  19.615  0.00  0.00    +0.000 A 
ATOM     17  C   UNL     1       4.209   3.117  19.291  0.00  0.00    +0.000 A 
ATOM     18  C   UNL     1       4.828   3.074  18.047  0.00  0.00    +0.000 A 
ATOM     19  C   UNL     1       4.594   4.092  17.134  0.00  0.00    +0.000 A 
ATOM     20  C   UNL     1       3.741   5.152  17.469  0.00  0.00    +0.000 A 
ENDBRANCH  12  15
ENDBRANCH   5   7
BRANCH   4  21
ATOM     21  N   UNL     1       1.515  12.600  19.677  0.00  0.00    +0.000 N 
ATOM     22  C   UNL     1       1.672  13.437  20.864  0.00  0.00    +0.000 C 
ATOM     23  C   UNL     1       2.403  14.679  20.367  0.00  0.00    +0.000 C 
ATOM     24  C   UNL     1       3.293  14.135  19.263  0.00  0.00    +0.000 C 
ATOM     25  C   UNL     1       2.453  13.032  18.624  0.00  0.00    +0.000 C 
ENDBRANCH   4  21
BRANCH   1  26
ATOM     26  S   UNL     1      -3.530  10.399  17.320  0.00  0.00    +0.000 S 
ATOM     27  O   UNL     1      -3.668   9.044  17.814  0.00  0.00    +0.000 OA
ATOM     28  O   UNL     1      -3.371  10.667  15.912  0.00  0.00    +0.000 OA
BRANCH  26  30
ATOM     29  C   UNL     1      -5.437  12.287  16.975  0.00  0.00    +0.000 C 
ATOM     30  N   UNL     1      -4.824  11.320  17.904  0.00  0.00    +0.000 NA
ATOM     31  C   UNL     1      -5.803  10.610  18.744  0.00  0.00    +0.000 C 
ENDBRANCH  26  30
ENDBRANCH   1  26
TORSDOF 5
ENDMDL
MODEL 7
REMARK VINA RESULT:      -6.4      1.223      1.630
REMARK  Name = 
REMARK  7 active torsions:
REMARK  status: ('A' for Active; 'I' for Inactive)
REMARK    1  A    between atoms: C_1  and  N_2
REMARK    2  A    between atoms: N_2  and  C_3
REMARK    3  A    between atoms: N_2  and  S_4
REMARK    4  A    between atoms: S_4  and  C_7
REMARK    5  A    between atoms: C_10  and  N_11
REMARK    6  A    between atoms: C_16  and  C_17
REMARK    7  A    between atoms: N_22  and  C_23
REMARK                            x       y       z     vdW  Elec       q    Type
REMARK                         _______ _______ _______ _____ _____    ______ ____
ROOT
ATOM      1  C   UNL     1      -2.071  13.959  23.368  0.00  0.00    +0.000 A 
ATOM      2  C   UNL     1      -1.002  14.805  23.593  0.00  0.00    +0.000 A 
ATOM      3  C   UNL     1       0.022  14.852  22.645  0.00  0.00    +0.000 A 
ATOM      4  C   UNL     1      -0.018  14.136  21.416  0.00  0.00    +0.000 A 
ATOM      5  C   UNL     1      -1.146  13.299  21.203  0.00  0.00    +0.000 A 
ATOM      6  C   UNL     1      -2.107  13.174  22.227  0.00  0.00    +0.000 A 
ENDROOT
BRANCH   5   7
ATOM      7  C   UNL     1      -1.332  12.364  20.049  0.00  0.00    +0.000 C 
ATOM      8  O   UNL     1      -1.864  12.810  19.032  0.00  0.00    +0.000 OA
ATOM      9  N   UNL     1      -0.816  11.057  20.081  0.00  0.00    +0.000 N 
ATOM     10  C   UNL     1      -0.792  10.290  18.829  0.00  0.00    +0.000 C 
ATOM     11  C   UNL     1       0.651   9.882  18.470  0.00  0.00    +0.000 C 
ATOM     12  N   UNL     1       1.267   9.150  19.597  0.00  0.00    +0.000 N 
ATOM     13  C   UNL     1       1.228   9.839  20.899  0.00  0.00    +0.000 C 
ATOM     14  C   UNL     1      -0.227  10.303  21.212  0.00  0.00    +0.000 C 
BRANCH  12  15
ATOM     15  C   UNL     1       1.842   7.905  19.439  0.00  0.00    +0.000 A 
ATOM     16  C   UNL     1       2.604   7.577  18.307  0.00  0.00    +0.000 A 
ATOM     17  C   UNL     1       3.201   6.318  18.156  0.00  0.00    +0.000 A 
ATOM     18  C   UNL     1       3.049   5.351  19.144  0.00  0.00    +0.000 A 
ATOM     19  C   UNL     1       2.301   5.644  20.275  0.00  0.00    +0.000 A 
ATOM     20  C   UNL     1       1.706   6.905  20.414  0.00  0.00    +0.000 A 
ENDBRANCH  12  15
ENDBRANCH   5   7
BRANCH   4  21
ATOM     21  N   UNL     1       1.063  14.363  20.576  0.00  0.00    +0.000 N 
ATOM     22  C   UNL     1       1.013  15.005  19.266  0.00  0.00    +0.000 C 
ATOM     23  C   UNL     1       1.787  14.067  18.347  0.00  0.00    +0.000 C 
ATOM     24  C   UNL     1       2.850  13.488  19.263  0.00  0.00    +0.000 C 
ATOM     25  C   UNL     1       2.146  13.362  20.611  0.00  0.00    +0.000 C 
ENDBRANCH   4  21
BRANCH   1  26
ATOM     26  S   UNL     1      -3.492  13.976  24.443  0.00  0.00    +0.000 S 
ATOM     27  O   UNL     1      -3.108  14.724  25.624  0.00  0.00    +0.000 OA
ATOM     28  O   UNL     1      -3.968  12.618  24.544  0.00  0.00    +0.000 OA
BRANCH  26  30
ATOM     29  C   UNL     1      -6.040  14.485  23.689  0.00  0.00    +0.000 C 
ATOM     30  N   UNL     1      -4.626  14.885  23.576  0.00  0.00    +0.000 NA
ATOM     31  C   UNL     1      -4.426  16.344  23.571  0.00  0.00    +0.000 C 
ENDBRANCH  26  30
ENDBRANCH   1  26
TORSDOF 5
ENDMDL
MODEL 8
REMARK VINA RESULT:      -6.4      0.879      1.258
REMARK  Name = 
REMARK  7 active torsions:
REMARK  status: ('A' for Active; 'I' for Inactive)
REMARK    1  A    between atoms: C_1  and  N_2
REMARK    2  A    between atoms: N_2  and  C_3
REMARK    3  A    between atoms: N_2  and  S_4
REMARK    4  A    between atoms: S_4  and  C_7
REMARK    5  A    between atoms: C_10  and  N_11
REMARK    6  A    between atoms: C_16  and  C_17
REMARK    7  A    between atoms: N_22  and  C_23
REMARK                            x       y       z     vdW  Elec       q    Type
REMARK                         _______ _______ _______ _____ _____    ______ ____
ROOT
ATOM      1  C   UNL     1      -3.159  13.465  21.822  0.00  0.00    +0.000 A 
ATOM      2  C   UNL     1      -2.197  14.343  22.286  0.00  0.00    +0.000 A 
ATOM      3  C   UNL     1      -0.962  14.382  21.636  0.00  0.00    +0.000 A 
ATOM      4  C   UNL     1      -0.670  13.624  20.467  0.00  0.00    +0.000 A 
ATOM      5  C   UNL     1      -1.692  12.755  20.000  0.00  0.00    +0.000 A 
ATOM      6  C   UNL     1      -2.885  12.642  20.743  0.00  0.00    +0.000 A 
ENDROOT
BRANCH   5   7
ATOM      7  C   UNL     1      -1.558  11.778  18.874  0.00  0.00    +0.000 C 
ATOM      8  O   UNL     1      -1.957  12.127  17.763  0.00  0.00    +0.000 OA
ATOM      9  N   UNL     1      -0.896  10.550  19.051  0.00  0.00    +0.000 N 
ATOM     10  C   UNL     1      -0.560   9.765  17.856  0.00  0.00    +0.000 C 
ATOM     11  C   UNL     1       0.962   9.540  17.765  0.00  0.00    +0.000 C 
ATOM     12  N   UNL     1       1.461   8.921  19.010  0.00  0.00    +0.000 N 
ATOM     13  C   UNL     1       1.112   9.628  20.255  0.00  0.00    +0.000 C 
ATOM     14  C   UNL     1      -0.422   9.906  20.298  0.00  0.00    +0.000 C 
BRANCH  12  15
ATOM     15  C   UNL     1       2.205   7.759  19.007  0.00  0.00    +0.000 A 
ATOM     16  C   UNL     1       2.055   6.777  20.000  0.00  0.00    +0.000 A 
ATOM     17  C   UNL     1       2.800   5.590  19.986  0.00  0.00    +0.000 A 
ATOM     18  C   UNL     1       3.718   5.355  18.969  0.00  0.00    +0.000 A 
ATOM     19  C   UNL     1       3.890   6.306  17.973  0.00  0.00    +0.000 A 
ATOM     20  C   UNL     1       3.143   7.490  17.997  0.00  0.00    +0.000 A 
ENDBRANCH  12  15
ENDBRANCH   5   7
BRANCH   4  21
ATOM     21  N   UNL     1       0.590  13.848  19.930  0.00  0.00    +0.000 N 
ATOM     22  C   UNL     1       1.863  13.640  20.614  0.00  0.00    +0.000 C 
ATOM     23  C   UNL     1       2.642  14.929  20.379  0.00  0.00    +0.000 C 
ATOM     24  C   UNL     1       2.176  15.367  19.002  0.00  0.00    +0.000 C 
ATOM     25  C   UNL     1       0.707  14.954  18.963  0.00  0.00    +0.000 C 
ENDBRANCH   4  21
BRANCH   1  26
ATOM     26  S   UNL     1      -4.812  13.486  22.489  0.00  0.00    +0.000 S 
ATOM     27  O   UNL     1      -4.704  13.991  23.843  0.00  0.00    +0.000 OA
ATOM     28  O   UNL     1      -5.398  12.196  22.218  0.00  0.00    +0.000 OA
BRANCH  26  30
ATOM     29  C   UNL     1      -6.136  14.207  20.242  0.00  0.00    +0.000 C 
ATOM     30  N   UNL     1      -5.599  14.648  21.543  0.00  0.00    +0.000 NA
ATOM     31  C   UNL     1      -6.484  15.581  22.259  0.00  0.00    +0.000 C 
ENDBRANCH  26  30
ENDBRANCH   1  26
TORSDOF 5
ENDMDL
MODEL 9
REMARK VINA RESULT:      -6.4      6.674      9.695
REMARK  Name = 
REMARK  7 active torsions:
REMARK  status: ('A' for Active; 'I' for Inactive)
REMARK    1  A    between atoms: C_1  and  N_2
REMARK    2  A    between atoms: N_2  and  C_3
REMARK    3  A    between atoms: N_2  and  S_4
REMARK    4  A    between atoms: S_4  and  C_7
REMARK    5  A    between atoms: C_10  and  N_11
REMARK    6  A    between atoms: C_16  and  C_17
REMARK    7  A    between atoms: N_22  and  C_23
REMARK                            x       y       z     vdW  Elec       q    Type
REMARK                         _______ _______ _______ _____ _____    ______ ____
ROOT
ATOM      1  C   UNL     1       5.967  15.265  18.746  0.00  0.00    +0.000 A 
ATOM      2  C   UNL     1       6.500  14.570  17.677  0.00  0.00    +0.000 A 
ATOM      3  C   UNL     1       7.717  13.909  17.852  0.00  0.00    +0.000 A 
ATOM      4  C   UNL     1       8.398  13.844  19.100  0.00  0.00    +0.000 A 
ATOM      5  C   UNL     1       7.808  14.544  20.185  0.00  0.00    +0.000 A 
ATOM      6  C   UNL     1       6.643  15.305  19.955  0.00  0.00    +0.000 A 
ENDROOT
BRANCH   5   7
ATOM      7  C   UNL     1       8.413  14.717  21.544  0.00  0.00    +0.000 C 
ATOM      8  O   UNL     1       9.038  15.753  21.764  0.00  0.00    +0.000 OA
ATOM      9  N   UNL     1       8.180  13.782  22.568  0.00  0.00    +0.000 N 
ATOM     10  C   UNL     1       8.569  14.141  23.937  0.00  0.00    +0.000 C 
ATOM     11  C   UNL     1       7.344  14.117  24.873  0.00  0.00    +0.000 C 
ATOM     12  N   UNL     1       6.674  12.802  24.800  0.00  0.00    +0.000 N 
ATOM     13  C   UNL     1       6.304  12.352  23.446  0.00  0.00    +0.000 C 
ATOM     14  C   UNL     1       7.539  12.448  22.498  0.00  0.00    +0.000 C 
BRANCH  12  15
ATOM     15  C   UNL     1       6.410  12.047  25.925  0.00  0.00    +0.000 A 
ATOM     16  C   UNL     1       5.385  11.088  25.953  0.00  0.00    +0.000 A 
ATOM     17  C   UNL     1       5.130  10.310  27.090  0.00  0.00    +0.000 A 
ATOM     18  C   UNL     1       5.902  10.474  28.235  0.00  0.00    +0.000 A 
ATOM     19  C   UNL     1       6.923  11.414  28.239  0.00  0.00    +0.000 A 
ATOM     20  C   UNL     1       7.168  12.188  27.098  0.00  0.00    +0.000 A 
ENDBRANCH  12  15
ENDBRANCH   5   7
BRANCH   4  21
ATOM     21  N   UNL     1       9.561  13.086  19.087  0.00  0.00    +0.000 N 
ATOM     22  C   UNL     1       9.739  11.777  19.708  0.00  0.00    +0.000 C 
ATOM     23  C   UNL     1      11.030  11.901  20.509  0.00  0.00    +0.000 C 
ATOM     24  C   UNL     1      11.861  12.861  19.676  0.00  0.00    +0.000 C 
ATOM     25  C   UNL     1      10.833  13.831  19.099  0.00  0.00    +0.000 C 
ENDBRANCH   4  21
BRANCH   1  26
ATOM     26  S   UNL     1       4.338  15.983  18.650  0.00  0.00    +0.000 S 
ATOM     27  O   UNL     1       3.783  15.575  17.374  0.00  0.00    +0.000 OA
ATOM     28  O   UNL     1       4.465  17.377  18.997  0.00  0.00    +0.000 OA
BRANCH  26  30
ATOM     29  C   UNL     1       2.574  16.007  20.701  0.00  0.00    +0.000 C 
ATOM     30  N   UNL     1       3.491  15.192  19.883  0.00  0.00    +0.000 NA
ATOM     31  C   UNL     1       2.960  13.858  19.558  0.00  0.00    +0.000 C 
ENDBRANCH  26  30
ENDBRANCH   1  26
TORSDOF 5
ENDMDL
