MODEL 1
REMARK VINA RESULT:      -8.6      0.000      0.000
REMARK  Name = 
REMARK  6 active torsions:
REMARK  status: ('A' for Active; 'I' for Inactive)
REMARK    1  A    between atoms: C_1  and  O_2
REMARK    2  A    between atoms: O_2  and  C_3
REMARK    3  A    between atoms: C_7  and  O_8
REMARK    4  A    between atoms: O_8  and  C_9
REMARK    5  A    between atoms: C_14  and  O_15
REMARK    6  A    between atoms: O_15  and  C_16
REMARK                            x       y       z     vdW  Elec       q    Type
REMARK                         _______ _______ _______ _____ _____    ______ ____
ROOT
ATOM      1  C   UNL     1      -0.025  10.349  19.969  0.00  0.00    +0.000 A 
ATOM      2  C   UNL     1      -0.148   9.338  20.842  0.00  0.00    +0.000 A 
ATOM      3  O   UNL     1       0.760   8.315  21.036  0.00  0.00    +0.000 OA
ATOM      4  C   UNL     1       1.613   8.047  19.991  0.00  0.00    +0.000 A 
ATOM      5  C   UNL     1       2.317   6.839  19.997  0.00  0.00    +0.000 A 
ATOM      6  C   UNL     1       3.035   6.456  18.857  0.00  0.00    +0.000 A 
ATOM      7  C   UNL     1       3.031   7.268  17.721  0.00  0.00    +0.000 A 
ATOM      8  C   UNL     1       2.411   8.524  17.763  0.00  0.00    +0.000 A 
ATOM      9  C   UNL     1       1.737   8.924  18.916  0.00  0.00    +0.000 A 
ATOM     10  C   UNL     1       1.122  10.263  19.027  0.00  0.00    +0.000 A 
ATOM     11  O   UNL     1       1.544  11.203  18.367  0.00  0.00    +0.000 OA
ENDROOT
BRANCH   1  12
ATOM     12  O   UNL     1      -1.031  11.294  19.828  0.00  0.00    +0.000 OA
BRANCH  12  17
ATOM     13  C   UNL     1      -2.985  10.242  16.858  0.00  0.00    +0.000 A 
ATOM     14  C   UNL     1      -4.123  11.030  17.057  0.00  0.00    +0.000 A 
ATOM     15  C   UNL     1      -4.223  11.861  18.171  0.00  0.00    +0.000 A 
ATOM     16  C   UNL     1      -3.184  11.905  19.096  0.00  0.00    +0.000 A 
ATOM     17  C   UNL     1      -2.048  11.106  18.918  0.00  0.00    +0.000 A 
ATOM     18  C   UNL     1      -1.944  10.280  17.792  0.00  0.00    +0.000 A 
BRANCH  13  20
ATOM     19  C   UNL     1      -3.216  10.218  14.489  0.00  0.00    +0.000 C 
ATOM     20  O   UNL     1      -3.012   9.509  15.702  0.00  0.00    +0.000 OA
ENDBRANCH  13  20
ENDBRANCH  12  17
ENDBRANCH   1  12
BRANCH   6  21
ATOM     21  O   UNL     1       3.757   5.232  18.969  0.00  0.00    +0.000 OA
BRANCH  21  22
ATOM     22  C   UNL     1       4.258   4.445  17.913  0.00  0.00    +0.000 C 
ATOM     23  O   UNL     1       3.611   3.571  17.350  0.00  0.00    +0.000 OA
ATOM     24  N   UNL     1       5.552   4.764  17.558  0.00  0.00    +0.000 N 
ATOM     25  C   UNL     1       6.380   5.805  18.165  0.00  0.00    +0.000 C 
ATOM     26  C   UNL     1       6.970   6.723  17.083  0.00  0.00    +0.000 C 
ATOM     27  O   UNL     1       7.656   5.970  16.069  0.00  0.00    +0.000 OA
ATOM     28  C   UNL     1       6.768   5.030  15.439  0.00  0.00    +0.000 C 
ATOM     29  C   UNL     1       6.215   4.039  16.466  0.00  0.00    +0.000 C 
ENDBRANCH  21  22
ENDBRANCH   6  21
TORSDOF 5
ENDMDL
MODEL 2
REMARK VINA RESULT:      -8.4      0.995      1.099
REMARK  Name = 
REMARK  6 active torsions:
REMARK  status: ('A' for Active; 'I' for Inactive)
REMARK    1  A    between atoms: C_1  and  O_2
REMARK    2  A    between atoms: O_2  and  C_3
REMARK    3  A    between atoms: C_7  and  O_8
REMARK    4  A    between atoms: O_8  and  C_9
REMARK    5  A    between atoms: C_14  and  O_15
REMARK    6  A    between atoms: O_15  and  C_16
REMARK                            x       y       z     vdW  Elec       q    Type
REMARK                         _______ _______ _______ _____ _____    ______ ____
ROOT
ATOM      1  C   UNL     1      -0.367  11.313  19.957  0.00  0.00    +0.000 A 
ATOM      2  C   UNL     1      -0.565  10.317  20.833  0.00  0.00    +0.000 A 
ATOM      3  O   UNL     1       0.294   9.262  21.074  0.00  0.00    +0.000 OA
ATOM      4  C   UNL     1       1.179   8.950  20.069  0.00  0.00    +0.000 A 
ATOM      5  C   UNL     1       1.835   7.716  20.115  0.00  0.00    +0.000 A 
ATOM      6  C   UNL     1       2.584   7.294  19.010  0.00  0.00    +0.000 A 
ATOM      7  C   UNL     1       2.659   8.093  17.867  0.00  0.00    +0.000 A 
ATOM      8  C   UNL     1       2.087   9.372  17.871  0.00  0.00    +0.000 A 
ATOM      9  C   UNL     1       1.381   9.810  18.991  0.00  0.00    +0.000 A 
ATOM     10  C   UNL     1       0.814  11.172  19.064  0.00  0.00    +0.000 A 
ATOM     11  O   UNL     1       1.299  12.089  18.414  0.00  0.00    +0.000 OA
ENDROOT
BRANCH   1  12
ATOM     12  O   UNL     1      -1.329  12.294  19.765  0.00  0.00    +0.000 OA
BRANCH  12  17
ATOM     13  C   UNL     1      -3.852  11.289  17.241  0.00  0.00    +0.000 A 
ATOM     14  C   UNL     1      -5.008  11.687  17.921  0.00  0.00    +0.000 A 
ATOM     15  C   UNL     1      -4.924  12.248  19.194  0.00  0.00    +0.000 A 
ATOM     16  C   UNL     1      -3.680  12.411  19.797  0.00  0.00    +0.000 A 
ATOM     17  C   UNL     1      -2.517  11.998  19.134  0.00  0.00    +0.000 A 
ATOM     18  C   UNL     1      -2.602  11.445  17.851  0.00  0.00    +0.000 A 
BRANCH  13  20
ATOM     19  C   UNL     1      -2.960  10.601  15.144  0.00  0.00    +0.000 C 
ATOM     20  O   UNL     1      -4.087  10.794  15.987  0.00  0.00    +0.000 OA
ENDBRANCH  13  20
ENDBRANCH  12  17
ENDBRANCH   1  12
BRANCH   6  21
ATOM     21  O   UNL     1       3.253   6.044  19.163  0.00  0.00    +0.000 OA
BRANCH  21  22
ATOM     22  C   UNL     1       3.526   5.100  18.153  0.00  0.00    +0.000 C 
ATOM     23  O   UNL     1       2.664   4.584  17.453  0.00  0.00    +0.000 OA
ATOM     24  N   UNL     1       4.869   4.819  18.013  0.00  0.00    +0.000 N 
ATOM     25  C   UNL     1       5.958   5.408  18.794  0.00  0.00    +0.000 C 
ATOM     26  C   UNL     1       7.049   5.960  17.864  0.00  0.00    +0.000 C 
ATOM     27  O   UNL     1       7.494   4.968  16.925  0.00  0.00    +0.000 OA
ATOM     28  C   UNL     1       6.401   4.496  16.119  0.00  0.00    +0.000 C 
ATOM     29  C   UNL     1       5.319   3.861  16.996  0.00  0.00    +0.000 C 
ENDBRANCH  21  22
ENDBRANCH   6  21
TORSDOF 5
ENDMDL
MODEL 3
REMARK VINA RESULT:      -8.4      1.938      2.868
REMARK  Name = 
REMARK  6 active torsions:
REMARK  status: ('A' for Active; 'I' for Inactive)
REMARK    1  A    between atoms: C_1  and  O_2
REMARK    2  A    between atoms: O_2  and  C_3
REMARK    3  A    between atoms: C_7  and  O_8
REMARK    4  A    between atoms: O_8  and  C_9
REMARK    5  A    between atoms: C_14  and  O_15
REMARK    6  A    between atoms: O_15  and  C_16
REMARK                            x       y       z     vdW  Elec       q    Type
REMARK                         _______ _______ _______ _____ _____    ______ ____
ROOT
ATOM      1  C   UNL     1      -0.630  11.377  19.980  0.00  0.00    +0.000 A 
ATOM      2  C   UNL     1      -0.761  10.358  20.841  0.00  0.00    +0.000 A 
ATOM      3  O   UNL     1       0.161   9.352  21.058  0.00  0.00    +0.000 OA
ATOM      4  C   UNL     1       1.054   9.109  20.041  0.00  0.00    +0.000 A 
ATOM      5  C   UNL     1       1.782   7.916  20.062  0.00  0.00    +0.000 A 
ATOM      6  C   UNL     1       2.545   7.556  18.944  0.00  0.00    +0.000 A 
ATOM      7  C   UNL     1       2.563   8.376  17.814  0.00  0.00    +0.000 A 
ATOM      8  C   UNL     1       1.916   9.618  17.843  0.00  0.00    +0.000 A 
ATOM      9  C   UNL     1       1.195   9.996  18.976  0.00  0.00    +0.000 A 
ATOM     10  C   UNL     1       0.550  11.321  19.075  0.00  0.00    +0.000 A 
ATOM     11  O   UNL     1       0.974  12.275  18.437  0.00  0.00    +0.000 OA
ENDROOT
BRANCH   1  12
ATOM     12  O   UNL     1      -1.649  12.303  19.811  0.00  0.00    +0.000 OA
BRANCH  12  17
ATOM     13  C   UNL     1      -3.842  11.388  16.965  0.00  0.00    +0.000 A 
ATOM     14  C   UNL     1      -5.082  11.671  17.547  0.00  0.00    +0.000 A 
ATOM     15  C   UNL     1      -5.160  12.128  18.861  0.00  0.00    +0.000 A 
ATOM     16  C   UNL     1      -3.994  12.302  19.603  0.00  0.00    +0.000 A 
ATOM     17  C   UNL     1      -2.749  12.002  19.038  0.00  0.00    +0.000 A 
ATOM     18  C   UNL     1      -2.672  11.554  17.713  0.00  0.00    +0.000 A 
BRANCH  13  20
ATOM     19  C   UNL     1      -2.859  10.185  15.161  0.00  0.00    +0.000 C 
ATOM     20  O   UNL     1      -3.920  10.988  15.658  0.00  0.00    +0.000 OA
ENDBRANCH  13  20
ENDBRANCH  12  17
ENDBRANCH   1  12
BRANCH   6  21
ATOM     21  O   UNL     1       3.289   6.346  19.072  0.00  0.00    +0.000 OA
BRANCH  21  22
ATOM     22  C   UNL     1       3.413   5.323  18.111  0.00  0.00    +0.000 C 
ATOM     23  O   UNL     1       4.208   5.356  17.180  0.00  0.00    +0.000 OA
ATOM     24  N   UNL     1       2.560   4.261  18.327  0.00  0.00    +0.000 N 
ATOM     25  C   UNL     1       1.600   4.137  19.425  0.00  0.00    +0.000 C 
ATOM     26  C   UNL     1       1.772   2.788  20.140  0.00  0.00    +0.000 C 
ATOM     27  O   UNL     1       1.722   1.690  19.214  0.00  0.00    +0.000 OA
ATOM     28  C   UNL     1       2.750   1.813  18.215  0.00  0.00    +0.000 C 
ATOM     29  C   UNL     1       2.574   3.108  17.418  0.00  0.00    +0.000 C 
ENDBRANCH  21  22
ENDBRANCH   6  21
TORSDOF 5
ENDMDL
MODEL 4
REMARK VINA RESULT:      -8.1      3.324      9.311
REMARK  Name = 
REMARK  6 active torsions:
REMARK  status: ('A' for Active; 'I' for Inactive)
REMARK    1  A    between atoms: C_1  and  O_2
REMARK    2  A    between atoms: O_2  and  C_3
REMARK    3  A    between atoms: C_7  and  O_8
REMARK    4  A    between atoms: O_8  and  C_9
REMARK    5  A    between atoms: C_14  and  O_15
REMARK    6  A    between atoms: O_15  and  C_16
REMARK                            x       y       z     vdW  Elec       q    Type
REMARK                         _______ _______ _______ _____ _____    ______ ____
ROOT
ATOM      1  C   UNL     1       5.978   5.167  16.671  0.00  0.00    +0.000 A 
ATOM      2  C   UNL     1       5.295   6.144  16.057  0.00  0.00    +0.000 A 
ATOM      3  O   UNL     1       4.472   7.070  16.668  0.00  0.00    +0.000 OA
ATOM      4  C   UNL     1       3.958   6.719  17.893  0.00  0.00    +0.000 A 
ATOM      5  C   UNL     1       2.882   7.453  18.402  0.00  0.00    +0.000 A 
ATOM      6  C   UNL     1       2.216   6.995  19.546  0.00  0.00    +0.000 A 
ATOM      7  C   UNL     1       2.616   5.807  20.161  0.00  0.00    +0.000 A 
ATOM      8  C   UNL     1       3.759   5.137  19.707  0.00  0.00    +0.000 A 
ATOM      9  C   UNL     1       4.449   5.621  18.596  0.00  0.00    +0.000 A 
ATOM     10  C   UNL     1       5.694   4.982  18.120  0.00  0.00    +0.000 A 
ATOM     11  O   UNL     1       6.405   4.346  18.885  0.00  0.00    +0.000 OA
ENDROOT
BRANCH   1  12
ATOM     12  O   UNL     1       6.736   4.262  15.944  0.00  0.00    +0.000 OA
BRANCH  12  17
ATOM     13  C   UNL     1       6.037   3.382  12.411  0.00  0.00    +0.000 A 
ATOM     14  C   UNL     1       6.936   4.253  11.788  0.00  0.00    +0.000 A 
ATOM     15  C   UNL     1       7.723   5.119  12.546  0.00  0.00    +0.000 A 
ATOM     16  C   UNL     1       7.612   5.119  13.933  0.00  0.00    +0.000 A 
ATOM     17  C   UNL     1       6.701   4.264  14.567  0.00  0.00    +0.000 A 
ATOM     18  C   UNL     1       5.919   3.387  13.805  0.00  0.00    +0.000 A 
BRANCH  13  20
ATOM     19  C   UNL     1       5.946   1.303  11.254  0.00  0.00    +0.000 C 
ATOM     20  O   UNL     1       5.363   2.565  11.543  0.00  0.00    +0.000 OA
ENDBRANCH  13  20
ENDBRANCH  12  17
ENDBRANCH   1  12
BRANCH   6  21
ATOM     21  O   UNL     1       1.161   7.830  20.018  0.00  0.00    +0.000 OA
BRANCH  21  22
ATOM     22  C   UNL     1       1.043   9.223  19.847  0.00  0.00    +0.000 C 
ATOM     23  O   UNL     1       1.056   9.779  18.756  0.00  0.00    +0.000 OA
ATOM     24  N   UNL     1       0.891   9.910  21.034  0.00  0.00    +0.000 N 
ATOM     25  C   UNL     1       0.844   9.319  22.371  0.00  0.00    +0.000 C 
ATOM     26  C   UNL     1      -0.389   9.820  23.138  0.00  0.00    +0.000 C 
ATOM     27  O   UNL     1      -0.456  11.255  23.148  0.00  0.00    +0.000 OA
ATOM     28  C   UNL     1      -0.506  11.777  21.809  0.00  0.00    +0.000 C 
ATOM     29  C   UNL     1       0.745  11.371  21.026  0.00  0.00    +0.000 C 
ENDBRANCH  21  22
ENDBRANCH   6  21
TORSDOF 5
ENDMDL
MODEL 5
REMARK VINA RESULT:      -8.1      1.301      1.789
REMARK  Name = 
REMARK  6 active torsions:
REMARK  status: ('A' for Active; 'I' for Inactive)
REMARK    1  A    between atoms: C_1  and  O_2
REMARK    2  A    between atoms: O_2  and  C_3
REMARK    3  A    between atoms: C_7  and  O_8
REMARK    4  A    between atoms: O_8  and  C_9
REMARK    5  A    between atoms: C_14  and  O_15
REMARK    6  A    between atoms: O_15  and  C_16
REMARK                            x       y       z     vdW  Elec       q    Type
REMARK                         _______ _______ _______ _____ _____    ______ ____
ROOT
ATOM      1  C   UNL     1      -0.119  11.199  19.909  0.00  0.00    +0.000 A 
ATOM      2  C   UNL     1      -0.367  10.205  20.775  0.00  0.00    +0.000 A 
ATOM      3  O   UNL     1       0.437   9.106  21.006  0.00  0.00    +0.000 OA
ATOM      4  C   UNL     1       1.306   8.761  19.998  0.00  0.00    +0.000 A 
ATOM      5  C   UNL     1       1.900   7.495  20.033  0.00  0.00    +0.000 A 
ATOM      6  C   UNL     1       2.628   7.046  18.924  0.00  0.00    +0.000 A 
ATOM      7  C   UNL     1       2.744   7.852  17.789  0.00  0.00    +0.000 A 
ATOM      8  C   UNL     1       2.237   9.158  17.806  0.00  0.00    +0.000 A 
ATOM      9  C   UNL     1       1.553   9.619  18.929  0.00  0.00    +0.000 A 
ATOM     10  C   UNL     1       1.055  11.008  19.015  0.00  0.00    +0.000 A 
ATOM     11  O   UNL     1       1.586  11.906  18.375  0.00  0.00    +0.000 OA
ENDROOT
BRANCH   1  12
ATOM     12  O   UNL     1      -1.030  12.229  19.726  0.00  0.00    +0.000 OA
BRANCH  12  17
ATOM     13  C   UNL     1      -4.585  11.837  18.748  0.00  0.00    +0.000 A 
ATOM     14  C   UNL     1      -4.400  11.338  17.455  0.00  0.00    +0.000 A 
ATOM     15  C   UNL     1      -3.117  11.170  16.937  0.00  0.00    +0.000 A 
ATOM     16  C   UNL     1      -2.010  11.505  17.711  0.00  0.00    +0.000 A 
ATOM     17  C   UNL     1      -2.183  12.025  19.000  0.00  0.00    +0.000 A 
ATOM     18  C   UNL     1      -3.472  12.182  19.523  0.00  0.00    +0.000 A 
BRANCH  13  20
ATOM     19  C   UNL     1      -6.826  11.101  18.429  0.00  0.00    +0.000 C 
ATOM     20  O   UNL     1      -5.896  11.909  19.135  0.00  0.00    +0.000 OA
ENDBRANCH  13  20
ENDBRANCH  12  17
ENDBRANCH   1  12
BRANCH   6  21
ATOM     21  O   UNL     1       3.234   5.764  19.065  0.00  0.00    +0.000 OA
BRANCH  21  22
ATOM     22  C   UNL     1       3.610   4.886  18.029  0.00  0.00    +0.000 C 
ATOM     23  O   UNL     1       2.814   4.230  17.370  0.00  0.00    +0.000 OA
ATOM     24  N   UNL     1       4.972   4.846  17.812  0.00  0.00    +0.000 N 
ATOM     25  C   UNL     1       5.983   5.614  18.539  0.00  0.00    +0.000 C 
ATOM     26  C   UNL     1       6.906   6.353  17.559  0.00  0.00    +0.000 C 
ATOM     27  O   UNL     1       7.464   5.458  16.584  0.00  0.00    +0.000 OA
ATOM     28  C   UNL     1       6.427   4.805  15.832  0.00  0.00    +0.000 C 
ATOM     29  C   UNL     1       5.525   3.986  16.759  0.00  0.00    +0.000 C 
ENDBRANCH  21  22
ENDBRANCH   6  21
TORSDOF 5
ENDMDL
MODEL 6
REMARK VINA RESULT:      -8.0      2.993      4.576
REMARK  Name = 
REMARK  6 active torsions:
REMARK  status: ('A' for Active; 'I' for Inactive)
REMARK    1  A    between atoms: C_1  and  O_2
REMARK    2  A    between atoms: O_2  and  C_3
REMARK    3  A    between atoms: C_7  and  O_8
REMARK    4  A    between atoms: O_8  and  C_9
REMARK    5  A    between atoms: C_14  and  O_15
REMARK    6  A    between atoms: O_15  and  C_16
REMARK                            x       y       z     vdW  Elec       q    Type
REMARK                         _______ _______ _______ _____ _____    ______ ____
ROOT
ATOM      1  C   UNL     1       0.260  11.075  21.067  0.00  0.00    +0.000 A 
ATOM      2  C   UNL     1       0.799  11.449  19.897  0.00  0.00    +0.000 A 
ATOM      3  O   UNL     1       1.164  10.609  18.863  0.00  0.00    +0.000 OA
ATOM      4  C   UNL     1       1.419   9.300  19.198  0.00  0.00    +0.000 A 
ATOM      5  C   UNL     1       2.096   8.494  18.278  0.00  0.00    +0.000 A 
ATOM      6  C   UNL     1       2.540   7.225  18.671  0.00  0.00    +0.000 A 
ATOM      7  C   UNL     1       2.320   6.779  19.976  0.00  0.00    +0.000 A 
ATOM      8  C   UNL     1       1.549   7.549  20.856  0.00  0.00    +0.000 A 
ATOM      9  C   UNL     1       1.068   8.792  20.447  0.00  0.00    +0.000 A 
ATOM     10  C   UNL     1       0.200   9.610  21.320  0.00  0.00    +0.000 A 
ATOM     11  O   UNL     1      -0.492   9.088  22.183  0.00  0.00    +0.000 OA
ENDROOT
BRANCH   1  12
ATOM     12  O   UNL     1      -0.020  12.009  22.053  0.00  0.00    +0.000 OA
BRANCH  12  17
ATOM     13  C   UNL     1      -3.571  12.712  22.853  0.00  0.00    +0.000 A 
ATOM     14  C   UNL     1      -3.784  13.779  21.974  0.00  0.00    +0.000 A 
ATOM     15  C   UNL     1      -2.749  14.249  21.167  0.00  0.00    +0.000 A 
ATOM     16  C   UNL     1      -1.492  13.655  21.238  0.00  0.00    +0.000 A 
ATOM     17  C   UNL     1      -1.262  12.599  22.129  0.00  0.00    +0.000 A 
ATOM     18  C   UNL     1      -2.306  12.120  22.930  0.00  0.00    +0.000 A 
BRANCH  13  20
ATOM     19  C   UNL     1      -4.613  12.376  24.967  0.00  0.00    +0.000 C 
ATOM     20  O   UNL     1      -4.688  12.335  23.549  0.00  0.00    +0.000 OA
ENDBRANCH  13  20
ENDBRANCH  12  17
ENDBRANCH   1  12
BRANCH   6  21
ATOM     21  O   UNL     1       3.181   6.458  17.655  0.00  0.00    +0.000 OA
BRANCH  21  22
ATOM     22  C   UNL     1       3.976   5.308  17.837  0.00  0.00    +0.000 C 
ATOM     23  O   UNL     1       5.184   5.340  18.033  0.00  0.00    +0.000 OA
ATOM     24  N   UNL     1       3.257   4.132  17.789  0.00  0.00    +0.000 N 
ATOM     25  C   UNL     1       1.814   4.012  17.582  0.00  0.00    +0.000 C 
ATOM     26  C   UNL     1       1.185   3.128  18.669  0.00  0.00    +0.000 C 
ATOM     27  O   UNL     1       1.853   1.859  18.769  0.00  0.00    +0.000 OA
ATOM     28  C   UNL     1       3.248   2.035  19.071  0.00  0.00    +0.000 C 
ATOM     29  C   UNL     1       3.939   2.844  17.971  0.00  0.00    +0.000 C 
ENDBRANCH  21  22
ENDBRANCH   6  21
TORSDOF 5
ENDMDL
MODEL 7
REMARK VINA RESULT:      -7.9      2.270      3.491
REMARK  Name = 
REMARK  6 active torsions:
REMARK  status: ('A' for Active; 'I' for Inactive)
REMARK    1  A    between atoms: C_1  and  O_2
REMARK    2  A    between atoms: O_2  and  C_3
REMARK    3  A    between atoms: C_7  and  O_8
REMARK    4  A    between atoms: O_8  and  C_9
REMARK    5  A    between atoms: C_14  and  O_15
REMARK    6  A    between atoms: O_15  and  C_16
REMARK                            x       y       z     vdW  Elec       q    Type
REMARK                         _______ _______ _______ _____ _____    ______ ____
ROOT
ATOM      1  C   UNL     1      -0.626  11.550  20.006  0.00  0.00    +0.000 A 
ATOM      2  C   UNL     1      -0.771  10.557  20.896  0.00  0.00    +0.000 A 
ATOM      3  O   UNL     1       0.126   9.531  21.125  0.00  0.00    +0.000 OA
ATOM      4  C   UNL     1       0.994   9.237  20.101  0.00  0.00    +0.000 A 
ATOM      5  C   UNL     1       1.690   8.025  20.142  0.00  0.00    +0.000 A 
ATOM      6  C   UNL     1       2.423   7.614  19.022  0.00  0.00    +0.000 A 
ATOM      7  C   UNL     1       2.445   8.404  17.871  0.00  0.00    +0.000 A 
ATOM      8  C   UNL     1       1.834   9.665  17.877  0.00  0.00    +0.000 A 
ATOM      9  C   UNL     1       1.143  10.092  19.011  0.00  0.00    +0.000 A 
ATOM     10  C   UNL     1       0.537  11.437  19.085  0.00  0.00    +0.000 A 
ATOM     11  O   UNL     1       0.976  12.362  18.415  0.00  0.00    +0.000 OA
ENDROOT
BRANCH   1  12
ATOM     12  O   UNL     1      -1.622  12.499  19.829  0.00  0.00    +0.000 OA
BRANCH  12  17
ATOM     13  C   UNL     1      -5.197  11.847  19.092  0.00  0.00    +0.000 A 
ATOM     14  C   UNL     1      -5.052  11.234  17.844  0.00  0.00    +0.000 A 
ATOM     15  C   UNL     1      -3.790  11.077  17.274  0.00  0.00    +0.000 A 
ATOM     16  C   UNL     1      -2.664  11.537  17.950  0.00  0.00    +0.000 A 
ATOM     17  C   UNL     1      -2.798  12.171  19.191  0.00  0.00    +0.000 A 
ATOM     18  C   UNL     1      -4.065  12.318  19.768  0.00  0.00    +0.000 A 
BRANCH  13  20
ATOM     19  C   UNL     1      -6.684  12.033  20.942  0.00  0.00    +0.000 C 
ATOM     20  O   UNL     1      -6.489  11.894  19.543  0.00  0.00    +0.000 OA
ENDBRANCH  13  20
ENDBRANCH  12  17
ENDBRANCH   1  12
BRANCH   6  21
ATOM     21  O   UNL     1       3.135   6.388  19.170  0.00  0.00    +0.000 OA
BRANCH  21  22
ATOM     22  C   UNL     1       3.315   5.390  18.192  0.00  0.00    +0.000 C 
ATOM     23  O   UNL     1       4.137   5.465  17.286  0.00  0.00    +0.000 OA
ATOM     24  N   UNL     1       2.485   4.302  18.359  0.00  0.00    +0.000 N 
ATOM     25  C   UNL     1       1.497   4.128  19.423  0.00  0.00    +0.000 C 
ATOM     26  C   UNL     1       1.682   2.769  20.114  0.00  0.00    +0.000 C 
ATOM     27  O   UNL     1       1.690   1.691  19.164  0.00  0.00    +0.000 OA
ATOM     28  C   UNL     1       2.743   1.863  18.200  0.00  0.00    +0.000 C 
ATOM     29  C   UNL     1       2.557   3.170  17.426  0.00  0.00    +0.000 C 
ENDBRANCH  21  22
ENDBRANCH   6  21
TORSDOF 5
ENDMDL
MODEL 8
REMARK VINA RESULT:      -7.9      2.420      3.693
REMARK  Name = 
REMARK  6 active torsions:
REMARK  status: ('A' for Active; 'I' for Inactive)
REMARK    1  A    between atoms: C_1  and  O_2
REMARK    2  A    between atoms: O_2  and  C_3
REMARK    3  A    between atoms: C_7  and  O_8
REMARK    4  A    between atoms: O_8  and  C_9
REMARK    5  A    between atoms: C_14  and  O_15
REMARK    6  A    between atoms: O_15  and  C_16
REMARK                            x       y       z     vdW  Elec       q    Type
REMARK                         _______ _______ _______ _____ _____    ______ ____
ROOT
ATOM      1  C   UNL     1      -0.106  10.248  20.468  0.00  0.00    +0.000 A 
ATOM      2  C   UNL     1      -0.132   9.195  21.298  0.00  0.00    +0.000 A 
ATOM      3  O   UNL     1       0.803   8.180  21.356  0.00  0.00    +0.000 OA
ATOM      4  C   UNL     1       1.557   7.977  20.225  0.00  0.00    +0.000 A 
ATOM      5  C   UNL     1       2.274   6.782  20.105  0.00  0.00    +0.000 A 
ATOM      6  C   UNL     1       2.885   6.466  18.886  0.00  0.00    +0.000 A 
ATOM      7  C   UNL     1       2.764   7.330  17.796  0.00  0.00    +0.000 A 
ATOM      8  C   UNL     1       2.134   8.572  17.957  0.00  0.00    +0.000 A 
ATOM      9  C   UNL     1       1.567   8.905  19.186  0.00  0.00    +0.000 A 
ATOM     10  C   UNL     1       0.948  10.226  19.419  0.00  0.00    +0.000 A 
ATOM     11  O   UNL     1       1.294  11.204  18.769  0.00  0.00    +0.000 OA
ENDROOT
BRANCH   1  12
ATOM     12  O   UNL     1      -1.132  11.181  20.468  0.00  0.00    +0.000 OA
BRANCH  12  17
ATOM     13  C   UNL     1      -0.178  14.125  22.509  0.00  0.00    +0.000 A 
ATOM     14  C   UNL     1      -1.212  14.082  23.450  0.00  0.00    +0.000 A 
ATOM     15  C   UNL     1      -2.202  13.104  23.369  0.00  0.00    +0.000 A 
ATOM     16  C   UNL     1      -2.164  12.165  22.342  0.00  0.00    +0.000 A 
ATOM     17  C   UNL     1      -1.145  12.211  21.383  0.00  0.00    +0.000 A 
ATOM     18  C   UNL     1      -0.144  13.187  21.472  0.00  0.00    +0.000 A 
BRANCH  13  20
ATOM     19  C   UNL     1       0.674  16.267  21.914  0.00  0.00    +0.000 C 
ATOM     20  O   UNL     1       0.741  15.113  22.739  0.00  0.00    +0.000 OA
ENDBRANCH  13  20
ENDBRANCH  12  17
ENDBRANCH   1  12
BRANCH   6  21
ATOM     21  O   UNL     1       3.631   5.251  18.870  0.00  0.00    +0.000 OA
BRANCH  21  22
ATOM     22  C   UNL     1       4.045   4.526  17.734  0.00  0.00    +0.000 C 
ATOM     23  O   UNL     1       3.311   3.781  17.098  0.00  0.00    +0.000 OA
ATOM     24  N   UNL     1       5.362   4.749  17.392  0.00  0.00    +0.000 N 
ATOM     25  C   UNL     1       6.294   5.638  18.086  0.00  0.00    +0.000 C 
ATOM     26  C   UNL     1       6.967   6.595  17.091  0.00  0.00    +0.000 C 
ATOM     27  O   UNL     1       7.568   5.882  15.998  0.00  0.00    +0.000 OA
ATOM     28  C   UNL     1       6.588   5.102  15.292  0.00  0.00    +0.000 C 
ATOM     29  C   UNL     1       5.944   4.074  16.225  0.00  0.00    +0.000 C 
ENDBRANCH  21  22
ENDBRANCH   6  21
TORSDOF 5
ENDMDL
MODEL 9
REMARK VINA RESULT:      -7.9      3.016      4.576
REMARK  Name = 
REMARK  6 active torsions:
REMARK  status: ('A' for Active; 'I' for Inactive)
REMARK    1  A    between atoms: C_1  and  O_2
REMARK    2  A    between atoms: O_2  and  C_3
REMARK    3  A    between atoms: C_7  and  O_8
REMARK    4  A    between atoms: O_8  and  C_9
REMARK    5  A    between atoms: C_14  and  O_15
REMARK    6  A    between atoms: O_15  and  C_16
REMARK                            x       y       z     vdW  Elec       q    Type
REMARK                         _______ _______ _______ _____ _____    ______ ____
ROOT
ATOM      1  C   UNL     1       0.145  11.504  21.349  0.00  0.00    +0.000 A 
ATOM      2  C   UNL     1       0.540  11.856  20.116  0.00  0.00    +0.000 A 
ATOM      3  O   UNL     1       0.795  10.994  19.067  0.00  0.00    +0.000 OA
ATOM      4  C   UNL     1       1.103   9.697  19.400  0.00  0.00    +0.000 A 
ATOM      5  C   UNL     1       1.680   8.876  18.426  0.00  0.00    +0.000 A 
ATOM      6  C   UNL     1       2.183   7.622  18.793  0.00  0.00    +0.000 A 
ATOM      7  C   UNL     1       2.122   7.205  20.125  0.00  0.00    +0.000 A 
ATOM      8  C   UNL     1       1.448   7.988  21.071  0.00  0.00    +0.000 A 
ATOM      9  C   UNL     1       0.906   9.216  20.692  0.00  0.00    +0.000 A 
ATOM     10  C   UNL     1       0.134  10.046  21.640  0.00  0.00    +0.000 A 
ATOM     11  O   UNL     1      -0.446   9.538  22.590  0.00  0.00    +0.000 OA
ENDROOT
BRANCH   1  12
ATOM     12  O   UNL     1      -0.031  12.459  22.340  0.00  0.00    +0.000 OA
BRANCH  12  17
ATOM     13  C   UNL     1      -3.715  12.780  22.612  0.00  0.00    +0.000 A 
ATOM     14  C   UNL     1      -3.773  13.873  23.484  0.00  0.00    +0.000 A 
ATOM     15  C   UNL     1      -2.604  14.451  23.973  0.00  0.00    +0.000 A 
ATOM     16  C   UNL     1      -1.367  13.937  23.595  0.00  0.00    +0.000 A 
ATOM     17  C   UNL     1      -1.296  12.831  22.738  0.00  0.00    +0.000 A 
ATOM     18  C   UNL     1      -2.471  12.258  22.238  0.00  0.00    +0.000 A 
BRANCH  13  20
ATOM     19  C   UNL     1      -5.873  13.333  21.774  0.00  0.00    +0.000 C 
ATOM     20  O   UNL     1      -4.940  12.345  22.183  0.00  0.00    +0.000 OA
ENDBRANCH  13  20
ENDBRANCH  12  17
ENDBRANCH   1  12
BRANCH   6  21
ATOM     21  O   UNL     1       2.713   6.836  17.728  0.00  0.00    +0.000 OA
BRANCH  21  22
ATOM     22  C   UNL     1       3.677   5.814  17.827  0.00  0.00    +0.000 C 
ATOM     23  O   UNL     1       4.878   6.021  17.945  0.00  0.00    +0.000 OA
ATOM     24  N   UNL     1       3.136   4.546  17.797  0.00  0.00    +0.000 N 
ATOM     25  C   UNL     1       1.716   4.218  17.682  0.00  0.00    +0.000 C 
ATOM     26  C   UNL     1       1.299   3.233  18.785  0.00  0.00    +0.000 C 
ATOM     27  O   UNL     1       2.150   2.075  18.808  0.00  0.00    +0.000 OA
ATOM     28  C   UNL     1       3.522   2.450  19.022  0.00  0.00    +0.000 C 
ATOM     29  C   UNL     1       4.010   3.370  17.901  0.00  0.00    +0.000 C 
ENDBRANCH  21  22
ENDBRANCH   6  21
TORSDOF 5
ENDMDL
