MODEL 1
REMARK VINA RESULT:      -8.3      0.000      0.000
REMARK  Name = 
REMARK  3 active torsions:
REMARK  status: ('A' for Active; 'I' for Inactive)
REMARK    1  A    between atoms: C_1  and  C_2
REMARK    2  A    between atoms: C_4  and  N_5
REMARK    3  A    between atoms: N_7  and  C_8
REMARK                            x       y       z     vdW  Elec       q    Type
REMARK                         _______ _______ _______ _____ _____    ______ ____
ROOT
ATOM      1  N   UNL     1       5.344   4.389  16.303  0.00  0.00    +0.000 N 
ATOM      2  C   UNL     1       6.623   4.909  16.306  0.00  0.00    +0.000 C 
ATOM      3  N   UNL     1       7.525   5.139  17.215  0.00  0.00    +0.000 NA
ATOM      4  N   UNL     1       7.124   5.215  15.071  0.00  0.00    +0.000 N 
ATOM      5  C   UNL     1       6.861   4.668  13.872  0.00  0.00    +0.000 A 
ATOM      6  N   UNL     1       5.856   3.857  13.608  0.00  0.00    +0.000 NA
ATOM      7  C   UNL     1       5.956   3.399  12.305  0.00  0.00    +0.000 A 
ATOM      8  C   UNL     1       7.005   3.908  11.573  0.00  0.00    +0.000 A 
ATOM      9  S   UNL     1       7.920   4.976  12.544  0.00  0.00    +0.000 S 
ATOM     10  H   UNL     1       5.056   4.097  15.370  0.00  0.00    +0.000 HD
ATOM     11  H   UNL     1       8.058   5.595  15.182  0.00  0.00    +0.000 HD
ENDROOT
BRANCH   1  15
ATOM     12  C   UNL     1       2.693   8.039  18.295  0.00  0.00    +0.000 C 
ATOM     13  C   UNL     1       2.955   6.581  18.087  0.00  0.00    +0.000 A 
ATOM     14  C   UNL     1       3.865   6.152  17.135  0.00  0.00    +0.000 A 
ATOM     15  C   UNL     1       4.219   4.804  17.077  0.00  0.00    +0.000 A 
ATOM     16  C   UNL     1       3.503   3.879  17.915  0.00  0.00    +0.000 A 
ATOM     17  C   UNL     1       3.624   2.460  17.898  0.00  0.00    +0.000 A 
ATOM     18  C   UNL     1       2.858   1.641  18.741  0.00  0.00    +0.000 A 
ATOM     19  C   UNL     1       1.976   2.212  19.646  0.00  0.00    +0.000 A 
ATOM     20  C   UNL     1       1.851   3.599  19.680  0.00  0.00    +0.000 A 
ATOM     21  C   UNL     1       2.569   4.429  18.827  0.00  0.00    +0.000 A 
ATOM     22  N   UNL     1       2.327   5.738  18.928  0.00  0.00    +0.000 NA
ENDBRANCH   1  15
BRANCH   3  23
ATOM     23  C   UNL     1       7.461   4.767  18.581  0.00  0.00    +0.000 C 
ATOM     24  C   UNL     1       8.033   5.803  19.527  0.00  0.00    +0.000 C 
ATOM     25  C   UNL     1       6.554   5.656  19.405  0.00  0.00    +0.000 C 
ENDBRANCH   3  23
TORSDOF 2
ENDMDL
MODEL 2
REMARK VINA RESULT:      -8.0      0.746      2.755
REMARK  Name = 
REMARK  3 active torsions:
REMARK  status: ('A' for Active; 'I' for Inactive)
REMARK    1  A    between atoms: C_1  and  C_2
REMARK    2  A    between atoms: C_4  and  N_5
REMARK    3  A    between atoms: N_7  and  C_8
REMARK                            x       y       z     vdW  Elec       q    Type
REMARK                         _______ _______ _______ _____ _____    ______ ____
ROOT
ATOM      1  N   UNL     1       5.627   3.973  16.402  0.00  0.00    +0.000 N 
ATOM      2  C   UNL     1       6.758   4.764  16.357  0.00  0.00    +0.000 C 
ATOM      3  N   UNL     1       7.642   5.161  17.224  0.00  0.00    +0.000 NA
ATOM      4  N   UNL     1       7.102   5.209  15.110  0.00  0.00    +0.000 N 
ATOM      5  C   UNL     1       6.891   4.653  13.906  0.00  0.00    +0.000 A 
ATOM      6  N   UNL     1       6.074   3.647  13.663  0.00  0.00    +0.000 NA
ATOM      7  C   UNL     1       6.191   3.261  12.338  0.00  0.00    +0.000 A 
ATOM      8  C   UNL     1       7.055   4.011  11.572  0.00  0.00    +0.000 A 
ATOM      9  S   UNL     1       7.771   5.227  12.537  0.00  0.00    +0.000 S 
ATOM     10  H   UNL     1       5.353   3.652  15.474  0.00  0.00    +0.000 HD
ATOM     11  H   UNL     1       7.935   5.783  15.187  0.00  0.00    +0.000 HD
ENDROOT
BRANCH   1  15
ATOM     12  C   UNL     1       1.886   1.862  18.824  0.00  0.00    +0.000 C 
ATOM     13  C   UNL     1       2.638   3.081  18.394  0.00  0.00    +0.000 A 
ATOM     14  C   UNL     1       3.885   2.973  17.799  0.00  0.00    +0.000 A 
ATOM     15  C   UNL     1       4.489   4.105  17.253  0.00  0.00    +0.000 A 
ATOM     16  C   UNL     1       3.856   5.380  17.466  0.00  0.00    +0.000 A 
ATOM     17  C   UNL     1       4.386   6.653  17.107  0.00  0.00    +0.000 A 
ATOM     18  C   UNL     1       3.699   7.845  17.384  0.00  0.00    +0.000 A 
ATOM     19  C   UNL     1       2.455   7.801  17.993  0.00  0.00    +0.000 A 
ATOM     20  C   UNL     1       1.919   6.563  18.343  0.00  0.00    +0.000 A 
ATOM     21  C   UNL     1       2.599   5.372  18.117  0.00  0.00    +0.000 A 
ATOM     22  N   UNL     1       1.999   4.257  18.539  0.00  0.00    +0.000 NA
ENDBRANCH   1  15
BRANCH   3  23
ATOM     23  C   UNL     1       7.747   4.745  18.575  0.00  0.00    +0.000 C 
ATOM     24  C   UNL     1       8.242   5.825  19.515  0.00  0.00    +0.000 C 
ATOM     25  C   UNL     1       6.794   5.468  19.504  0.00  0.00    +0.000 C 
ENDBRANCH   3  23
TORSDOF 2
ENDMDL
MODEL 3
REMARK VINA RESULT:      -6.8      2.872      6.315
REMARK  Name = 
REMARK  3 active torsions:
REMARK  status: ('A' for Active; 'I' for Inactive)
REMARK    1  A    between atoms: C_1  and  C_2
REMARK    2  A    between atoms: C_4  and  N_5
REMARK    3  A    between atoms: N_7  and  C_8
REMARK                            x       y       z     vdW  Elec       q    Type
REMARK                         _______ _______ _______ _____ _____    ______ ____
ROOT
ATOM      1  N   UNL     1       3.902   5.289  17.814  0.00  0.00    +0.000 N 
ATOM      2  C   UNL     1       3.153   6.011  18.722  0.00  0.00    +0.000 C 
ATOM      3  N   UNL     1       2.733   7.239  18.804  0.00  0.00    +0.000 NA
ATOM      4  N   UNL     1       2.665   5.286  19.774  0.00  0.00    +0.000 N 
ATOM      5  C   UNL     1       2.335   3.986  19.848  0.00  0.00    +0.000 A 
ATOM      6  N   UNL     1       2.649   3.068  18.956  0.00  0.00    +0.000 NA
ATOM      7  C   UNL     1       2.051   1.865  19.295  0.00  0.00    +0.000 A 
ATOM      8  C   UNL     1       1.334   1.865  20.470  0.00  0.00    +0.000 A 
ATOM      9  S   UNL     1       1.378   3.424  21.170  0.00  0.00    +0.000 S 
ATOM     10  H   UNL     1       3.786   4.284  17.942  0.00  0.00    +0.000 HD
ATOM     11  H   UNL     1       2.140   5.905  20.382  0.00  0.00    +0.000 HD
ENDROOT
BRANCH   1  15
ATOM     12  C   UNL     1       7.972   8.069  17.962  0.00  0.00    +0.000 C 
ATOM     13  C   UNL     1       7.161   6.977  17.341  0.00  0.00    +0.000 A 
ATOM     14  C   UNL     1       6.031   6.484  17.973  0.00  0.00    +0.000 A 
ATOM     15  C   UNL     1       5.198   5.590  17.300  0.00  0.00    +0.000 A 
ATOM     16  C   UNL     1       5.632   5.093  16.021  0.00  0.00    +0.000 A 
ATOM     17  C   UNL     1       4.992   4.080  15.251  0.00  0.00    +0.000 A 
ATOM     18  C   UNL     1       5.511   3.644  14.022  0.00  0.00    +0.000 A 
ATOM     19  C   UNL     1       6.661   4.227  13.512  0.00  0.00    +0.000 A 
ATOM     20  C   UNL     1       7.295   5.224  14.249  0.00  0.00    +0.000 A 
ATOM     21  C   UNL     1       6.823   5.643  15.487  0.00  0.00    +0.000 A 
ATOM     22  N   UNL     1       7.545   6.575  16.114  0.00  0.00    +0.000 NA
ENDBRANCH   1  15
BRANCH   3  23
ATOM     23  C   UNL     1       2.857   8.242  17.809  0.00  0.00    +0.000 C 
ATOM     24  C   UNL     1       1.544   8.889  17.420  0.00  0.00    +0.000 C 
ATOM     25  C   UNL     1       2.494   9.627  18.301  0.00  0.00    +0.000 C 
ENDBRANCH   3  23
TORSDOF 2
ENDMDL
MODEL 4
REMARK VINA RESULT:      -6.7      7.598     12.046
REMARK  Name = 
REMARK  3 active torsions:
REMARK  status: ('A' for Active; 'I' for Inactive)
REMARK    1  A    between atoms: C_1  and  C_2
REMARK    2  A    between atoms: C_4  and  N_5
REMARK    3  A    between atoms: N_7  and  C_8
REMARK                            x       y       z     vdW  Elec       q    Type
REMARK                         _______ _______ _______ _____ _____    ______ ____
ROOT
ATOM      1  N   UNL     1      -1.846  11.339  19.363  0.00  0.00    +0.000 N 
ATOM      2  C   UNL     1      -3.015  11.743  18.747  0.00  0.00    +0.000 C 
ATOM      3  N   UNL     1      -3.660  11.396  17.673  0.00  0.00    +0.000 NA
ATOM      4  N   UNL     1      -3.726  12.693  19.427  0.00  0.00    +0.000 N 
ATOM      5  C   UNL     1      -3.803  12.935  20.746  0.00  0.00    +0.000 A 
ATOM      6  N   UNL     1      -2.994  12.438  21.661  0.00  0.00    +0.000 NA
ATOM      7  C   UNL     1      -3.434  12.807  22.922  0.00  0.00    +0.000 A 
ATOM      8  C   UNL     1      -4.540  13.627  22.952  0.00  0.00    +0.000 A 
ATOM      9  S   UNL     1      -5.074  13.931  21.357  0.00  0.00    +0.000 S 
ATOM     10  H   UNL     1      -1.808  11.639  20.337  0.00  0.00    +0.000 HD
ATOM     11  H   UNL     1      -4.556  12.925  18.891  0.00  0.00    +0.000 HD
ENDROOT
BRANCH   1  15
ATOM     12  C   UNL     1       1.938   8.564  17.850  0.00  0.00    +0.000 C 
ATOM     13  C   UNL     1       1.327   9.903  18.111  0.00  0.00    +0.000 A 
ATOM     14  C   UNL     1      -0.024  10.023  18.396  0.00  0.00    +0.000 A 
ATOM     15  C   UNL     1      -0.536  11.255  18.804  0.00  0.00    +0.000 A 
ATOM     16  C   UNL     1       0.338  12.398  18.765  0.00  0.00    +0.000 A 
ATOM     17  C   UNL     1      -0.035  13.751  19.010  0.00  0.00    +0.000 A 
ATOM     18  C   UNL     1       0.890  14.802  18.920  0.00  0.00    +0.000 A 
ATOM     19  C   UNL     1       2.216  14.532  18.618  0.00  0.00    +0.000 A 
ATOM     20  C   UNL     1       2.598  13.213  18.384  0.00  0.00    +0.000 A 
ATOM     21  C   UNL     1       1.692  12.160  18.425  0.00  0.00    +0.000 A 
ATOM     22  N   UNL     1       2.174  10.949  18.138  0.00  0.00    +0.000 NA
ENDBRANCH   1  15
BRANCH   3  23
ATOM     23  C   UNL     1      -3.351  10.311  16.816  0.00  0.00    +0.000 C 
ATOM     24  C   UNL     1      -3.934  10.441  15.424  0.00  0.00    +0.000 C 
ATOM     25  C   UNL     1      -2.481  10.700  15.639  0.00  0.00    +0.000 C 
ENDBRANCH   3  23
TORSDOF 2
ENDMDL
MODEL 5
REMARK VINA RESULT:      -6.6      6.960     10.497
REMARK  Name = 
REMARK  3 active torsions:
REMARK  status: ('A' for Active; 'I' for Inactive)
REMARK    1  A    between atoms: C_1  and  C_2
REMARK    2  A    between atoms: C_4  and  N_5
REMARK    3  A    between atoms: N_7  and  C_8
REMARK                            x       y       z     vdW  Elec       q    Type
REMARK                         _______ _______ _______ _____ _____    ______ ____
ROOT
ATOM      1  N   UNL     1      -1.217  11.254  18.600  0.00  0.00    +0.000 N 
ATOM      2  C   UNL     1      -1.577  12.532  18.979  0.00  0.00    +0.000 C 
ATOM      3  N   UNL     1      -0.963  13.675  19.072  0.00  0.00    +0.000 NA
ATOM      4  N   UNL     1      -2.901  12.693  19.280  0.00  0.00    +0.000 N 
ATOM      5  C   UNL     1      -3.978  12.039  18.816  0.00  0.00    +0.000 A 
ATOM      6  N   UNL     1      -3.950  10.914  18.130  0.00  0.00    +0.000 NA
ATOM      7  C   UNL     1      -5.231  10.586  17.719  0.00  0.00    +0.000 A 
ATOM      8  C   UNL     1      -6.229  11.435  18.142  0.00  0.00    +0.000 A 
ATOM      9  S   UNL     1      -5.551  12.705  19.064  0.00  0.00    +0.000 S 
ATOM     10  H   UNL     1      -2.031  10.681  18.380  0.00  0.00    +0.000 HD
ATOM     11  H   UNL     1      -3.059  13.658  19.552  0.00  0.00    +0.000 HD
ENDROOT
BRANCH   1  15
ATOM     12  C   UNL     1       2.446   8.066  17.738  0.00  0.00    +0.000 C 
ATOM     13  C   UNL     1       1.605   8.861  18.686  0.00  0.00    +0.000 A 
ATOM     14  C   UNL     1       0.747   9.844  18.221  0.00  0.00    +0.000 A 
ATOM     15  C   UNL     1      -0.149  10.451  19.102  0.00  0.00    +0.000 A 
ATOM     16  C   UNL     1      -0.040  10.137  20.501  0.00  0.00    +0.000 A 
ATOM     17  C   UNL     1      -0.767  10.752  21.561  0.00  0.00    +0.000 A 
ATOM     18  C   UNL     1      -0.568  10.391  22.903  0.00  0.00    +0.000 A 
ATOM     19  C   UNL     1       0.333   9.388  23.222  0.00  0.00    +0.000 A 
ATOM     20  C   UNL     1       1.046   8.771  22.197  0.00  0.00    +0.000 A 
ATOM     21  C   UNL     1       0.897   9.140  20.865  0.00  0.00    +0.000 A 
ATOM     22  N   UNL     1       1.671   8.504  19.983  0.00  0.00    +0.000 NA
ENDBRANCH   1  15
BRANCH   3  23
ATOM     23  C   UNL     1       0.361  13.959  18.652  0.00  0.00    +0.000 C 
ATOM     24  C   UNL     1       0.985  15.149  19.352  0.00  0.00    +0.000 C 
ATOM     25  C   UNL     1       1.393  13.770  19.744  0.00  0.00    +0.000 C 
ENDBRANCH   3  23
TORSDOF 2
ENDMDL
MODEL 6
REMARK VINA RESULT:      -6.5      9.731     11.864
REMARK  Name = 
REMARK  3 active torsions:
REMARK  status: ('A' for Active; 'I' for Inactive)
REMARK    1  A    between atoms: C_1  and  C_2
REMARK    2  A    between atoms: C_4  and  N_5
REMARK    3  A    between atoms: N_7  and  C_8
REMARK                            x       y       z     vdW  Elec       q    Type
REMARK                         _______ _______ _______ _____ _____    ______ ____
ROOT
ATOM      1  N   UNL     1      -2.340  12.719  18.862  0.00  0.00    +0.000 N 
ATOM      2  C   UNL     1      -1.538  11.805  18.207  0.00  0.00    +0.000 C 
ATOM      3  N   UNL     1      -1.747  10.791  17.420  0.00  0.00    +0.000 NA
ATOM      4  N   UNL     1      -0.194  12.015  18.343  0.00  0.00    +0.000 N 
ATOM      5  C   UNL     1       0.487  13.156  18.536  0.00  0.00    +0.000 A 
ATOM      6  N   UNL     1      -0.045  14.313  18.880  0.00  0.00    +0.000 NA
ATOM      7  C   UNL     1       0.933  15.294  18.880  0.00  0.00    +0.000 A 
ATOM      8  C   UNL     1       2.208  14.865  18.589  0.00  0.00    +0.000 A 
ATOM      9  S   UNL     1       2.193  13.185  18.277  0.00  0.00    +0.000 S 
ATOM     10  H   UNL     1      -1.814  13.542  19.155  0.00  0.00    +0.000 HD
ATOM     11  H   UNL     1       0.303  11.290  17.835  0.00  0.00    +0.000 HD
ENDROOT
BRANCH   1  15
ATOM     12  C   UNL     1      -7.157  11.911  19.539  0.00  0.00    +0.000 C 
ATOM     13  C   UNL     1      -5.781  12.119  20.085  0.00  0.00    +0.000 A 
ATOM     14  C   UNL     1      -4.675  12.100  19.251  0.00  0.00    +0.000 A 
ATOM     15  C   UNL     1      -3.426  12.464  19.753  0.00  0.00    +0.000 A 
ATOM     16  C   UNL     1      -3.307  12.699  21.167  0.00  0.00    +0.000 A 
ATOM     17  C   UNL     1      -2.098  12.945  21.881  0.00  0.00    +0.000 A 
ATOM     18  C   UNL     1      -2.085  13.136  23.271  0.00  0.00    +0.000 A 
ATOM     19  C   UNL     1      -3.274  13.122  23.982  0.00  0.00    +0.000 A 
ATOM     20  C   UNL     1      -4.466  12.891  23.298  0.00  0.00    +0.000 A 
ATOM     21  C   UNL     1      -4.500  12.658  21.928  0.00  0.00    +0.000 A 
ATOM     22  N   UNL     1      -5.699  12.405  21.398  0.00  0.00    +0.000 NA
ENDBRANCH   1  15
BRANCH   3  23
ATOM     23  C   UNL     1      -2.992  10.383  16.880  0.00  0.00    +0.000 C 
ATOM     24  C   UNL     1      -3.341  11.052  15.566  0.00  0.00    +0.000 C 
ATOM     25  C   UNL     1      -2.866   9.638  15.568  0.00  0.00    +0.000 C 
ENDBRANCH   3  23
TORSDOF 2
ENDMDL
MODEL 7
REMARK VINA RESULT:      -6.4      9.568     10.780
REMARK  Name = 
REMARK  3 active torsions:
REMARK  status: ('A' for Active; 'I' for Inactive)
REMARK    1  A    between atoms: C_1  and  C_2
REMARK    2  A    between atoms: C_4  and  N_5
REMARK    3  A    between atoms: N_7  and  C_8
REMARK                            x       y       z     vdW  Elec       q    Type
REMARK                         _______ _______ _______ _____ _____    ______ ____
ROOT
ATOM      1  N   UNL     1      -0.269  12.419  19.696  0.00  0.00    +0.000 N 
ATOM      2  C   UNL     1       0.527  12.284  20.816  0.00  0.00    +0.000 C 
ATOM      3  N   UNL     1       0.581  11.454  21.816  0.00  0.00    +0.000 NA
ATOM      4  N   UNL     1       1.554  13.182  20.905  0.00  0.00    +0.000 N 
ATOM      5  C   UNL     1       2.241  13.808  19.935  0.00  0.00    +0.000 A 
ATOM      6  N   UNL     1       1.891  13.860  18.665  0.00  0.00    +0.000 NA
ATOM      7  C   UNL     1       2.885  14.488  17.932  0.00  0.00    +0.000 A 
ATOM      8  C   UNL     1       3.957  14.956  18.660  0.00  0.00    +0.000 A 
ATOM      9  S   UNL     1       3.738  14.580  20.312  0.00  0.00    +0.000 S 
ATOM     10  H   UNL     1       0.165  13.015  18.992  0.00  0.00    +0.000 HD
ATOM     11  H   UNL     1       2.070  13.005  21.760  0.00  0.00    +0.000 HD
ENDROOT
BRANCH   1  15
ATOM     12  C   UNL     1      -4.571  13.268  21.952  0.00  0.00    +0.000 C 
ATOM     13  C   UNL     1      -3.791  12.870  20.739  0.00  0.00    +0.000 A 
ATOM     14  C   UNL     1      -2.416  13.036  20.693  0.00  0.00    +0.000 A 
ATOM     15  C   UNL     1      -1.692  12.503  19.627  0.00  0.00    +0.000 A 
ATOM     16  C   UNL     1      -2.425  11.930  18.530  0.00  0.00    +0.000 A 
ATOM     17  C   UNL     1      -1.875  11.463  17.302  0.00  0.00    +0.000 A 
ATOM     18  C   UNL     1      -2.682  10.943  16.279  0.00  0.00    +0.000 A 
ATOM     19  C   UNL     1      -4.052  10.842  16.463  0.00  0.00    +0.000 A 
ATOM     20  C   UNL     1      -4.606  11.287  17.661  0.00  0.00    +0.000 A 
ATOM     21  C   UNL     1      -3.832  11.844  18.672  0.00  0.00    +0.000 A 
ATOM     22  N   UNL     1      -4.487  12.273  19.754  0.00  0.00    +0.000 NA
ENDBRANCH   1  15
BRANCH   3  23
ATOM     23  C   UNL     1      -0.181  10.271  21.973  0.00  0.00    +0.000 C 
ATOM     24  C   UNL     1       0.138   9.496  23.236  0.00  0.00    +0.000 C 
ATOM     25  C   UNL     1      -1.111  10.307  23.168  0.00  0.00    +0.000 C 
ENDBRANCH   3  23
TORSDOF 2
ENDMDL
MODEL 8
REMARK VINA RESULT:      -6.3      5.337      8.530
REMARK  Name = 
REMARK  3 active torsions:
REMARK  status: ('A' for Active; 'I' for Inactive)
REMARK    1  A    between atoms: C_1  and  C_2
REMARK    2  A    between atoms: C_4  and  N_5
REMARK    3  A    between atoms: N_7  and  C_8
REMARK                            x       y       z     vdW  Elec       q    Type
REMARK                         _______ _______ _______ _____ _____    ______ ____
ROOT
ATOM      1  N   UNL     1       0.657   9.757  18.870  0.00  0.00    +0.000 N 
ATOM      2  C   UNL     1       1.831  10.216  18.307  0.00  0.00    +0.000 C 
ATOM      3  N   UNL     1       2.434  11.366  18.239  0.00  0.00    +0.000 NA
ATOM      4  N   UNL     1       2.606   9.252  17.723  0.00  0.00    +0.000 N 
ATOM      5  C   UNL     1       2.724   7.946  18.011  0.00  0.00    +0.000 A 
ATOM      6  N   UNL     1       1.910   7.260  18.790  0.00  0.00    +0.000 NA
ATOM      7  C   UNL     1       2.395   5.974  18.954  0.00  0.00    +0.000 A 
ATOM      8  C   UNL     1       3.543   5.675  18.255  0.00  0.00    +0.000 A 
ATOM      9  S   UNL     1       4.058   7.051  17.381  0.00  0.00    +0.000 S 
ATOM     10  H   UNL     1       0.655   8.742  18.967  0.00  0.00    +0.000 HD
ATOM     11  H   UNL     1       3.436   9.691  17.336  0.00  0.00    +0.000 HD
ENDROOT
BRANCH   1  15
ATOM     12  C   UNL     1      -3.148  10.606  15.850  0.00  0.00    +0.000 C 
ATOM     13  C   UNL     1      -2.503  10.709  17.196  0.00  0.00    +0.000 A 
ATOM     14  C   UNL     1      -1.343  10.009  17.482  0.00  0.00    +0.000 A 
ATOM     15  C   UNL     1      -0.668  10.252  18.678  0.00  0.00    +0.000 A 
ATOM     16  C   UNL     1      -1.292  11.117  19.644  0.00  0.00    +0.000 A 
ATOM     17  C   UNL     1      -0.828  11.376  20.966  0.00  0.00    +0.000 A 
ATOM     18  C   UNL     1      -1.527  12.218  21.844  0.00  0.00    +0.000 A 
ATOM     19  C   UNL     1      -2.685  12.851  21.421  0.00  0.00    +0.000 A 
ATOM     20  C   UNL     1      -3.148  12.615  20.128  0.00  0.00    +0.000 A 
ATOM     21  C   UNL     1      -2.496  11.752  19.254  0.00  0.00    +0.000 A 
ATOM     22  N   UNL     1      -3.065  11.576  18.060  0.00  0.00    +0.000 NA
ENDBRANCH   1  15
BRANCH   3  23
ATOM     23  C   UNL     1       2.050  12.561  18.896  0.00  0.00    +0.000 C 
ATOM     24  C   UNL     1       2.514  13.823  18.198  0.00  0.00    +0.000 C 
ATOM     25  C   UNL     1       1.086  13.408  18.093  0.00  0.00    +0.000 C 
ENDBRANCH   3  23
TORSDOF 2
ENDMDL
MODEL 9
REMARK VINA RESULT:      -6.2      7.388     10.771
REMARK  Name = 
REMARK  3 active torsions:
REMARK  status: ('A' for Active; 'I' for Inactive)
REMARK    1  A    between atoms: C_1  and  C_2
REMARK    2  A    between atoms: C_4  and  N_5
REMARK    3  A    between atoms: N_7  and  C_8
REMARK                            x       y       z     vdW  Elec       q    Type
REMARK                         _______ _______ _______ _____ _____    ______ ____
ROOT
ATOM      1  N   UNL     1      -0.457  12.189  18.260  0.00  0.00    +0.000 N 
ATOM      2  C   UNL     1       0.476  11.689  19.147  0.00  0.00    +0.000 C 
ATOM      3  N   UNL     1       1.062  10.541  19.321  0.00  0.00    +0.000 NA
ATOM      4  N   UNL     1       0.974  12.601  20.036  0.00  0.00    +0.000 N 
ATOM      5  C   UNL     1       1.134  13.929  19.912  0.00  0.00    +0.000 A 
ATOM      6  N   UNL     1       0.605  14.676  18.962  0.00  0.00    +0.000 NA
ATOM      7  C   UNL     1       1.069  15.976  19.078  0.00  0.00    +0.000 A 
ATOM      8  C   UNL     1       1.904  16.218  20.146  0.00  0.00    +0.000 A 
ATOM      9  S   UNL     1       2.144  14.773  21.027  0.00  0.00    +0.000 S 
ATOM     10  H   UNL     1      -0.463  13.208  18.250  0.00  0.00    +0.000 HD
ATOM     11  H   UNL     1       1.639  12.136  20.643  0.00  0.00    +0.000 HD
ENDROOT
BRANCH   1  15
ATOM     12  C   UNL     1      -3.508  10.100  14.997  0.00  0.00    +0.000 C 
ATOM     13  C   UNL     1      -3.249  10.695  16.344  0.00  0.00    +0.000 A 
ATOM     14  C   UNL     1      -1.957  10.960  16.767  0.00  0.00    +0.000 A 
ATOM     15  C   UNL     1      -1.750  11.669  17.950  0.00  0.00    +0.000 A 
ATOM     16  C   UNL     1      -2.894  11.969  18.769  0.00  0.00    +0.000 A 
ATOM     17  C   UNL     1      -2.870  12.559  20.066  0.00  0.00    +0.000 A 
ATOM     18  C   UNL     1      -4.045  12.786  20.798  0.00  0.00    +0.000 A 
ATOM     19  C   UNL     1      -5.276  12.464  20.247  0.00  0.00    +0.000 A 
ATOM     20  C   UNL     1      -5.317  11.894  18.977  0.00  0.00    +0.000 A 
ATOM     21  C   UNL     1      -4.165  11.620  18.250  0.00  0.00    +0.000 A 
ATOM     22  N   UNL     1      -4.336  11.031  17.065  0.00  0.00    +0.000 NA
ENDBRANCH   1  15
BRANCH   3  23
ATOM     23  C   UNL     1       0.966   9.407  18.477  0.00  0.00    +0.000 C 
ATOM     24  C   UNL     1       2.237   9.099  17.712  0.00  0.00    +0.000 C 
ATOM     25  C   UNL     1       1.870   8.267  18.894  0.00  0.00    +0.000 C 
ENDBRANCH   3  23
TORSDOF 2
ENDMDL
