MODEL 1
REMARK VINA RESULT:      -8.7      0.000      0.000
REMARK  Name = 
REMARK  9 active torsions:
REMARK  status: ('A' for Active; 'I' for Inactive)
REMARK    1  A    between atoms: C_1  and  O_2
REMARK    2  A    between atoms: O_2  and  C_3
REMARK    3  A    between atoms: C_6  and  C_7
REMARK    4  A    between atoms: C_7  and  N_8
REMARK    5  A    between atoms: C_12  and  C_13
REMARK    6  A    between atoms: C_14  and  C_15
REMARK    7  A    between atoms: C_18  and  N_19
REMARK    8  A    between atoms: N_19  and  C_20
REMARK    9  A    between atoms: N_19  and  C_21
REMARK                            x       y       z     vdW  Elec       q    Type
REMARK                         _______ _______ _______ _____ _____    ______ ____
ROOT
ATOM      1  N   UNL     1       0.096  10.351  19.280  0.00  0.00    +0.000 N 
ATOM      2  C   UNL     1       1.038   9.499  18.719  0.00  0.00    +0.000 C 
ATOM      3  O   UNL     1       1.494   9.542  17.586  0.00  0.00    +0.000 OA
ATOM      4  C   UNL     1       1.452   8.559  19.837  0.00  0.00    +0.000 C 
ATOM      5  C   UNL     1       2.291   7.507  19.771  0.00  0.00    +0.000 C 
ATOM      6  C   UNL     1       0.751   9.033  21.039  0.00  0.00    +0.000 A 
ATOM      7  C   UNL     1       0.815   8.712  22.387  0.00  0.00    +0.000 A 
ATOM      8  C   UNL     1       0.042   9.469  23.272  0.00  0.00    +0.000 A 
ATOM      9  C   UNL     1      -0.762  10.493  22.771  0.00  0.00    +0.000 A 
ATOM     10  N   UNL     1      -0.834  10.828  21.466  0.00  0.00    +0.000 NA
ATOM     11  C   UNL     1      -0.067  10.093  20.644  0.00  0.00    +0.000 A 
ENDROOT
BRANCH   5  12
ATOM     12  C   UNL     1       2.973   7.032  18.579  0.00  0.00    +0.000 C 
ATOM     13  C   UNL     1       3.850   6.010  18.539  0.00  0.00    +0.000 C 
BRANCH  13  14
ATOM     14  C   UNL     1       4.516   5.563  17.294  0.00  0.00    +0.000 A 
ATOM     15  C   UNL     1       4.734   4.214  17.008  0.00  0.00    +0.000 A 
ATOM     16  C   UNL     1       5.365   3.809  15.814  0.00  0.00    +0.000 A 
ATOM     17  C   UNL     1       5.797   4.719  14.836  0.00  0.00    +0.000 A 
ATOM     18  C   UNL     1       5.564   6.071  15.146  0.00  0.00    +0.000 A 
ATOM     19  C   UNL     1       4.930   6.489  16.336  0.00  0.00    +0.000 A 
BRANCH  17  20
ATOM     20  N   UNL     1       6.447   4.309  13.679  0.00  0.00    +0.000 N 
ATOM     21  C   UNL     1       5.824   3.403  12.712  0.00  0.00    +0.000 C 
ATOM     22  C   UNL     1       7.637   4.979  13.159  0.00  0.00    +0.000 C 
ENDBRANCH  17  20
ENDBRANCH  13  14
ENDBRANCH   5  12
BRANCH   1  23
ATOM     23  C   UNL     1      -0.402  11.562  18.669  0.00  0.00    +0.000 C 
BRANCH  23  27
ATOM     24  C   UNL     1      -4.666  11.425  17.917  0.00  0.00    +0.000 A 
ATOM     25  C   UNL     1      -3.771  10.808  17.043  0.00  0.00    +0.000 A 
ATOM     26  C   UNL     1      -2.393  10.865  17.276  0.00  0.00    +0.000 A 
ATOM     27  C   UNL     1      -1.884  11.565  18.379  0.00  0.00    +0.000 A 
ATOM     28  C   UNL     1      -2.787  12.219  19.229  0.00  0.00    +0.000 A 
ATOM     29  C   UNL     1      -4.169  12.140  19.006  0.00  0.00    +0.000 A 
BRANCH  24  31
ATOM     30  C   UNL     1      -6.803  10.680  18.597  0.00  0.00    +0.000 C 
ATOM     31  O   UNL     1      -5.991  11.293  17.599  0.00  0.00    +0.000 OA
ENDBRANCH  24  31
ENDBRANCH  23  27
ENDBRANCH   1  23
TORSDOF 6
ENDMDL
MODEL 2
REMARK VINA RESULT:      -8.6      0.376      1.266
REMARK  Name = 
REMARK  9 active torsions:
REMARK  status: ('A' for Active; 'I' for Inactive)
REMARK    1  A    between atoms: C_1  and  O_2
REMARK    2  A    between atoms: O_2  and  C_3
REMARK    3  A    between atoms: C_6  and  C_7
REMARK    4  A    between atoms: C_7  and  N_8
REMARK    5  A    between atoms: C_12  and  C_13
REMARK    6  A    between atoms: C_14  and  C_15
REMARK    7  A    between atoms: C_18  and  N_19
REMARK    8  A    between atoms: N_19  and  C_20
REMARK    9  A    between atoms: N_19  and  C_21
REMARK                            x       y       z     vdW  Elec       q    Type
REMARK                         _______ _______ _______ _____ _____    ______ ____
ROOT
ATOM      1  N   UNL     1       0.079  10.345  19.215  0.00  0.00    +0.000 N 
ATOM      2  C   UNL     1       1.022   9.497  18.649  0.00  0.00    +0.000 C 
ATOM      3  O   UNL     1       1.468   9.539  17.513  0.00  0.00    +0.000 OA
ATOM      4  C   UNL     1       1.450   8.563  19.768  0.00  0.00    +0.000 C 
ATOM      5  C   UNL     1       2.296   7.517  19.699  0.00  0.00    +0.000 C 
ATOM      6  C   UNL     1       0.757   9.038  20.974  0.00  0.00    +0.000 A 
ATOM      7  C   UNL     1       0.834   8.723  22.322  0.00  0.00    +0.000 A 
ATOM      8  C   UNL     1       0.063   9.478  23.211  0.00  0.00    +0.000 A 
ATOM      9  C   UNL     1      -0.752  10.495  22.713  0.00  0.00    +0.000 A 
ATOM     10  N   UNL     1      -0.836  10.824  21.407  0.00  0.00    +0.000 NA
ATOM     11  C   UNL     1      -0.071  10.091  20.582  0.00  0.00    +0.000 A 
ENDROOT
BRANCH   5  12
ATOM     12  C   UNL     1       2.971   7.042  18.503  0.00  0.00    +0.000 C 
ATOM     13  C   UNL     1       3.886   6.054  18.466  0.00  0.00    +0.000 C 
BRANCH  13  14
ATOM     14  C   UNL     1       4.543   5.605  17.217  0.00  0.00    +0.000 A 
ATOM     15  C   UNL     1       4.965   6.501  16.233  0.00  0.00    +0.000 A 
ATOM     16  C   UNL     1       5.593   6.054  15.053  0.00  0.00    +0.000 A 
ATOM     17  C   UNL     1       5.852   4.698  14.797  0.00  0.00    +0.000 A 
ATOM     18  C   UNL     1       5.421   3.816  15.804  0.00  0.00    +0.000 A 
ATOM     19  C   UNL     1       4.793   4.251  16.991  0.00  0.00    +0.000 A 
BRANCH  17  20
ATOM     20  N   UNL     1       6.443   4.268  13.616  0.00  0.00    +0.000 N 
ATOM     21  C   UNL     1       5.762   3.362  12.688  0.00  0.00    +0.000 C 
ATOM     22  C   UNL     1       7.617   4.914  13.034  0.00  0.00    +0.000 C 
ENDBRANCH  17  20
ENDBRANCH  13  14
ENDBRANCH   5  12
BRANCH   1  23
ATOM     23  C   UNL     1      -0.431  11.551  18.604  0.00  0.00    +0.000 C 
BRANCH  23  27
ATOM     24  C   UNL     1      -4.581  11.525  17.360  0.00  0.00    +0.000 A 
ATOM     25  C   UNL     1      -4.222  11.997  18.622  0.00  0.00    +0.000 A 
ATOM     26  C   UNL     1      -2.884  11.991  19.030  0.00  0.00    +0.000 A 
ATOM     27  C   UNL     1      -1.883  11.488  18.189  0.00  0.00    +0.000 A 
ATOM     28  C   UNL     1      -2.257  10.974  16.939  0.00  0.00    +0.000 A 
ATOM     29  C   UNL     1      -3.595  11.003  16.523  0.00  0.00    +0.000 A 
BRANCH  24  31
ATOM     30  C   UNL     1      -6.731  12.233  18.037  0.00  0.00    +0.000 C 
ATOM     31  O   UNL     1      -5.916  11.592  17.060  0.00  0.00    +0.000 OA
ENDBRANCH  24  31
ENDBRANCH  23  27
ENDBRANCH   1  23
TORSDOF 6
ENDMDL
MODEL 3
REMARK VINA RESULT:      -8.3      2.784      4.644
REMARK  Name = 
REMARK  9 active torsions:
REMARK  status: ('A' for Active; 'I' for Inactive)
REMARK    1  A    between atoms: C_1  and  O_2
REMARK    2  A    between atoms: O_2  and  C_3
REMARK    3  A    between atoms: C_6  and  C_7
REMARK    4  A    between atoms: C_7  and  N_8
REMARK    5  A    between atoms: C_12  and  C_13
REMARK    6  A    between atoms: C_14  and  C_15
REMARK    7  A    between atoms: C_18  and  N_19
REMARK    8  A    between atoms: N_19  and  C_20
REMARK    9  A    between atoms: N_19  and  C_21
REMARK                            x       y       z     vdW  Elec       q    Type
REMARK                         _______ _______ _______ _____ _____    ______ ____
ROOT
ATOM      1  N   UNL     1       0.670  11.007  19.249  0.00  0.00    +0.000 N 
ATOM      2  C   UNL     1       1.453  10.007  18.687  0.00  0.00    +0.000 C 
ATOM      3  O   UNL     1       2.115  10.073  17.663  0.00  0.00    +0.000 OA
ATOM      4  C   UNL     1       1.388   8.845  19.663  0.00  0.00    +0.000 C 
ATOM      5  C   UNL     1       1.927   7.617  19.530  0.00  0.00    +0.000 C 
ATOM      6  C   UNL     1       0.614   9.331  20.813  0.00  0.00    +0.000 A 
ATOM      7  C   UNL     1       0.332   8.825  22.074  0.00  0.00    +0.000 A 
ATOM      8  C   UNL     1      -0.378   9.642  22.958  0.00  0.00    +0.000 A 
ATOM      9  C   UNL     1      -0.781  10.910  22.540  0.00  0.00    +0.000 A 
ATOM     10  N   UNL     1      -0.511  11.426  21.323  0.00  0.00    +0.000 NA
ATOM     11  C   UNL     1       0.186  10.622  20.503  0.00  0.00    +0.000 A 
ENDROOT
BRANCH   5  12
ATOM     12  C   UNL     1       2.682   7.135  18.386  0.00  0.00    +0.000 C 
ATOM     13  C   UNL     1       3.624   6.173  18.424  0.00  0.00    +0.000 C 
BRANCH  13  14
ATOM     14  C   UNL     1       4.363   5.715  17.226  0.00  0.00    +0.000 A 
ATOM     15  C   UNL     1       4.970   6.607  16.338  0.00  0.00    +0.000 A 
ATOM     16  C   UNL     1       5.673   6.150  15.205  0.00  0.00    +0.000 A 
ATOM     17  C   UNL     1       5.827   4.788  14.904  0.00  0.00    +0.000 A 
ATOM     18  C   UNL     1       5.211   3.910  15.813  0.00  0.00    +0.000 A 
ATOM     19  C   UNL     1       4.505   4.354  16.953  0.00  0.00    +0.000 A 
BRANCH  17  20
ATOM     20  N   UNL     1       6.495   4.352  13.767  0.00  0.00    +0.000 N 
ATOM     21  C   UNL     1       5.889   3.417  12.815  0.00  0.00    +0.000 C 
ATOM     22  C   UNL     1       7.688   5.014  13.244  0.00  0.00    +0.000 C 
ENDBRANCH  17  20
ENDBRANCH  13  14
ENDBRANCH   5  12
BRANCH   1  23
ATOM     23  C   UNL     1       0.627  12.381  18.804  0.00  0.00    +0.000 C 
BRANCH  23  27
ATOM     24  C   UNL     1       4.124  14.810  19.603  0.00  0.00    +0.000 A 
ATOM     25  C   UNL     1       3.737  14.533  18.292  0.00  0.00    +0.000 A 
ATOM     26  C   UNL     1       2.617  13.736  18.033  0.00  0.00    +0.000 A 
ATOM     27  C   UNL     1       1.878  13.180  19.086  0.00  0.00    +0.000 A 
ATOM     28  C   UNL     1       2.299  13.426  20.400  0.00  0.00    +0.000 A 
ATOM     29  C   UNL     1       3.407  14.245  20.658  0.00  0.00    +0.000 A 
BRANCH  24  31
ATOM     30  C   UNL     1       5.315  16.691  18.813  0.00  0.00    +0.000 C 
ATOM     31  O   UNL     1       5.226  15.612  19.739  0.00  0.00    +0.000 OA
ENDBRANCH  24  31
ENDBRANCH  23  27
ENDBRANCH   1  23
TORSDOF 6
ENDMDL
MODEL 4
REMARK VINA RESULT:      -8.2      2.498      4.307
REMARK  Name = 
REMARK  9 active torsions:
REMARK  status: ('A' for Active; 'I' for Inactive)
REMARK    1  A    between atoms: C_1  and  O_2
REMARK    2  A    between atoms: O_2  and  C_3
REMARK    3  A    between atoms: C_6  and  C_7
REMARK    4  A    between atoms: C_7  and  N_8
REMARK    5  A    between atoms: C_12  and  C_13
REMARK    6  A    between atoms: C_14  and  C_15
REMARK    7  A    between atoms: C_18  and  N_19
REMARK    8  A    between atoms: N_19  and  C_20
REMARK    9  A    between atoms: N_19  and  C_21
REMARK                            x       y       z     vdW  Elec       q    Type
REMARK                         _______ _______ _______ _____ _____    ______ ____
ROOT
ATOM      1  N   UNL     1       0.279  10.796  19.206  0.00  0.00    +0.000 N 
ATOM      2  C   UNL     1       1.195   9.890  18.688  0.00  0.00    +0.000 C 
ATOM      3  O   UNL     1       1.773   9.955  17.614  0.00  0.00    +0.000 OA
ATOM      4  C   UNL     1       1.396   8.849  19.776  0.00  0.00    +0.000 C 
ATOM      5  C   UNL     1       2.138   7.726  19.724  0.00  0.00    +0.000 C 
ATOM      6  C   UNL     1       0.615   9.319  20.928  0.00  0.00    +0.000 A 
ATOM      7  C   UNL     1       0.502   8.915  22.250  0.00  0.00    +0.000 A 
ATOM      8  C   UNL     1      -0.291   9.691  23.101  0.00  0.00    +0.000 A 
ATOM      9  C   UNL     1      -0.938  10.816  22.592  0.00  0.00    +0.000 A 
ATOM     10  N   UNL     1      -0.836  11.233  21.313  0.00  0.00    +0.000 NA
ATOM     11  C   UNL     1      -0.055  10.475  20.526  0.00  0.00    +0.000 A 
ENDROOT
BRANCH   5  12
ATOM     12  C   UNL     1       2.900   7.257  18.579  0.00  0.00    +0.000 C 
ATOM     13  C   UNL     1       3.461   6.038  18.463  0.00  0.00    +0.000 C 
BRANCH  13  14
ATOM     14  C   UNL     1       4.226   5.609  17.270  0.00  0.00    +0.000 A 
ATOM     15  C   UNL     1       4.790   6.522  16.377  0.00  0.00    +0.000 A 
ATOM     16  C   UNL     1       5.519   6.093  15.250  0.00  0.00    +0.000 A 
ATOM     17  C   UNL     1       5.742   4.738  14.960  0.00  0.00    +0.000 A 
ATOM     18  C   UNL     1       5.168   3.838  15.875  0.00  0.00    +0.000 A 
ATOM     19  C   UNL     1       4.437   4.255  17.009  0.00  0.00    +0.000 A 
BRANCH  17  20
ATOM     20  N   UNL     1       6.435   4.327  13.829  0.00  0.00    +0.000 N 
ATOM     21  C   UNL     1       5.830   3.458  12.816  0.00  0.00    +0.000 C 
ATOM     22  C   UNL     1       7.669   4.966  13.378  0.00  0.00    +0.000 C 
ENDBRANCH  17  20
ENDBRANCH  13  14
ENDBRANCH   5  12
BRANCH   1  23
ATOM     23  C   UNL     1      -0.037  12.084  18.632  0.00  0.00    +0.000 C 
BRANCH  23  27
ATOM     24  C   UNL     1       2.998  15.067  19.442  0.00  0.00    +0.000 A 
ATOM     25  C   UNL     1       1.815  15.039  20.181  0.00  0.00    +0.000 A 
ATOM     26  C   UNL     1       0.829  14.086  19.910  0.00  0.00    +0.000 A 
ATOM     27  C   UNL     1       0.998  13.158  18.874  0.00  0.00    +0.000 A 
ATOM     28  C   UNL     1       2.170  13.220  18.107  0.00  0.00    +0.000 A 
ATOM     29  C   UNL     1       3.168  14.160  18.397  0.00  0.00    +0.000 A 
BRANCH  24  31
ATOM     30  C   UNL     1       4.769  16.478  18.767  0.00  0.00    +0.000 C 
ATOM     31  O   UNL     1       3.899  16.033  19.804  0.00  0.00    +0.000 OA
ENDBRANCH  24  31
ENDBRANCH  23  27
ENDBRANCH   1  23
TORSDOF 6
ENDMDL
MODEL 5
REMARK VINA RESULT:      -8.2      2.318      3.899
REMARK  Name = 
REMARK  9 active torsions:
REMARK  status: ('A' for Active; 'I' for Inactive)
REMARK    1  A    between atoms: C_1  and  O_2
REMARK    2  A    between atoms: O_2  and  C_3
REMARK    3  A    between atoms: C_6  and  C_7
REMARK    4  A    between atoms: C_7  and  N_8
REMARK    5  A    between atoms: C_12  and  C_13
REMARK    6  A    between atoms: C_14  and  C_15
REMARK    7  A    between atoms: C_18  and  N_19
REMARK    8  A    between atoms: N_19  and  C_20
REMARK    9  A    between atoms: N_19  and  C_21
REMARK                            x       y       z     vdW  Elec       q    Type
REMARK                         _______ _______ _______ _____ _____    ______ ____
ROOT
ATOM      1  N   UNL     1       0.094  10.480  19.156  0.00  0.00    +0.000 N 
ATOM      2  C   UNL     1       1.026   9.602  18.617  0.00  0.00    +0.000 C 
ATOM      3  O   UNL     1       1.512   9.634  17.498  0.00  0.00    +0.000 OA
ATOM      4  C   UNL     1       1.381   8.647  19.744  0.00  0.00    +0.000 C 
ATOM      5  C   UNL     1       2.190   7.572  19.698  0.00  0.00    +0.000 C 
ATOM      6  C   UNL     1       0.662   9.140  20.928  0.00  0.00    +0.000 A 
ATOM      7  C   UNL     1       0.681   8.815  22.276  0.00  0.00    +0.000 A 
ATOM      8  C   UNL     1      -0.094   9.592  23.142  0.00  0.00    +0.000 A 
ATOM      9  C   UNL     1      -0.853  10.640  22.624  0.00  0.00    +0.000 A 
ATOM     10  N   UNL     1      -0.880  10.980  21.318  0.00  0.00    +0.000 NA
ATOM     11  C   UNL     1      -0.113  10.224  20.515  0.00  0.00    +0.000 A 
ENDROOT
BRANCH   5  12
ATOM     12  C   UNL     1       2.890   7.079  18.523  0.00  0.00    +0.000 C 
ATOM     13  C   UNL     1       3.784   6.072  18.514  0.00  0.00    +0.000 C 
BRANCH  13  14
ATOM     14  C   UNL     1       4.467   5.606  17.286  0.00  0.00    +0.000 A 
ATOM     15  C   UNL     1       4.642   4.251  16.998  0.00  0.00    +0.000 A 
ATOM     16  C   UNL     1       5.291   3.828  15.821  0.00  0.00    +0.000 A 
ATOM     17  C   UNL     1       5.784   4.725  14.860  0.00  0.00    +0.000 A 
ATOM     18  C   UNL     1       5.593   6.083  15.171  0.00  0.00    +0.000 A 
ATOM     19  C   UNL     1       4.943   6.520  16.345  0.00  0.00    +0.000 A 
BRANCH  17  20
ATOM     20  N   UNL     1       6.450   4.297  13.720  0.00  0.00    +0.000 N 
ATOM     21  C   UNL     1       5.850   3.355  12.771  0.00  0.00    +0.000 C 
ATOM     22  C   UNL     1       7.634   4.972  13.191  0.00  0.00    +0.000 C 
ENDBRANCH  17  20
ENDBRANCH  13  14
ENDBRANCH   5  12
BRANCH   1  23
ATOM     23  C   UNL     1      -0.351  11.707  18.535  0.00  0.00    +0.000 C 
BRANCH  23  27
ATOM     24  C   UNL     1       2.267  15.082  19.252  0.00  0.00    +0.000 A 
ATOM     25  C   UNL     1       0.894  15.271  19.090  0.00  0.00    +0.000 A 
ATOM     26  C   UNL     1       0.051  14.184  18.843  0.00  0.00    +0.000 A 
ATOM     27  C   UNL     1       0.571  12.888  18.728  0.00  0.00    +0.000 A 
ATOM     28  C   UNL     1       1.957  12.711  18.848  0.00  0.00    +0.000 A 
ATOM     29  C   UNL     1       2.798  13.800  19.119  0.00  0.00    +0.000 A 
BRANCH  24  31
ATOM     30  C   UNL     1       4.059  16.476  18.592  0.00  0.00    +0.000 C 
ATOM     31  O   UNL     1       2.995  16.215  19.504  0.00  0.00    +0.000 OA
ENDBRANCH  24  31
ENDBRANCH  23  27
ENDBRANCH   1  23
TORSDOF 6
ENDMDL
MODEL 6
REMARK VINA RESULT:      -8.1      2.677      4.584
REMARK  Name = 
REMARK  9 active torsions:
REMARK  status: ('A' for Active; 'I' for Inactive)
REMARK    1  A    between atoms: C_1  and  O_2
REMARK    2  A    between atoms: O_2  and  C_3
REMARK    3  A    between atoms: C_6  and  C_7
REMARK    4  A    between atoms: C_7  and  N_8
REMARK    5  A    between atoms: C_12  and  C_13
REMARK    6  A    between atoms: C_14  and  C_15
REMARK    7  A    between atoms: C_18  and  N_19
REMARK    8  A    between atoms: N_19  and  C_20
REMARK    9  A    between atoms: N_19  and  C_21
REMARK                            x       y       z     vdW  Elec       q    Type
REMARK                         _______ _______ _______ _____ _____    ______ ____
ROOT
ATOM      1  N   UNL     1       0.405  11.030  19.528  0.00  0.00    +0.000 N 
ATOM      2  C   UNL     1       1.257  10.083  18.973  0.00  0.00    +0.000 C 
ATOM      3  O   UNL     1       1.898  10.180  17.939  0.00  0.00    +0.000 OA
ATOM      4  C   UNL     1       1.293   8.938  19.970  0.00  0.00    +0.000 C 
ATOM      5  C   UNL     1       1.924   7.753  19.852  0.00  0.00    +0.000 C 
ATOM      6  C   UNL     1       0.498   9.384  21.123  0.00  0.00    +0.000 A 
ATOM      7  C   UNL     1       0.272   8.881  22.395  0.00  0.00    +0.000 A 
ATOM      8  C   UNL     1      -0.489   9.658  23.274  0.00  0.00    +0.000 A 
ATOM      9  C   UNL     1      -0.994  10.883  22.840  0.00  0.00    +0.000 A 
ATOM     10  N   UNL     1      -0.779  11.395  21.610  0.00  0.00    +0.000 NA
ATOM     11  C   UNL     1      -0.032  10.633  20.796  0.00  0.00    +0.000 A 
ENDROOT
BRANCH   5  12
ATOM     12  C   UNL     1       2.700   7.309  18.706  0.00  0.00    +0.000 C 
ATOM     13  C   UNL     1       3.249   6.087  18.564  0.00  0.00    +0.000 C 
BRANCH  13  14
ATOM     14  C   UNL     1       4.030   5.684  17.372  0.00  0.00    +0.000 A 
ATOM     15  C   UNL     1       4.244   4.345  17.039  0.00  0.00    +0.000 A 
ATOM     16  C   UNL     1       4.986   3.982  15.897  0.00  0.00    +0.000 A 
ATOM     17  C   UNL     1       5.537   4.926  15.017  0.00  0.00    +0.000 A 
ATOM     18  C   UNL     1       5.306   6.267  15.372  0.00  0.00    +0.000 A 
ATOM     19  C   UNL     1       4.563   6.644  16.512  0.00  0.00    +0.000 A 
BRANCH  17  20
ATOM     20  N   UNL     1       6.294   4.556  13.913  0.00  0.00    +0.000 N 
ATOM     21  C   UNL     1       7.684   4.985  13.739  0.00  0.00    +0.000 C 
ATOM     22  C   UNL     1       5.910   3.468  13.016  0.00  0.00    +0.000 C 
ENDBRANCH  17  20
ENDBRANCH  13  14
ENDBRANCH   5  12
BRANCH   1  23
ATOM     23  C   UNL     1       0.250  12.388  19.059  0.00  0.00    +0.000 C 
BRANCH  23  27
ATOM     24  C   UNL     1       3.849  14.749  19.544  0.00  0.00    +0.000 A 
ATOM     25  C   UNL     1       3.084  14.387  20.653  0.00  0.00    +0.000 A 
ATOM     26  C   UNL     1       1.913  13.638  20.496  0.00  0.00    +0.000 A 
ATOM     27  C   UNL     1       1.474  13.259  19.220  0.00  0.00    +0.000 A 
ATOM     28  C   UNL     1       2.225  13.664  18.107  0.00  0.00    +0.000 A 
ATOM     29  C   UNL     1       3.411  14.394  18.269  0.00  0.00    +0.000 A 
BRANCH  24  31
ATOM     30  C   UNL     1       6.159  15.040  19.139  0.00  0.00    +0.000 C 
ATOM     31  O   UNL     1       4.982  15.469  19.817  0.00  0.00    +0.000 OA
ENDBRANCH  24  31
ENDBRANCH  23  27
ENDBRANCH   1  23
TORSDOF 6
ENDMDL
MODEL 7
REMARK VINA RESULT:      -8.0      3.963      9.942
REMARK  Name = 
REMARK  9 active torsions:
REMARK  status: ('A' for Active; 'I' for Inactive)
REMARK    1  A    between atoms: C_1  and  O_2
REMARK    2  A    between atoms: O_2  and  C_3
REMARK    3  A    between atoms: C_6  and  C_7
REMARK    4  A    between atoms: C_7  and  N_8
REMARK    5  A    between atoms: C_12  and  C_13
REMARK    6  A    between atoms: C_14  and  C_15
REMARK    7  A    between atoms: C_18  and  N_19
REMARK    8  A    between atoms: N_19  and  C_20
REMARK    9  A    between atoms: N_19  and  C_21
REMARK                            x       y       z     vdW  Elec       q    Type
REMARK                         _______ _______ _______ _____ _____    ______ ____
ROOT
ATOM      1  N   UNL     1       4.752   5.115  18.180  0.00  0.00    +0.000 N 
ATOM      2  C   UNL     1       4.208   6.390  18.093  0.00  0.00    +0.000 C 
ATOM      3  O   UNL     1       4.797   7.430  17.842  0.00  0.00    +0.000 OA
ATOM      4  C   UNL     1       2.713   6.207  18.286  0.00  0.00    +0.000 C 
ATOM      5  C   UNL     1       1.761   7.158  18.355  0.00  0.00    +0.000 C 
ATOM      6  C   UNL     1       2.495   4.756  18.373  0.00  0.00    +0.000 A 
ATOM      7  C   UNL     1       1.369   3.946  18.396  0.00  0.00    +0.000 A 
ATOM      8  C   UNL     1       1.565   2.562  18.386  0.00  0.00    +0.000 A 
ATOM      9  C   UNL     1       2.865   2.057  18.367  0.00  0.00    +0.000 A 
ATOM     10  N   UNL     1       3.974   2.826  18.336  0.00  0.00    +0.000 NA
ATOM     11  C   UNL     1       3.751   4.150  18.330  0.00  0.00    +0.000 A 
ENDROOT
BRANCH   5  12
ATOM     12  C   UNL     1       1.981   8.593  18.281  0.00  0.00    +0.000 C 
ATOM     13  C   UNL     1       1.123   9.535  18.717  0.00  0.00    +0.000 C 
BRANCH  13  14
ATOM     14  C   UNL     1       1.397  10.987  18.620  0.00  0.00    +0.000 A 
ATOM     15  C   UNL     1       0.529  11.947  19.145  0.00  0.00    +0.000 A 
ATOM     16  C   UNL     1       0.810  13.324  19.046  0.00  0.00    +0.000 A 
ATOM     17  C   UNL     1       1.976  13.821  18.440  0.00  0.00    +0.000 A 
ATOM     18  C   UNL     1       2.835  12.835  17.923  0.00  0.00    +0.000 A 
ATOM     19  C   UNL     1       2.566  11.453  18.016  0.00  0.00    +0.000 A 
BRANCH  17  20
ATOM     20  N   UNL     1       2.226  15.181  18.320  0.00  0.00    +0.000 N 
ATOM     21  C   UNL     1       1.587  16.172  19.190  0.00  0.00    +0.000 C 
ATOM     22  C   UNL     1       3.362  15.717  17.573  0.00  0.00    +0.000 C 
ENDBRANCH  17  20
ENDBRANCH  13  14
ENDBRANCH   5  12
BRANCH   1  23
ATOM     23  C   UNL     1       6.105   4.760  17.821  0.00  0.00    +0.000 C 
BRANCH  23  27
ATOM     24  C   UNL     1       6.629   4.190  13.558  0.00  0.00    +0.000 A 
ATOM     25  C   UNL     1       5.680   3.449  14.262  0.00  0.00    +0.000 A 
ATOM     26  C   UNL     1       5.521   3.621  15.641  0.00  0.00    +0.000 A 
ATOM     27  C   UNL     1       6.329   4.523  16.345  0.00  0.00    +0.000 A 
ATOM     28  C   UNL     1       7.311   5.232  15.640  0.00  0.00    +0.000 A 
ATOM     29  C   UNL     1       7.452   5.076  14.253  0.00  0.00    +0.000 A 
BRANCH  24  31
ATOM     30  C   UNL     1       5.915   2.845  11.751  0.00  0.00    +0.000 C 
ATOM     31  O   UNL     1       6.687   3.951  12.211  0.00  0.00    +0.000 OA
ENDBRANCH  24  31
ENDBRANCH  23  27
ENDBRANCH   1  23
TORSDOF 6
ENDMDL
MODEL 8
REMARK VINA RESULT:      -7.9      3.866     10.023
REMARK  Name = 
REMARK  9 active torsions:
REMARK  status: ('A' for Active; 'I' for Inactive)
REMARK    1  A    between atoms: C_1  and  O_2
REMARK    2  A    between atoms: O_2  and  C_3
REMARK    3  A    between atoms: C_6  and  C_7
REMARK    4  A    between atoms: C_7  and  N_8
REMARK    5  A    between atoms: C_12  and  C_13
REMARK    6  A    between atoms: C_14  and  C_15
REMARK    7  A    between atoms: C_18  and  N_19
REMARK    8  A    between atoms: N_19  and  C_20
REMARK    9  A    between atoms: N_19  and  C_21
REMARK                            x       y       z     vdW  Elec       q    Type
REMARK                         _______ _______ _______ _____ _____    ______ ____
ROOT
ATOM      1  N   UNL     1       4.676   5.212  17.913  0.00  0.00    +0.000 N 
ATOM      2  C   UNL     1       4.099   6.473  17.846  0.00  0.00    +0.000 C 
ATOM      3  O   UNL     1       4.649   7.524  17.557  0.00  0.00    +0.000 OA
ATOM      4  C   UNL     1       2.620   6.256  18.116  0.00  0.00    +0.000 C 
ATOM      5  C   UNL     1       1.651   7.185  18.228  0.00  0.00    +0.000 C 
ATOM      6  C   UNL     1       2.442   4.801  18.224  0.00  0.00    +0.000 A 
ATOM      7  C   UNL     1       1.338   3.966  18.310  0.00  0.00    +0.000 A 
ATOM      8  C   UNL     1       1.566   2.586  18.299  0.00  0.00    +0.000 A 
ATOM      9  C   UNL     1       2.874   2.112  18.217  0.00  0.00    +0.000 A 
ATOM     10  N   UNL     1       3.962   2.906  18.124  0.00  0.00    +0.000 NA
ATOM     11  C   UNL     1       3.708   4.225  18.121  0.00  0.00    +0.000 A 
ENDROOT
BRANCH   5  12
ATOM     12  C   UNL     1       1.832   8.624  18.132  0.00  0.00    +0.000 C 
ATOM     13  C   UNL     1       1.139   9.544  18.832  0.00  0.00    +0.000 C 
BRANCH  13  14
ATOM     14  C   UNL     1       1.366  11.001  18.699  0.00  0.00    +0.000 A 
ATOM     15  C   UNL     1       2.538  11.527  18.150  0.00  0.00    +0.000 A 
ATOM     16  C   UNL     1       2.732  12.918  18.028  0.00  0.00    +0.000 A 
ATOM     17  C   UNL     1       1.768  13.858  18.427  0.00  0.00    +0.000 A 
ATOM     18  C   UNL     1       0.597  13.304  18.973  0.00  0.00    +0.000 A 
ATOM     19  C   UNL     1       0.389  11.913  19.099  0.00  0.00    +0.000 A 
BRANCH  17  20
ATOM     20  N   UNL     1       1.985  15.226  18.331  0.00  0.00    +0.000 N 
ATOM     21  C   UNL     1       1.256  16.192  19.157  0.00  0.00    +0.000 C 
ATOM     22  C   UNL     1       3.155  15.800  17.670  0.00  0.00    +0.000 C 
ENDBRANCH  17  20
ENDBRANCH  13  14
ENDBRANCH   5  12
BRANCH   1  23
ATOM     23  C   UNL     1       6.018   4.885  17.487  0.00  0.00    +0.000 C 
BRANCH  23  27
ATOM     24  C   UNL     1       6.568   4.177  13.249  0.00  0.00    +0.000 A 
ATOM     25  C   UNL     1       7.538   4.857  13.986  0.00  0.00    +0.000 A 
ATOM     26  C   UNL     1       7.354   5.099  15.351  0.00  0.00    +0.000 A 
ATOM     27  C   UNL     1       6.181   4.687  15.998  0.00  0.00    +0.000 A 
ATOM     28  C   UNL     1       5.192   4.044  15.241  0.00  0.00    +0.000 A 
ATOM     29  C   UNL     1       5.389   3.780  13.878  0.00  0.00    +0.000 A 
BRANCH  24  31
ATOM     30  C   UNL     1       6.759   2.637  11.466  0.00  0.00    +0.000 C 
ATOM     31  O   UNL     1       6.860   3.983  11.925  0.00  0.00    +0.000 OA
ENDBRANCH  24  31
ENDBRANCH  23  27
ENDBRANCH   1  23
TORSDOF 6
ENDMDL
MODEL 9
REMARK VINA RESULT:      -7.7      3.931      9.930
REMARK  Name = 
REMARK  9 active torsions:
REMARK  status: ('A' for Active; 'I' for Inactive)
REMARK    1  A    between atoms: C_1  and  O_2
REMARK    2  A    between atoms: O_2  and  C_3
REMARK    3  A    between atoms: C_6  and  C_7
REMARK    4  A    between atoms: C_7  and  N_8
REMARK    5  A    between atoms: C_12  and  C_13
REMARK    6  A    between atoms: C_14  and  C_15
REMARK    7  A    between atoms: C_18  and  N_19
REMARK    8  A    between atoms: N_19  and  C_20
REMARK    9  A    between atoms: N_19  and  C_21
REMARK                            x       y       z     vdW  Elec       q    Type
REMARK                         _______ _______ _______ _____ _____    ______ ____
ROOT
ATOM      1  N   UNL     1       4.719   5.018  18.244  0.00  0.00    +0.000 N 
ATOM      2  C   UNL     1       4.182   6.298  18.207  0.00  0.00    +0.000 C 
ATOM      3  O   UNL     1       4.776   7.343  17.990  0.00  0.00    +0.000 OA
ATOM      4  C   UNL     1       2.687   6.117  18.401  0.00  0.00    +0.000 C 
ATOM      5  C   UNL     1       1.742   7.070  18.511  0.00  0.00    +0.000 C 
ATOM      6  C   UNL     1       2.461   4.665  18.437  0.00  0.00    +0.000 A 
ATOM      7  C   UNL     1       1.330   3.862  18.437  0.00  0.00    +0.000 A 
ATOM      8  C   UNL     1       1.517   2.478  18.374  0.00  0.00    +0.000 A 
ATOM      9  C   UNL     1       2.813   1.966  18.329  0.00  0.00    +0.000 A 
ATOM     10  N   UNL     1       3.927   2.729  18.320  0.00  0.00    +0.000 NA
ATOM     11  C   UNL     1       3.713   4.054  18.364  0.00  0.00    +0.000 A 
ENDROOT
BRANCH   5  12
ATOM     12  C   UNL     1       1.970   8.506  18.488  0.00  0.00    +0.000 C 
ATOM     13  C   UNL     1       1.015   9.448  18.616  0.00  0.00    +0.000 C 
BRANCH  13  14
ATOM     14  C   UNL     1       1.302  10.900  18.589  0.00  0.00    +0.000 A 
ATOM     15  C   UNL     1       2.403  11.430  17.913  0.00  0.00    +0.000 A 
ATOM     16  C   UNL     1       2.656  12.817  17.894  0.00  0.00    +0.000 A 
ATOM     17  C   UNL     1       1.822  13.750  18.530  0.00  0.00    +0.000 A 
ATOM     18  C   UNL     1       0.719  13.193  19.201  0.00  0.00    +0.000 A 
ATOM     19  C   UNL     1       0.453  11.806  19.225  0.00  0.00    +0.000 A 
BRANCH  17  20
ATOM     20  N   UNL     1       2.100  15.111  18.532  0.00  0.00    +0.000 N 
ATOM     21  C   UNL     1       3.306  15.663  17.910  0.00  0.00    +0.000 C 
ATOM     22  C   UNL     1       1.095  16.126  18.843  0.00  0.00    +0.000 C 
ENDBRANCH  17  20
ENDBRANCH  13  14
ENDBRANCH   5  12
BRANCH   1  23
ATOM     23  C   UNL     1       6.068   4.667  17.864  0.00  0.00    +0.000 C 
BRANCH  23  27
ATOM     24  C   UNL     1       6.516   4.100  13.593  0.00  0.00    +0.000 A 
ATOM     25  C   UNL     1       5.739   3.221  14.347  0.00  0.00    +0.000 A 
ATOM     26  C   UNL     1       5.606   3.395  15.728  0.00  0.00    +0.000 A 
ATOM     27  C   UNL     1       6.272   4.439  16.384  0.00  0.00    +0.000 A 
ATOM     28  C   UNL     1       7.086   5.292  15.626  0.00  0.00    +0.000 A 
ATOM     29  C   UNL     1       7.198   5.131  14.238  0.00  0.00    +0.000 A 
BRANCH  24  31
ATOM     30  C   UNL     1       5.419   3.187  11.709  0.00  0.00    +0.000 C 
ATOM     31  O   UNL     1       6.562   3.844  12.248  0.00  0.00    +0.000 OA
ENDBRANCH  24  31
ENDBRANCH  23  27
ENDBRANCH   1  23
TORSDOF 6
ENDMDL
