MODEL 1
REMARK VINA RESULT:      -5.3      0.000      0.000
REMARK  Name = 
REMARK  4 active torsions:
REMARK  status: ('A' for Active; 'I' for Inactive)
REMARK    1  A    between atoms: C_1  and  C_2
REMARK    2  A    between atoms: C_4  and  O_5
REMARK    3  A    between atoms: C_8  and  C_9
REMARK    4  A    between atoms: C_9  and  O_11
REMARK                            x       y       z     vdW  Elec       q    Type
REMARK                         _______ _______ _______ _____ _____    ______ ____
ROOT
ATOM      1  C   UNL     1       7.126   5.588  19.359  0.00  0.00    +0.000 C 
ATOM      2  C   UNL     1       6.577   5.115  18.040  0.00  0.00    +0.000 A 
ATOM      3  C   UNL     1       7.279   5.483  16.871  0.00  0.00    +0.000 A 
ATOM      4  C   UNL     1       6.864   5.030  15.619  0.00  0.00    +0.000 A 
ATOM      5  C   UNL     1       5.747   4.223  15.497  0.00  0.00    +0.000 A 
ATOM      6  C   UNL     1       5.030   3.859  16.634  0.00  0.00    +0.000 A 
ATOM      7  C   UNL     1       5.430   4.300  17.908  0.00  0.00    +0.000 A 
ENDROOT
BRANCH   4   8
ATOM      8  O   UNL     1       7.545   5.352  14.486  0.00  0.00    +0.000 OA
ATOM      9  H   UNL     1       8.499   5.326  14.668  0.00  0.00    +0.000 HD
ENDBRANCH   4   8
BRANCH   7  10
ATOM     10  C   UNL     1       4.617   3.776  19.046  0.00  0.00    +0.000 C 
ATOM     11  O   UNL     1       3.651   4.368  19.490  0.00  0.00    +0.000 OA
BRANCH  10  12
ATOM     12  O   UNL     1       5.075   2.628  19.588  0.00  0.00    +0.000 OA
ATOM     13  H   UNL     1       5.997   2.415  19.365  0.00  0.00    +0.000 HD
ENDBRANCH  10  12
ENDBRANCH   7  10
TORSDOF 3
ENDMDL
MODEL 2
REMARK VINA RESULT:      -5.2      3.549      4.857
REMARK  Name = 
REMARK  4 active torsions:
REMARK  status: ('A' for Active; 'I' for Inactive)
REMARK    1  A    between atoms: C_1  and  C_2
REMARK    2  A    between atoms: C_4  and  O_5
REMARK    3  A    between atoms: C_8  and  C_9
REMARK    4  A    between atoms: C_9  and  O_11
REMARK                            x       y       z     vdW  Elec       q    Type
REMARK                         _______ _______ _______ _____ _____    ______ ____
ROOT
ATOM      1  C   UNL     1       1.881   2.833  21.537  0.00  0.00    +0.000 C 
ATOM      2  C   UNL     1       2.393   3.844  20.547  0.00  0.00    +0.000 A 
ATOM      3  C   UNL     1       1.942   5.176  20.682  0.00  0.00    +0.000 A 
ATOM      4  C   UNL     1       2.421   6.178  19.839  0.00  0.00    +0.000 A 
ATOM      5  C   UNL     1       3.337   5.884  18.844  0.00  0.00    +0.000 A 
ATOM      6  C   UNL     1       3.784   4.575  18.682  0.00  0.00    +0.000 A 
ATOM      7  C   UNL     1       3.319   3.547  19.522  0.00  0.00    +0.000 A 
ENDROOT
BRANCH   4   8
ATOM      8  O   UNL     1       2.019   7.471  19.973  0.00  0.00    +0.000 OA
ATOM      9  H   UNL     1       2.434   8.009  19.279  0.00  0.00    +0.000 HD
ENDBRANCH   4   8
BRANCH   7  10
ATOM     10  C   UNL     1       3.936   2.207  19.287  0.00  0.00    +0.000 C 
ATOM     11  O   UNL     1       3.439   1.376  18.550  0.00  0.00    +0.000 OA
BRANCH  10  12
ATOM     12  O   UNL     1       5.052   1.964  20.006  0.00  0.00    +0.000 OA
ATOM     13  H   UNL     1       5.726   2.662  19.955  0.00  0.00    +0.000 HD
ENDBRANCH  10  12
ENDBRANCH   7  10
TORSDOF 3
ENDMDL
MODEL 3
REMARK VINA RESULT:      -5.2      4.275      5.315
REMARK  Name = 
REMARK  4 active torsions:
REMARK  status: ('A' for Active; 'I' for Inactive)
REMARK    1  A    between atoms: C_1  and  C_2
REMARK    2  A    between atoms: C_4  and  O_5
REMARK    3  A    between atoms: C_8  and  C_9
REMARK    4  A    between atoms: C_9  and  O_11
REMARK                            x       y       z     vdW  Elec       q    Type
REMARK                         _______ _______ _______ _____ _____    ______ ____
ROOT
ATOM      1  C   UNL     1       1.708   2.700  21.598  0.00  0.00    +0.000 C 
ATOM      2  C   UNL     1       1.940   3.747  20.541  0.00  0.00    +0.000 A 
ATOM      3  C   UNL     1       1.953   5.098  20.952  0.00  0.00    +0.000 A 
ATOM      4  C   UNL     1       2.223   6.117  20.039  0.00  0.00    +0.000 A 
ATOM      5  C   UNL     1       2.468   5.825  18.709  0.00  0.00    +0.000 A 
ATOM      6  C   UNL     1       2.445   4.501  18.278  0.00  0.00    +0.000 A 
ATOM      7  C   UNL     1       2.179   3.455  19.180  0.00  0.00    +0.000 A 
ENDROOT
BRANCH   4   8
ATOM      8  O   UNL     1       2.267   7.422  20.424  0.00  0.00    +0.000 OA
ATOM      9  H   UNL     1       1.592   7.921  19.937  0.00  0.00    +0.000 HD
ENDBRANCH   4   8
BRANCH   7  10
ATOM     10  C   UNL     1       2.260   2.081  18.599  0.00  0.00    +0.000 C 
ATOM     11  O   UNL     1       3.303   1.456  18.534  0.00  0.00    +0.000 OA
BRANCH  10  12
ATOM     12  O   UNL     1       1.101   1.612  18.092  0.00  0.00    +0.000 OA
ATOM     13  H   UNL     1       0.336   1.695  18.685  0.00  0.00    +0.000 HD
ENDBRANCH  10  12
ENDBRANCH   7  10
TORSDOF 3
ENDMDL
MODEL 4
REMARK VINA RESULT:      -5.2      2.595      4.668
REMARK  Name = 
REMARK  4 active torsions:
REMARK  status: ('A' for Active; 'I' for Inactive)
REMARK    1  A    between atoms: C_1  and  C_2
REMARK    2  A    between atoms: C_4  and  O_5
REMARK    3  A    between atoms: C_8  and  C_9
REMARK    4  A    between atoms: C_9  and  O_11
REMARK                            x       y       z     vdW  Elec       q    Type
REMARK                         _______ _______ _______ _____ _____    ______ ____
ROOT
ATOM      1  C   UNL     1       3.115   6.152  17.943  0.00  0.00    +0.000 C 
ATOM      2  C   UNL     1       2.978   4.700  18.318  0.00  0.00    +0.000 A 
ATOM      3  C   UNL     1       1.687   4.131  18.262  0.00  0.00    +0.000 A 
ATOM      4  C   UNL     1       1.494   2.777  18.536  0.00  0.00    +0.000 A 
ATOM      5  C   UNL     1       2.562   1.969  18.884  0.00  0.00    +0.000 A 
ATOM      6  C   UNL     1       3.842   2.513  18.961  0.00  0.00    +0.000 A 
ATOM      7  C   UNL     1       4.064   3.874  18.685  0.00  0.00    +0.000 A 
ENDROOT
BRANCH   4   8
ATOM      8  O   UNL     1       0.261   2.206  18.459  0.00  0.00    +0.000 OA
ATOM      9  H   UNL     1       0.342   1.250  18.611  0.00  0.00    +0.000 HD
ENDBRANCH   4   8
BRANCH   7  10
ATOM     10  C   UNL     1       5.493   4.307  18.732  0.00  0.00    +0.000 C 
ATOM     11  O   UNL     1       5.962   4.919  19.674  0.00  0.00    +0.000 OA
BRANCH  10  12
ATOM     12  O   UNL     1       6.206   4.027  17.621  0.00  0.00    +0.000 OA
ATOM     13  H   UNL     1       6.311   3.079  17.437  0.00  0.00    +0.000 HD
ENDBRANCH  10  12
ENDBRANCH   7  10
TORSDOF 3
ENDMDL
MODEL 5
REMARK VINA RESULT:      -5.1      2.167      4.274
REMARK  Name = 
REMARK  4 active torsions:
REMARK  status: ('A' for Active; 'I' for Inactive)
REMARK    1  A    between atoms: C_1  and  C_2
REMARK    2  A    between atoms: C_4  and  O_5
REMARK    3  A    between atoms: C_8  and  C_9
REMARK    4  A    between atoms: C_9  and  O_11
REMARK                            x       y       z     vdW  Elec       q    Type
REMARK                         _______ _______ _______ _____ _____    ______ ____
ROOT
ATOM      1  C   UNL     1       4.669   3.919  17.392  0.00  0.00    +0.000 C 
ATOM      2  C   UNL     1       5.766   4.887  17.748  0.00  0.00    +0.000 A 
ATOM      3  C   UNL     1       6.320   4.798  19.044  0.00  0.00    +0.000 A 
ATOM      4  C   UNL     1       7.381   5.621  19.422  0.00  0.00    +0.000 A 
ATOM      5  C   UNL     1       7.900   6.551  18.540  0.00  0.00    +0.000 A 
ATOM      6  C   UNL     1       7.360   6.667  17.261  0.00  0.00    +0.000 A 
ATOM      7  C   UNL     1       6.293   5.847  16.854  0.00  0.00    +0.000 A 
ENDROOT
BRANCH   4   8
ATOM      8  O   UNL     1       7.945   5.529  20.657  0.00  0.00    +0.000 OA
ATOM      9  H   UNL     1       7.371   5.971  21.304  0.00  0.00    +0.000 HD
ENDBRANCH   4   8
BRANCH   7  10
ATOM     10  C   UNL     1       5.860   6.025  15.436  0.00  0.00    +0.000 C 
ATOM     11  O   UNL     1       6.322   5.366  14.521  0.00  0.00    +0.000 OA
BRANCH  10  12
ATOM     12  O   UNL     1       4.969   7.018  15.235  0.00  0.00    +0.000 OA
ATOM     13  H   UNL     1       4.081   6.718  14.980  0.00  0.00    +0.000 HD
ENDBRANCH  10  12
ENDBRANCH   7  10
TORSDOF 3
ENDMDL
MODEL 6
REMARK VINA RESULT:      -5.1      1.716      4.149
REMARK  Name = 
REMARK  4 active torsions:
REMARK  status: ('A' for Active; 'I' for Inactive)
REMARK    1  A    between atoms: C_1  and  C_2
REMARK    2  A    between atoms: C_4  and  O_5
REMARK    3  A    between atoms: C_8  and  C_9
REMARK    4  A    between atoms: C_9  and  O_11
REMARK                            x       y       z     vdW  Elec       q    Type
REMARK                         _______ _______ _______ _____ _____    ______ ____
ROOT
ATOM      1  C   UNL     1       5.536   4.160  15.232  0.00  0.00    +0.000 C 
ATOM      2  C   UNL     1       5.110   4.225  16.675  0.00  0.00    +0.000 A 
ATOM      3  C   UNL     1       3.796   3.812  16.987  0.00  0.00    +0.000 A 
ATOM      4  C   UNL     1       3.353   3.787  18.310  0.00  0.00    +0.000 A 
ATOM      5  C   UNL     1       4.189   4.182  19.340  0.00  0.00    +0.000 A 
ATOM      6  C   UNL     1       5.483   4.608  19.054  0.00  0.00    +0.000 A 
ATOM      7  C   UNL     1       5.955   4.639  17.729  0.00  0.00    +0.000 A 
ENDROOT
BRANCH   4   8
ATOM      8  O   UNL     1       2.100   3.365  18.631  0.00  0.00    +0.000 OA
ATOM      9  H   UNL     1       2.164   2.606  19.233  0.00  0.00    +0.000 HD
ENDBRANCH   4   8
BRANCH   7  10
ATOM     10  C   UNL     1       7.384   5.045  17.574  0.00  0.00    +0.000 C 
ATOM     11  O   UNL     1       7.716   6.177  17.272  0.00  0.00    +0.000 OA
BRANCH  10  12
ATOM     12  O   UNL     1       8.277   4.044  17.726  0.00  0.00    +0.000 OA
ATOM     13  H   UNL     1       9.201   4.335  17.798  0.00  0.00    +0.000 HD
ENDBRANCH  10  12
ENDBRANCH   7  10
TORSDOF 3
ENDMDL
MODEL 7
REMARK VINA RESULT:      -5.1      2.691      4.798
REMARK  Name = 
REMARK  4 active torsions:
REMARK  status: ('A' for Active; 'I' for Inactive)
REMARK    1  A    between atoms: C_1  and  C_2
REMARK    2  A    between atoms: C_4  and  O_5
REMARK    3  A    between atoms: C_8  and  C_9
REMARK    4  A    between atoms: C_9  and  O_11
REMARK                            x       y       z     vdW  Elec       q    Type
REMARK                         _______ _______ _______ _____ _____    ______ ____
ROOT
ATOM      1  C   UNL     1       3.117   6.254  18.358  0.00  0.00    +0.000 C 
ATOM      2  C   UNL     1       2.888   4.765  18.350  0.00  0.00    +0.000 A 
ATOM      3  C   UNL     1       1.622   4.298  18.765  0.00  0.00    +0.000 A 
ATOM      4  C   UNL     1       1.317   2.937  18.725  0.00  0.00    +0.000 A 
ATOM      5  C   UNL     1       2.257   2.018  18.293  0.00  0.00    +0.000 A 
ATOM      6  C   UNL     1       3.517   2.455  17.893  0.00  0.00    +0.000 A 
ATOM      7  C   UNL     1       3.847   3.821  17.920  0.00  0.00    +0.000 A 
ENDROOT
BRANCH   4   8
ATOM      8  O   UNL     1       0.093   2.472  19.095  0.00  0.00    +0.000 OA
ATOM      9  H   UNL     1      -0.223   2.977  19.861  0.00  0.00    +0.000 HD
ENDBRANCH   4   8
BRANCH   7  10
ATOM     10  C   UNL     1       5.205   4.157  17.395  0.00  0.00    +0.000 C 
ATOM     11  O   UNL     1       5.392   4.532  16.252  0.00  0.00    +0.000 OA
BRANCH  10  12
ATOM     12  O   UNL     1       6.216   3.948  18.264  0.00  0.00    +0.000 OA
ATOM     13  H   UNL     1       6.160   4.471  19.082  0.00  0.00    +0.000 HD
ENDBRANCH  10  12
ENDBRANCH   7  10
TORSDOF 3
ENDMDL
MODEL 8
REMARK VINA RESULT:      -5.1      2.181      2.495
REMARK  Name = 
REMARK  4 active torsions:
REMARK  status: ('A' for Active; 'I' for Inactive)
REMARK    1  A    between atoms: C_1  and  C_2
REMARK    2  A    between atoms: C_4  and  O_5
REMARK    3  A    between atoms: C_8  and  C_9
REMARK    4  A    between atoms: C_9  and  O_11
REMARK                            x       y       z     vdW  Elec       q    Type
REMARK                         _______ _______ _______ _____ _____    ______ ____
ROOT
ATOM      1  C   UNL     1       3.038   7.184  18.095  0.00  0.00    +0.000 C 
ATOM      2  C   UNL     1       3.926   6.134  17.480  0.00  0.00    +0.000 A 
ATOM      3  C   UNL     1       5.171   6.554  16.963  0.00  0.00    +0.000 A 
ATOM      4  C   UNL     1       6.070   5.628  16.434  0.00  0.00    +0.000 A 
ATOM      5  C   UNL     1       5.753   4.282  16.392  0.00  0.00    +0.000 A 
ATOM      6  C   UNL     1       4.524   3.847  16.883  0.00  0.00    +0.000 A 
ATOM      7  C   UNL     1       3.602   4.760  17.425  0.00  0.00    +0.000 A 
ENDROOT
BRANCH   4   8
ATOM      8  O   UNL     1       7.285   6.012  15.957  0.00  0.00    +0.000 OA
ATOM      9  H   UNL     1       7.642   6.716  16.521  0.00  0.00    +0.000 HD
ENDBRANCH   4   8
BRANCH   7  10
ATOM     10  C   UNL     1       2.357   4.150  17.982  0.00  0.00    +0.000 C 
ATOM     11  O   UNL     1       1.303   4.137  17.373  0.00  0.00    +0.000 OA
BRANCH  10  12
ATOM     12  O   UNL     1       2.474   3.675  19.240  0.00  0.00    +0.000 OA
ATOM     13  H   UNL     1       2.937   2.824  19.309  0.00  0.00    +0.000 HD
ENDBRANCH  10  12
ENDBRANCH   7  10
TORSDOF 3
ENDMDL
MODEL 9
REMARK VINA RESULT:      -5.1      2.833      4.619
REMARK  Name = 
REMARK  4 active torsions:
REMARK  status: ('A' for Active; 'I' for Inactive)
REMARK    1  A    between atoms: C_1  and  C_2
REMARK    2  A    between atoms: C_4  and  O_5
REMARK    3  A    between atoms: C_8  and  C_9
REMARK    4  A    between atoms: C_9  and  O_11
REMARK                            x       y       z     vdW  Elec       q    Type
REMARK                         _______ _______ _______ _____ _____    ______ ____
ROOT
ATOM      1  C   UNL     1       2.795   7.558  18.118  0.00  0.00    +0.000 C 
ATOM      2  C   UNL     1       3.029   6.103  17.806  0.00  0.00    +0.000 A 
ATOM      3  C   UNL     1       1.997   5.194  18.126  0.00  0.00    +0.000 A 
ATOM      4  C   UNL     1       2.118   3.841  17.809  0.00  0.00    +0.000 A 
ATOM      5  C   UNL     1       3.258   3.361  17.189  0.00  0.00    +0.000 A 
ATOM      6  C   UNL     1       4.295   4.238  16.878  0.00  0.00    +0.000 A 
ATOM      7  C   UNL     1       4.196   5.607  17.184  0.00  0.00    +0.000 A 
ENDROOT
BRANCH   4   8
ATOM      8  O   UNL     1       1.122   2.955  18.084  0.00  0.00    +0.000 OA
ATOM      9  H   UNL     1       0.424   3.406  18.587  0.00  0.00    +0.000 HD
ENDBRANCH   4   8
BRANCH   7  10
ATOM     10  C   UNL     1       5.346   6.444  16.728  0.00  0.00    +0.000 C 
ATOM     11  O   UNL     1       6.206   6.848  17.490  0.00  0.00    +0.000 OA
BRANCH  10  12
ATOM     12  O   UNL     1       5.323   6.775  15.420  0.00  0.00    +0.000 OA
ATOM     13  H   UNL     1       4.657   7.441  15.184  0.00  0.00    +0.000 HD
ENDBRANCH  10  12
ENDBRANCH   7  10
TORSDOF 3
ENDMDL
