MODEL 1
REMARK VINA RESULT:      -6.6      0.000      0.000
REMARK  Name = 
REMARK  6 active torsions:
REMARK  status: ('A' for Active; 'I' for Inactive)
REMARK    1  A    between atoms: C_1  and  O_2
REMARK    2  A    between atoms: O_2  and  C_3
REMARK    3  A    between atoms: C_3  and  C_5
REMARK    4  A    between atoms: C_8  and  C_9
REMARK    5  A    between atoms: C_10  and  N_11
REMARK    6  A    between atoms: N_14  and  C_15
REMARK                            x       y       z     vdW  Elec       q    Type
REMARK                         _______ _______ _______ _____ _____    ______ ____
ROOT
ATOM      1  N   UNL     1       5.523   3.156  15.798  0.00  0.00    +0.000 N 
ATOM      2  C   UNL     1       4.547   3.639  16.645  0.00  0.00    +0.000 C 
ATOM      3  O   UNL     1       4.092   4.776  16.645  0.00  0.00    +0.000 OA
ATOM      4  N   UNL     1       4.148   2.692  17.588  0.00  0.00    +0.000 N 
ATOM      5  H   UNL     1       5.830   2.199  15.950  0.00  0.00    +0.000 HD
ATOM      6  H   UNL     1       4.882   2.078  17.905  0.00  0.00    +0.000 HD
ENDROOT
BRANCH   1  12
ATOM      7  C   UNL     1       7.173   4.826  15.166  0.00  0.00    +0.000 A 
ATOM      8  S   UNL     1       7.863   5.603  13.800  0.00  0.00    +0.000 S 
ATOM      9  C   UNL     1       6.937   4.689  12.726  0.00  0.00    +0.000 A 
ATOM     10  C   UNL     1       6.114   3.771  13.351  0.00  0.00    +0.000 A 
ATOM     11  C   UNL     1       5.283   2.841  12.524  0.00  0.00    +0.000 C 
ATOM     12  C   UNL     1       6.220   3.866  14.800  0.00  0.00    +0.000 A 
BRANCH   7  13
ATOM     13  C   UNL     1       7.585   5.219  16.505  0.00  0.00    +0.000 C 
ATOM     14  O   UNL     1       7.940   4.430  17.378  0.00  0.00    +0.000 OA
BRANCH  13  16
ATOM     15  C   UNL     1       7.762   7.057  17.995  0.00  0.00    +0.000 C 
ATOM     16  O   UNL     1       7.508   6.572  16.680  0.00  0.00    +0.000 OA
ENDBRANCH  13  16
ENDBRANCH   7  13
ENDBRANCH   1  12
BRANCH   4  17
ATOM     17  C   UNL     1       3.143   3.011  18.538  0.00  0.00    +0.000 A 
ATOM     18  C   UNL     1       3.451   3.650  19.745  0.00  0.00    +0.000 A 
ATOM     19  C   UNL     1       2.457   3.886  20.699  0.00  0.00    +0.000 A 
ATOM     20  C   UNL     1       1.151   3.475  20.450  0.00  0.00    +0.000 A 
ATOM     21  C   UNL     1       0.835   2.854  19.243  0.00  0.00    +0.000 A 
ATOM     22  C   UNL     1       1.823   2.643  18.275  0.00  0.00    +0.000 A 
ENDBRANCH   4  17
TORSDOF 4
ENDMDL
MODEL 2
REMARK VINA RESULT:      -6.5      0.700      1.008
REMARK  Name = 
REMARK  6 active torsions:
REMARK  status: ('A' for Active; 'I' for Inactive)
REMARK    1  A    between atoms: C_1  and  O_2
REMARK    2  A    between atoms: O_2  and  C_3
REMARK    3  A    between atoms: C_3  and  C_5
REMARK    4  A    between atoms: C_8  and  C_9
REMARK    5  A    between atoms: C_10  and  N_11
REMARK    6  A    between atoms: N_14  and  C_15
REMARK                            x       y       z     vdW  Elec       q    Type
REMARK                         _______ _______ _______ _____ _____    ______ ____
ROOT
ATOM      1  N   UNL     1       5.646   3.189  15.451  0.00  0.00    +0.000 N 
ATOM      2  C   UNL     1       4.701   3.727  16.299  0.00  0.00    +0.000 C 
ATOM      3  O   UNL     1       4.261   4.868  16.255  0.00  0.00    +0.000 OA
ATOM      4  N   UNL     1       4.316   2.833  17.298  0.00  0.00    +0.000 N 
ATOM      5  H   UNL     1       5.945   2.236  15.641  0.00  0.00    +0.000 HD
ATOM      6  H   UNL     1       5.052   2.225  17.626  0.00  0.00    +0.000 HD
ENDROOT
BRANCH   1  12
ATOM      7  C   UNL     1       7.219   4.878  14.687  0.00  0.00    +0.000 A 
ATOM      8  S   UNL     1       7.892   5.561  13.264  0.00  0.00    +0.000 S 
ATOM      9  C   UNL     1       7.037   4.502  12.267  0.00  0.00    +0.000 A 
ATOM     10  C   UNL     1       6.251   3.603  12.964  0.00  0.00    +0.000 A 
ATOM     11  C   UNL     1       5.485   2.557  12.218  0.00  0.00    +0.000 C 
ATOM     12  C   UNL     1       6.324   3.839  14.400  0.00  0.00    +0.000 A 
BRANCH   7  13
ATOM     13  C   UNL     1       7.584   5.417  15.989  0.00  0.00    +0.000 C 
ATOM     14  O   UNL     1       7.551   6.611  16.276  0.00  0.00    +0.000 OA
BRANCH  13  16
ATOM     15  C   UNL     1       7.714   4.646  18.229  0.00  0.00    +0.000 C 
ATOM     16  O   UNL     1       7.987   4.433  16.846  0.00  0.00    +0.000 OA
ENDBRANCH  13  16
ENDBRANCH   7  13
ENDBRANCH   1  12
BRANCH   4  17
ATOM     17  C   UNL     1       3.343   3.212  18.258  0.00  0.00    +0.000 A 
ATOM     18  C   UNL     1       3.685   3.947  19.400  0.00  0.00    +0.000 A 
ATOM     19  C   UNL     1       2.725   4.244  20.370  0.00  0.00    +0.000 A 
ATOM     20  C   UNL     1       1.416   3.799  20.204  0.00  0.00    +0.000 A 
ATOM     21  C   UNL     1       1.066   3.081  19.061  0.00  0.00    +0.000 A 
ATOM     22  C   UNL     1       2.020   2.808  18.076  0.00  0.00    +0.000 A 
ENDBRANCH   4  17
TORSDOF 4
ENDMDL
MODEL 3
REMARK VINA RESULT:      -6.5      0.087      1.082
REMARK  Name = 
REMARK  6 active torsions:
REMARK  status: ('A' for Active; 'I' for Inactive)
REMARK    1  A    between atoms: C_1  and  O_2
REMARK    2  A    between atoms: O_2  and  C_3
REMARK    3  A    between atoms: C_3  and  C_5
REMARK    4  A    between atoms: C_8  and  C_9
REMARK    5  A    between atoms: C_10  and  N_11
REMARK    6  A    between atoms: N_14  and  C_15
REMARK                            x       y       z     vdW  Elec       q    Type
REMARK                         _______ _______ _______ _____ _____    ______ ____
ROOT
ATOM      1  N   UNL     1       5.509   3.127  15.830  0.00  0.00    +0.000 N 
ATOM      2  C   UNL     1       4.528   3.596  16.678  0.00  0.00    +0.000 C 
ATOM      3  O   UNL     1       4.053   4.724  16.675  0.00  0.00    +0.000 OA
ATOM      4  N   UNL     1       4.147   2.645  17.624  0.00  0.00    +0.000 N 
ATOM      5  H   UNL     1       5.833   2.176  15.984  0.00  0.00    +0.000 HD
ATOM      6  H   UNL     1       4.893   2.045  17.942  0.00  0.00    +0.000 HD
ENDROOT
BRANCH   1  12
ATOM      7  C   UNL     1       7.144   4.808  15.188  0.00  0.00    +0.000 A 
ATOM      8  S   UNL     1       7.815   5.596  13.819  0.00  0.00    +0.000 S 
ATOM      9  C   UNL     1       6.882   4.683  12.750  0.00  0.00    +0.000 A 
ATOM     10  C   UNL     1       6.070   3.758  13.379  0.00  0.00    +0.000 A 
ATOM     11  C   UNL     1       5.233   2.829  12.557  0.00  0.00    +0.000 C 
ATOM     12  C   UNL     1       6.192   3.846  14.828  0.00  0.00    +0.000 A 
BRANCH   7  13
ATOM     13  C   UNL     1       7.570   5.196  16.525  0.00  0.00    +0.000 C 
ATOM     14  O   UNL     1       7.915   4.402  17.397  0.00  0.00    +0.000 OA
BRANCH  13  16
ATOM     15  C   UNL     1       7.746   7.030  18.020  0.00  0.00    +0.000 C 
ATOM     16  O   UNL     1       7.517   6.550  16.698  0.00  0.00    +0.000 OA
ENDBRANCH  13  16
ENDBRANCH   7  13
ENDBRANCH   1  12
BRANCH   4  17
ATOM     17  C   UNL     1       3.139   2.949  18.576  0.00  0.00    +0.000 A 
ATOM     18  C   UNL     1       1.795   2.626  18.350  0.00  0.00    +0.000 A 
ATOM     19  C   UNL     1       0.809   3.002  19.266  0.00  0.00    +0.000 A 
ATOM     20  C   UNL     1       1.164   3.710  20.410  0.00  0.00    +0.000 A 
ATOM     21  C   UNL     1       2.503   4.019  20.649  0.00  0.00    +0.000 A 
ATOM     22  C   UNL     1       3.494   3.619  19.747  0.00  0.00    +0.000 A 
ENDBRANCH   4  17
TORSDOF 4
ENDMDL
MODEL 4
REMARK VINA RESULT:      -6.4      0.728      1.488
REMARK  Name = 
REMARK  6 active torsions:
REMARK  status: ('A' for Active; 'I' for Inactive)
REMARK    1  A    between atoms: C_1  and  O_2
REMARK    2  A    between atoms: O_2  and  C_3
REMARK    3  A    between atoms: C_3  and  C_5
REMARK    4  A    between atoms: C_8  and  C_9
REMARK    5  A    between atoms: C_10  and  N_11
REMARK    6  A    between atoms: N_14  and  C_15
REMARK                            x       y       z     vdW  Elec       q    Type
REMARK                         _______ _______ _______ _____ _____    ______ ____
ROOT
ATOM      1  N   UNL     1       5.639   3.178  15.449  0.00  0.00    +0.000 N 
ATOM      2  C   UNL     1       4.702   3.713  16.307  0.00  0.00    +0.000 C 
ATOM      3  O   UNL     1       4.260   4.855  16.271  0.00  0.00    +0.000 OA
ATOM      4  N   UNL     1       4.325   2.817  17.307  0.00  0.00    +0.000 N 
ATOM      5  H   UNL     1       5.940   2.225  15.635  0.00  0.00    +0.000 HD
ATOM      6  H   UNL     1       5.064   2.207  17.626  0.00  0.00    +0.000 HD
ENDROOT
BRANCH   1  12
ATOM      7  C   UNL     1       7.203   4.872  14.677  0.00  0.00    +0.000 A 
ATOM      8  S   UNL     1       7.864   5.559  13.250  0.00  0.00    +0.000 S 
ATOM      9  C   UNL     1       7.003   4.500  12.258  0.00  0.00    +0.000 A 
ATOM     10  C   UNL     1       6.224   3.599  12.960  0.00  0.00    +0.000 A 
ATOM     11  C   UNL     1       5.455   2.552  12.217  0.00  0.00    +0.000 C 
ATOM     12  C   UNL     1       6.308   3.832  14.395  0.00  0.00    +0.000 A 
BRANCH   7  13
ATOM     13  C   UNL     1       7.577   5.409  15.977  0.00  0.00    +0.000 C 
ATOM     14  O   UNL     1       7.545   6.603  16.267  0.00  0.00    +0.000 OA
BRANCH  13  16
ATOM     15  C   UNL     1       7.737   4.642  18.217  0.00  0.00    +0.000 C 
ATOM     16  O   UNL     1       7.986   4.424  16.831  0.00  0.00    +0.000 OA
ENDBRANCH  13  16
ENDBRANCH   7  13
ENDBRANCH   1  12
BRANCH   4  17
ATOM     17  C   UNL     1       3.360   3.192  18.277  0.00  0.00    +0.000 A 
ATOM     18  C   UNL     1       2.000   2.903  18.108  0.00  0.00    +0.000 A 
ATOM     19  C   UNL     1       1.057   3.348  19.038  0.00  0.00    +0.000 A 
ATOM     20  C   UNL     1       1.472   4.091  20.139  0.00  0.00    +0.000 A 
ATOM     21  C   UNL     1       2.827   4.367  20.322  0.00  0.00    +0.000 A 
ATOM     22  C   UNL     1       3.774   3.898  19.406  0.00  0.00    +0.000 A 
ENDBRANCH   4  17
TORSDOF 4
ENDMDL
MODEL 5
REMARK VINA RESULT:      -6.3      4.462      6.442
REMARK  Name = 
REMARK  6 active torsions:
REMARK  status: ('A' for Active; 'I' for Inactive)
REMARK    1  A    between atoms: C_1  and  O_2
REMARK    2  A    between atoms: O_2  and  C_3
REMARK    3  A    between atoms: C_3  and  C_5
REMARK    4  A    between atoms: C_8  and  C_9
REMARK    5  A    between atoms: C_10  and  N_11
REMARK    6  A    between atoms: N_14  and  C_15
REMARK                            x       y       z     vdW  Elec       q    Type
REMARK                         _______ _______ _______ _____ _____    ______ ____
ROOT
ATOM      1  N   UNL     1       2.998   5.738  20.075  0.00  0.00    +0.000 N 
ATOM      2  C   UNL     1       1.893   6.471  20.454  0.00  0.00    +0.000 C 
ATOM      3  O   UNL     1       0.742   6.060  20.514  0.00  0.00    +0.000 OA
ATOM      4  N   UNL     1       2.207   7.804  20.719  0.00  0.00    +0.000 N 
ATOM      5  H   UNL     1       3.885   6.233  20.032  0.00  0.00    +0.000 HD
ATOM      6  H   UNL     1       2.936   8.189  20.137  0.00  0.00    +0.000 HD
ENDROOT
BRANCH   1  12
ATOM      7  C   UNL     1       3.537   4.087  18.374  0.00  0.00    +0.000 A 
ATOM      8  S   UNL     1       3.436   2.409  18.031  0.00  0.00    +0.000 S 
ATOM      9  C   UNL     1       2.744   2.073  19.532  0.00  0.00    +0.000 A 
ATOM     10  C   UNL     1       2.593   3.191  20.332  0.00  0.00    +0.000 A 
ATOM     11  C   UNL     1       2.055   3.040  21.720  0.00  0.00    +0.000 C 
ATOM     12  C   UNL     1       3.029   4.398  19.642  0.00  0.00    +0.000 A 
BRANCH   7  13
ATOM     13  C   UNL     1       4.080   4.997  17.375  0.00  0.00    +0.000 C 
ATOM     14  O   UNL     1       3.870   6.208  17.358  0.00  0.00    +0.000 OA
BRANCH  13  16
ATOM     15  C   UNL     1       6.203   4.727  16.350  0.00  0.00    +0.000 C 
ATOM     16  O   UNL     1       4.836   4.336  16.448  0.00  0.00    +0.000 OA
ENDBRANCH  13  16
ENDBRANCH   7  13
ENDBRANCH   1  12
BRANCH   4  17
ATOM     17  C   UNL     1       1.195   8.708  21.133  0.00  0.00    +0.000 A 
ATOM     18  C   UNL     1       0.511   9.515  20.215  0.00  0.00    +0.000 A 
ATOM     19  C   UNL     1      -0.429  10.452  20.653  0.00  0.00    +0.000 A 
ATOM     20  C   UNL     1      -0.683  10.589  22.015  0.00  0.00    +0.000 A 
ATOM     21  C   UNL     1      -0.018   9.776  22.932  0.00  0.00    +0.000 A 
ATOM     22  C   UNL     1       0.902   8.819  22.493  0.00  0.00    +0.000 A 
ENDBRANCH   4  17
TORSDOF 4
ENDMDL
MODEL 6
REMARK VINA RESULT:      -6.3      4.439      6.425
REMARK  Name = 
REMARK  6 active torsions:
REMARK  status: ('A' for Active; 'I' for Inactive)
REMARK    1  A    between atoms: C_1  and  O_2
REMARK    2  A    between atoms: O_2  and  C_3
REMARK    3  A    between atoms: C_3  and  C_5
REMARK    4  A    between atoms: C_8  and  C_9
REMARK    5  A    between atoms: C_10  and  N_11
REMARK    6  A    between atoms: N_14  and  C_15
REMARK                            x       y       z     vdW  Elec       q    Type
REMARK                         _______ _______ _______ _____ _____    ______ ____
ROOT
ATOM      1  N   UNL     1       2.954   5.650  20.056  0.00  0.00    +0.000 N 
ATOM      2  C   UNL     1       1.893   6.434  20.458  0.00  0.00    +0.000 C 
ATOM      3  O   UNL     1       0.726   6.075  20.548  0.00  0.00    +0.000 OA
ATOM      4  N   UNL     1       2.273   7.753  20.706  0.00  0.00    +0.000 N 
ATOM      5  H   UNL     1       3.861   6.104  19.989  0.00  0.00    +0.000 HD
ATOM      6  H   UNL     1       3.005   8.101  20.104  0.00  0.00    +0.000 HD
ENDROOT
BRANCH   1  12
ATOM      7  C   UNL     1       3.393   3.964  18.359  0.00  0.00    +0.000 A 
ATOM      8  S   UNL     1       3.205   2.291  18.028  0.00  0.00    +0.000 S 
ATOM      9  C   UNL     1       2.514   1.999  19.539  0.00  0.00    +0.000 A 
ATOM     10  C   UNL     1       2.428   3.127  20.333  0.00  0.00    +0.000 A 
ATOM     11  C   UNL     1       1.898   3.011  21.728  0.00  0.00    +0.000 C 
ATOM     12  C   UNL     1       2.915   4.307  19.631  0.00  0.00    +0.000 A 
BRANCH   7  13
ATOM     13  C   UNL     1       3.969   4.841  17.350  0.00  0.00    +0.000 C 
ATOM     14  O   UNL     1       3.922   6.068  17.393  0.00  0.00    +0.000 OA
BRANCH  13  16
ATOM     15  C   UNL     1       5.953   4.305  16.165  0.00  0.00    +0.000 C 
ATOM     16  O   UNL     1       4.550   4.130  16.338  0.00  0.00    +0.000 OA
ENDBRANCH  13  16
ENDBRANCH   7  13
ENDBRANCH   1  12
BRANCH   4  17
ATOM     17  C   UNL     1       1.313   8.703  21.139  0.00  0.00    +0.000 A 
ATOM     18  C   UNL     1       1.015   8.879  22.497  0.00  0.00    +0.000 A 
ATOM     19  C   UNL     1       0.012   9.766  22.895  0.00  0.00    +0.000 A 
ATOM     20  C   UNL     1      -0.702  10.477  21.935  0.00  0.00    +0.000 A 
ATOM     21  C   UNL     1      -0.397  10.320  20.584  0.00  0.00    +0.000 A 
ATOM     22  C   UNL     1       0.625   9.453  20.185  0.00  0.00    +0.000 A 
ENDBRANCH   4  17
TORSDOF 4
ENDMDL
MODEL 7
REMARK VINA RESULT:      -6.2      4.464      6.426
REMARK  Name = 
REMARK  6 active torsions:
REMARK  status: ('A' for Active; 'I' for Inactive)
REMARK    1  A    between atoms: C_1  and  O_2
REMARK    2  A    between atoms: O_2  and  C_3
REMARK    3  A    between atoms: C_3  and  C_5
REMARK    4  A    between atoms: C_8  and  C_9
REMARK    5  A    between atoms: C_10  and  N_11
REMARK    6  A    between atoms: N_14  and  C_15
REMARK                            x       y       z     vdW  Elec       q    Type
REMARK                         _______ _______ _______ _____ _____    ______ ____
ROOT
ATOM      1  N   UNL     1       2.931   5.478  20.164  0.00  0.00    +0.000 N 
ATOM      2  C   UNL     1       1.851   6.281  20.468  0.00  0.00    +0.000 C 
ATOM      3  O   UNL     1       0.676   5.940  20.461  0.00  0.00    +0.000 OA
ATOM      4  N   UNL     1       2.229   7.596  20.740  0.00  0.00    +0.000 N 
ATOM      5  H   UNL     1       3.847   5.919  20.171  0.00  0.00    +0.000 HD
ATOM      6  H   UNL     1       3.014   7.929  20.201  0.00  0.00    +0.000 HD
ENDROOT
BRANCH   1  12
ATOM      7  C   UNL     1       3.547   3.762  18.555  0.00  0.00    +0.000 A 
ATOM      8  S   UNL     1       3.353   2.093  18.211  0.00  0.00    +0.000 S 
ATOM      9  C   UNL     1       2.449   1.837  19.612  0.00  0.00    +0.000 A 
ATOM     10  C   UNL     1       2.289   2.976  20.379  0.00  0.00    +0.000 A 
ATOM     11  C   UNL     1       1.567   2.891  21.687  0.00  0.00    +0.000 C 
ATOM     12  C   UNL     1       2.907   4.133  19.746  0.00  0.00    +0.000 A 
BRANCH   7  13
ATOM     13  C   UNL     1       4.286   4.610  17.630  0.00  0.00    +0.000 C 
ATOM     14  O   UNL     1       5.335   4.281  17.082  0.00  0.00    +0.000 OA
BRANCH  13  16
ATOM     15  C   UNL     1       4.518   6.897  17.046  0.00  0.00    +0.000 C 
ATOM     16  O   UNL     1       3.680   5.823  17.464  0.00  0.00    +0.000 OA
ENDBRANCH  13  16
ENDBRANCH   7  13
ENDBRANCH   1  12
BRANCH   4  17
ATOM     17  C   UNL     1       1.249   8.563  21.084  0.00  0.00    +0.000 A 
ATOM     18  C   UNL     1       0.638   9.366  20.112  0.00  0.00    +0.000 A 
ATOM     19  C   UNL     1      -0.268  10.363  20.480  0.00  0.00    +0.000 A 
ATOM     20  C   UNL     1      -0.560  10.567  21.825  0.00  0.00    +0.000 A 
ATOM     21  C   UNL     1       0.031   9.759  22.796  0.00  0.00    +0.000 A 
ATOM     22  C   UNL     1       0.917   8.742  22.427  0.00  0.00    +0.000 A 
ENDBRANCH   4  17
TORSDOF 4
ENDMDL
MODEL 8
REMARK VINA RESULT:      -6.2      4.891      6.427
REMARK  Name = 
REMARK  6 active torsions:
REMARK  status: ('A' for Active; 'I' for Inactive)
REMARK    1  A    between atoms: C_1  and  O_2
REMARK    2  A    between atoms: O_2  and  C_3
REMARK    3  A    between atoms: C_3  and  C_5
REMARK    4  A    between atoms: C_8  and  C_9
REMARK    5  A    between atoms: C_10  and  N_11
REMARK    6  A    between atoms: N_14  and  C_15
REMARK                            x       y       z     vdW  Elec       q    Type
REMARK                         _______ _______ _______ _____ _____    ______ ____
ROOT
ATOM      1  N   UNL     1       2.682   6.097  18.204  0.00  0.00    +0.000 N 
ATOM      2  C   UNL     1       2.293   7.301  18.752  0.00  0.00    +0.000 C 
ATOM      3  O   UNL     1       2.224   7.560  19.947  0.00  0.00    +0.000 OA
ATOM      4  N   UNL     1       1.908   8.226  17.782  0.00  0.00    +0.000 N 
ATOM      5  H   UNL     1       2.646   6.021  17.191  0.00  0.00    +0.000 HD
ATOM      6  H   UNL     1       1.449   7.826  16.977  0.00  0.00    +0.000 HD
ENDROOT
BRANCH   1  12
ATOM      7  C   UNL     1       4.330   4.399  18.761  0.00  0.00    +0.000 A 
ATOM      8  S   UNL     1       4.529   2.936  19.635  0.00  0.00    +0.000 S 
ATOM      9  C   UNL     1       2.939   2.974  20.197  0.00  0.00    +0.000 A 
ATOM     10  C   UNL     1       2.230   4.082  19.770  0.00  0.00    +0.000 A 
ATOM     11  C   UNL     1       0.826   4.288  20.243  0.00  0.00    +0.000 C 
ATOM     12  C   UNL     1       3.035   4.918  18.889  0.00  0.00    +0.000 A 
BRANCH   7  13
ATOM     13  C   UNL     1       5.440   4.933  17.984  0.00  0.00    +0.000 C 
ATOM     14  O   UNL     1       5.308   5.608  16.966  0.00  0.00    +0.000 OA
BRANCH  13  16
ATOM     15  C   UNL     1       7.626   5.604  18.617  0.00  0.00    +0.000 C 
ATOM     16  O   UNL     1       6.646   4.574  18.516  0.00  0.00    +0.000 OA
ENDBRANCH  13  16
ENDBRANCH   7  13
ENDBRANCH   1  12
BRANCH   4  17
ATOM     17  C   UNL     1       1.485   9.526  18.161  0.00  0.00    +0.000 A 
ATOM     18  C   UNL     1       0.165   9.784  18.551  0.00  0.00    +0.000 A 
ATOM     19  C   UNL     1      -0.248  11.085  18.848  0.00  0.00    +0.000 A 
ATOM     20  C   UNL     1       0.658  12.136  18.749  0.00  0.00    +0.000 A 
ATOM     21  C   UNL     1       1.978  11.883  18.379  0.00  0.00    +0.000 A 
ATOM     22  C   UNL     1       2.401  10.578  18.108  0.00  0.00    +0.000 A 
ENDBRANCH   4  17
TORSDOF 4
ENDMDL
MODEL 9
REMARK VINA RESULT:      -6.2      4.900      6.358
REMARK  Name = 
REMARK  6 active torsions:
REMARK  status: ('A' for Active; 'I' for Inactive)
REMARK    1  A    between atoms: C_1  and  O_2
REMARK    2  A    between atoms: O_2  and  C_3
REMARK    3  A    between atoms: C_3  and  C_5
REMARK    4  A    between atoms: C_8  and  C_9
REMARK    5  A    between atoms: C_10  and  N_11
REMARK    6  A    between atoms: N_14  and  C_15
REMARK                            x       y       z     vdW  Elec       q    Type
REMARK                         _______ _______ _______ _____ _____    ______ ____
ROOT
ATOM      1  N   UNL     1       2.669   6.125  18.163  0.00  0.00    +0.000 N 
ATOM      2  C   UNL     1       2.280   7.341  18.684  0.00  0.00    +0.000 C 
ATOM      3  O   UNL     1       2.223   7.631  19.872  0.00  0.00    +0.000 OA
ATOM      4  N   UNL     1       1.880   8.238  17.694  0.00  0.00    +0.000 N 
ATOM      5  H   UNL     1       2.623   6.022  17.153  0.00  0.00    +0.000 HD
ATOM      6  H   UNL     1       1.414   7.815  16.905  0.00  0.00    +0.000 HD
ENDROOT
BRANCH   1  12
ATOM      7  C   UNL     1       4.340   4.465  18.766  0.00  0.00    +0.000 A 
ATOM      8  S   UNL     1       4.555   3.023  19.672  0.00  0.00    +0.000 S 
ATOM      9  C   UNL     1       2.960   3.048  20.221  0.00  0.00    +0.000 A 
ATOM     10  C   UNL     1       2.237   4.135  19.767  0.00  0.00    +0.000 A 
ATOM     11  C   UNL     1       0.826   4.328  20.225  0.00  0.00    +0.000 C 
ATOM     12  C   UNL     1       3.035   4.965  18.875  0.00  0.00    +0.000 A 
BRANCH   7  13
ATOM     13  C   UNL     1       5.446   5.000  17.987  0.00  0.00    +0.000 C 
ATOM     14  O   UNL     1       5.311   5.705  16.989  0.00  0.00    +0.000 OA
BRANCH  13  16
ATOM     15  C   UNL     1       7.627   5.631  18.676  0.00  0.00    +0.000 C 
ATOM     16  O   UNL     1       6.654   4.606  18.490  0.00  0.00    +0.000 OA
ENDBRANCH  13  16
ENDBRANCH   7  13
ENDBRANCH   1  12
BRANCH   4  17
ATOM     17  C   UNL     1       1.455   9.546  18.044  0.00  0.00    +0.000 A 
ATOM     18  C   UNL     1       2.349  10.623  18.081  0.00  0.00    +0.000 A 
ATOM     19  C   UNL     1       1.925  11.886  18.501  0.00  0.00    +0.000 A 
ATOM     20  C   UNL     1       0.603  12.074  18.894  0.00  0.00    +0.000 A 
ATOM     21  C   UNL     1      -0.296  11.010  18.843  0.00  0.00    +0.000 A 
ATOM     22  C   UNL     1       0.120   9.752  18.396  0.00  0.00    +0.000 A 
ENDBRANCH   4  17
TORSDOF 4
ENDMDL
