MODEL 1
REMARK VINA RESULT:      -8.6      0.000      0.000
REMARK  Name = 
REMARK  1 active torsions:
REMARK  status: ('A' for Active; 'I' for Inactive)
REMARK    1  A    between atoms: C_1  and  C_2
REMARK                            x       y       z     vdW  Elec       q    Type
REMARK                         _______ _______ _______ _____ _____    ______ ____
ROOT
ATOM      1  C   UNL     1       1.790   7.904  20.340  0.00  0.00    +0.000 C 
ATOM      2  C   UNL     1       2.198   6.500  20.004  0.00  0.00    +0.000 A 
ATOM      3  C   UNL     1       1.746   5.430  20.789  0.00  0.00    +0.000 A 
ATOM      4  C   UNL     1       2.134   4.142  20.428  0.00  0.00    +0.000 A 
ATOM      5  C   UNL     1       2.967   3.803  19.344  0.00  0.00    +0.000 A 
ATOM      6  C   UNL     1       3.403   4.900  18.571  0.00  0.00    +0.000 A 
ATOM      7  C   UNL     1       3.013   6.171  18.906  0.00  0.00    +0.000 A 
ATOM      8  N   UNL     1       3.603   6.942  17.923  0.00  0.00    +0.000 N 
ATOM      9  C   UNL     1       4.307   6.154  17.021  0.00  0.00    +0.000 A 
ATOM     10  C   UNL     1       5.021   6.536  15.876  0.00  0.00    +0.000 A 
ATOM     11  C   UNL     1       5.647   5.533  15.130  0.00  0.00    +0.000 A 
ATOM     12  C   UNL     1       5.566   4.200  15.517  0.00  0.00    +0.000 A 
ATOM     13  C   UNL     1       4.848   3.830  16.660  0.00  0.00    +0.000 A 
ATOM     14  C   UNL     1       4.200   4.816  17.430  0.00  0.00    +0.000 A 
ATOM     15  C   UNL     1       3.141   2.386  19.308  0.00  0.00    +0.000 C 
ATOM     16  O   UNL     1       3.785   1.614  18.610  0.00  0.00    +0.000 OA
ATOM     17  N   UNL     1       2.362   1.957  20.350  0.00  0.00    +0.000 N 
ATOM     18  C   UNL     1       1.748   2.929  21.091  0.00  0.00    +0.000 C 
ATOM     19  O   UNL     1       1.050   2.713  22.070  0.00  0.00    +0.000 OA
ATOM     20  H   UNL     1       3.521   7.945  17.855  0.00  0.00    +0.000 HD
ATOM     21  H   UNL     1       2.283   0.982  20.581  0.00  0.00    +0.000 HD
ENDROOT
TORSDOF 0
ENDMDL
MODEL 2
REMARK VINA RESULT:      -7.9      2.330      3.718
REMARK  Name = 
REMARK  1 active torsions:
REMARK  status: ('A' for Active; 'I' for Inactive)
REMARK    1  A    between atoms: C_1  and  C_2
REMARK                            x       y       z     vdW  Elec       q    Type
REMARK                         _______ _______ _______ _____ _____    ______ ____
ROOT
ATOM      1  C   UNL     1       2.852   2.735  20.988  0.00  0.00    +0.000 C 
ATOM      2  C   UNL     1       2.853   4.026  20.222  0.00  0.00    +0.000 A 
ATOM      3  C   UNL     1       2.135   5.129  20.704  0.00  0.00    +0.000 A 
ATOM      4  C   UNL     1       2.181   6.312  19.971  0.00  0.00    +0.000 A 
ATOM      5  C   UNL     1       2.871   6.508  18.759  0.00  0.00    +0.000 A 
ATOM      6  C   UNL     1       3.586   5.381  18.301  0.00  0.00    +0.000 A 
ATOM      7  C   UNL     1       3.564   4.216  19.024  0.00  0.00    +0.000 A 
ATOM      8  N   UNL     1       4.382   3.382  18.287  0.00  0.00    +0.000 N 
ATOM      9  C   UNL     1       4.890   4.034  17.170  0.00  0.00    +0.000 A 
ATOM     10  C   UNL     1       5.769   3.558  16.186  0.00  0.00    +0.000 A 
ATOM     11  C   UNL     1       6.129   4.429  15.154  0.00  0.00    +0.000 A 
ATOM     12  C   UNL     1       5.627   5.725  15.106  0.00  0.00    +0.000 A 
ATOM     13  C   UNL     1       4.753   6.191  16.095  0.00  0.00    +0.000 A 
ATOM     14  C   UNL     1       4.375   5.340  17.152  0.00  0.00    +0.000 A 
ATOM     15  C   UNL     1       2.668   7.848  18.311  0.00  0.00    +0.000 C 
ATOM     16  O   UNL     1       3.007   8.488  17.325  0.00  0.00    +0.000 OA
ATOM     17  N   UNL     1       1.901   8.390  19.309  0.00  0.00    +0.000 N 
ATOM     18  C   UNL     1       1.537   7.546  20.322  0.00  0.00    +0.000 C 
ATOM     19  O   UNL     1       0.829   7.866  21.265  0.00  0.00    +0.000 OA
ATOM     20  H   UNL     1       4.600   2.429  18.533  0.00  0.00    +0.000 HD
ATOM     21  H   UNL     1       1.590   9.345  19.273  0.00  0.00    +0.000 HD
ENDROOT
TORSDOF 0
ENDMDL
MODEL 3
REMARK VINA RESULT:      -7.8      2.724      5.468
REMARK  Name = 
REMARK  1 active torsions:
REMARK  status: ('A' for Active; 'I' for Inactive)
REMARK    1  A    between atoms: C_1  and  C_2
REMARK                            x       y       z     vdW  Elec       q    Type
REMARK                         _______ _______ _______ _____ _____    ______ ____
ROOT
ATOM      1  C   UNL     1       5.331   5.799  15.911  0.00  0.00    +0.000 C 
ATOM      2  C   UNL     1       4.392   6.230  17.001  0.00  0.00    +0.000 A 
ATOM      3  C   UNL     1       3.838   7.517  16.981  0.00  0.00    +0.000 A 
ATOM      4  C   UNL     1       2.956   7.866  18.001  0.00  0.00    +0.000 A 
ATOM      5  C   UNL     1       2.576   7.047  19.082  0.00  0.00    +0.000 A 
ATOM      6  C   UNL     1       3.148   5.756  19.072  0.00  0.00    +0.000 A 
ATOM      7  C   UNL     1       4.003   5.395  18.063  0.00  0.00    +0.000 A 
ATOM      8  N   UNL     1       4.317   4.088  18.382  0.00  0.00    +0.000 N 
ATOM      9  C   UNL     1       3.657   3.678  19.534  0.00  0.00    +0.000 A 
ATOM     10  C   UNL     1       3.682   2.432  20.176  0.00  0.00    +0.000 A 
ATOM     11  C   UNL     1       2.917   2.278  21.335  0.00  0.00    +0.000 A 
ATOM     12  C   UNL     1       2.159   3.331  21.835  0.00  0.00    +0.000 A 
ATOM     13  C   UNL     1       2.139   4.570  21.184  0.00  0.00    +0.000 A 
ATOM     14  C   UNL     1       2.894   4.756  20.010  0.00  0.00    +0.000 A 
ATOM     15  C   UNL     1       1.668   7.762  19.920  0.00  0.00    +0.000 C 
ATOM     16  O   UNL     1       1.095   7.521  20.974  0.00  0.00    +0.000 OA
ATOM     17  N   UNL     1       1.524   8.956  19.264  0.00  0.00    +0.000 N 
ATOM     18  C   UNL     1       2.272   9.121  18.131  0.00  0.00    +0.000 C 
ATOM     19  O   UNL     1       2.283  10.138  17.454  0.00  0.00    +0.000 OA
ATOM     20  H   UNL     1       4.932   3.499  17.841  0.00  0.00    +0.000 HD
ATOM     21  H   UNL     1       0.932   9.685  19.622  0.00  0.00    +0.000 HD
ENDROOT
TORSDOF 0
ENDMDL
MODEL 4
REMARK VINA RESULT:      -7.6      2.543      3.762
REMARK  Name = 
REMARK  1 active torsions:
REMARK  status: ('A' for Active; 'I' for Inactive)
REMARK    1  A    between atoms: C_1  and  C_2
REMARK                            x       y       z     vdW  Elec       q    Type
REMARK                         _______ _______ _______ _____ _____    ______ ____
ROOT
ATOM      1  C   UNL     1       8.027   6.781  18.597  0.00  0.00    +0.000 C 
ATOM      2  C   UNL     1       6.851   5.980  18.120  0.00  0.00    +0.000 A 
ATOM      3  C   UNL     1       5.784   5.713  18.988  0.00  0.00    +0.000 A 
ATOM      4  C   UNL     1       4.704   4.985  18.495  0.00  0.00    +0.000 A 
ATOM      5  C   UNL     1       4.586   4.460  17.193  0.00  0.00    +0.000 A 
ATOM      6  C   UNL     1       5.674   4.748  16.341  0.00  0.00    +0.000 A 
ATOM      7  C   UNL     1       6.734   5.481  16.811  0.00  0.00    +0.000 A 
ATOM      8  N   UNL     1       7.557   5.571  15.704  0.00  0.00    +0.000 N 
ATOM      9  C   UNL     1       6.996   4.928  14.607  0.00  0.00    +0.000 A 
ATOM     10  C   UNL     1       7.491   4.809  13.300  0.00  0.00    +0.000 A 
ATOM     11  C   UNL     1       6.721   4.102  12.372  0.00  0.00    +0.000 A 
ATOM     12  C   UNL     1       5.506   3.533  12.738  0.00  0.00    +0.000 A 
ATOM     13  C   UNL     1       5.021   3.661  14.045  0.00  0.00    +0.000 A 
ATOM     14  C   UNL     1       5.770   4.373  15.002  0.00  0.00    +0.000 A 
ATOM     15  C   UNL     1       3.343   3.767  17.074  0.00  0.00    +0.000 C 
ATOM     16  O   UNL     1       2.798   3.120  16.191  0.00  0.00    +0.000 OA
ATOM     17  N   UNL     1       2.770   3.956  18.305  0.00  0.00    +0.000 N 
ATOM     18  C   UNL     1       3.516   4.642  19.224  0.00  0.00    +0.000 C 
ATOM     19  O   UNL     1       3.162   4.863  20.372  0.00  0.00    +0.000 OA
ATOM     20  H   UNL     1       8.441   6.055  15.686  0.00  0.00    +0.000 HD
ATOM     21  H   UNL     1       1.868   3.573  18.530  0.00  0.00    +0.000 HD
ENDROOT
TORSDOF 0
ENDMDL
MODEL 5
REMARK VINA RESULT:      -7.3      1.169      4.282
REMARK  Name = 
REMARK  1 active torsions:
REMARK  status: ('A' for Active; 'I' for Inactive)
REMARK    1  A    between atoms: C_1  and  C_2
REMARK                            x       y       z     vdW  Elec       q    Type
REMARK                         _______ _______ _______ _____ _____    ______ ____
ROOT
ATOM      1  C   UNL     1       5.200   5.580  15.821  0.00  0.00    +0.000 C 
ATOM      2  C   UNL     1       4.508   5.212  17.101  0.00  0.00    +0.000 A 
ATOM      3  C   UNL     1       4.691   3.938  17.656  0.00  0.00    +0.000 A 
ATOM      4  C   UNL     1       4.045   3.647  18.856  0.00  0.00    +0.000 A 
ATOM      5  C   UNL     1       3.194   4.514  19.568  0.00  0.00    +0.000 A 
ATOM      6  C   UNL     1       3.032   5.790  18.986  0.00  0.00    +0.000 A 
ATOM      7  C   UNL     1       3.678   6.094  17.814  0.00  0.00    +0.000 A 
ATOM      8  N   UNL     1       3.302   7.404  17.589  0.00  0.00    +0.000 N 
ATOM      9  C   UNL     1       2.473   7.871  18.602  0.00  0.00    +0.000 A 
ATOM     10  C   UNL     1       1.898   9.139  18.765  0.00  0.00    +0.000 A 
ATOM     11  C   UNL     1       1.094   9.353  19.888  0.00  0.00    +0.000 A 
ATOM     12  C   UNL     1       0.871   8.337  20.811  0.00  0.00    +0.000 A 
ATOM     13  C   UNL     1       1.454   7.076  20.640  0.00  0.00    +0.000 A 
ATOM     14  C   UNL     1       2.274   6.830  19.522  0.00  0.00    +0.000 A 
ATOM     15  C   UNL     1       2.718   3.852  20.740  0.00  0.00    +0.000 C 
ATOM     16  O   UNL     1       1.946   4.144  21.642  0.00  0.00    +0.000 OA
ATOM     17  N   UNL     1       3.351   2.638  20.681  0.00  0.00    +0.000 N 
ATOM     18  C   UNL     1       4.137   2.414  19.584  0.00  0.00    +0.000 C 
ATOM     19  O   UNL     1       4.738   1.373  19.367  0.00  0.00    +0.000 OA
ATOM     20  H   UNL     1       3.601   7.958  16.802  0.00  0.00    +0.000 HD
ATOM     21  H   UNL     1       3.210   1.936  21.387  0.00  0.00    +0.000 HD
ENDROOT
TORSDOF 0
ENDMDL
MODEL 6
REMARK VINA RESULT:      -7.1      2.654      5.233
REMARK  Name = 
REMARK  1 active torsions:
REMARK  status: ('A' for Active; 'I' for Inactive)
REMARK    1  A    between atoms: C_1  and  C_2
REMARK                            x       y       z     vdW  Elec       q    Type
REMARK                         _______ _______ _______ _____ _____    ______ ____
ROOT
ATOM      1  C   UNL     1       3.691   2.778  20.241  0.00  0.00    +0.000 C 
ATOM      2  C   UNL     1       3.946   3.769  19.144  0.00  0.00    +0.000 A 
ATOM      3  C   UNL     1       4.737   3.411  18.044  0.00  0.00    +0.000 A 
ATOM      4  C   UNL     1       4.930   4.356  17.039  0.00  0.00    +0.000 A 
ATOM      5  C   UNL     1       4.417   5.668  17.029  0.00  0.00    +0.000 A 
ATOM      6  C   UNL     1       3.622   5.998  18.148  0.00  0.00    +0.000 A 
ATOM      7  C   UNL     1       3.410   5.069  19.134  0.00  0.00    +0.000 A 
ATOM      8  N   UNL     1       2.583   5.740  20.014  0.00  0.00    +0.000 N 
ATOM      9  C   UNL     1       2.297   7.021  19.558  0.00  0.00    +0.000 A 
ATOM     10  C   UNL     1       1.486   8.009  20.135  0.00  0.00    +0.000 A 
ATOM     11  C   UNL     1       1.363   9.229  19.464  0.00  0.00    +0.000 A 
ATOM     12  C   UNL     1       2.030   9.454  18.264  0.00  0.00    +0.000 A 
ATOM     13  C   UNL     1       2.835   8.459  17.696  0.00  0.00    +0.000 A 
ATOM     14  C   UNL     1       2.974   7.217  18.344  0.00  0.00    +0.000 A 
ATOM     15  C   UNL     1       4.841   6.332  15.838  0.00  0.00    +0.000 C 
ATOM     16  O   UNL     1       4.705   7.459  15.384  0.00  0.00    +0.000 OA
ATOM     17  N   UNL     1       5.549   5.358  15.183  0.00  0.00    +0.000 N 
ATOM     18  C   UNL     1       5.681   4.161  15.832  0.00  0.00    +0.000 C 
ATOM     19  O   UNL     1       6.310   3.208  15.399  0.00  0.00    +0.000 OA
ATOM     20  H   UNL     1       2.218   5.349  20.868  0.00  0.00    +0.000 HD
ATOM     21  H   UNL     1       5.983   5.532  14.293  0.00  0.00    +0.000 HD
ENDROOT
TORSDOF 0
ENDMDL
MODEL 7
REMARK VINA RESULT:      -7.1      2.822      4.845
REMARK  Name = 
REMARK  1 active torsions:
REMARK  status: ('A' for Active; 'I' for Inactive)
REMARK    1  A    between atoms: C_1  and  C_2
REMARK                            x       y       z     vdW  Elec       q    Type
REMARK                         _______ _______ _______ _____ _____    ______ ____
ROOT
ATOM      1  C   UNL     1       2.070   8.593  17.717  0.00  0.00    +0.000 C 
ATOM      2  C   UNL     1       3.183   7.586  17.703  0.00  0.00    +0.000 A 
ATOM      3  C   UNL     1       4.504   8.003  17.489  0.00  0.00    +0.000 A 
ATOM      4  C   UNL     1       5.507   7.037  17.505  0.00  0.00    +0.000 A 
ATOM      5  C   UNL     1       5.319   5.654  17.697  0.00  0.00    +0.000 A 
ATOM      6  C   UNL     1       3.979   5.265  17.913  0.00  0.00    +0.000 A 
ATOM      7  C   UNL     1       2.986   6.211  17.918  0.00  0.00    +0.000 A 
ATOM      8  N   UNL     1       1.854   5.464  18.183  0.00  0.00    +0.000 N 
ATOM      9  C   UNL     1       2.166   4.120  18.348  0.00  0.00    +0.000 A 
ATOM     10  C   UNL     1       1.320   3.043  18.650  0.00  0.00    +0.000 A 
ATOM     11  C   UNL     1       1.894   1.773  18.764  0.00  0.00    +0.000 A 
ATOM     12  C   UNL     1       3.259   1.588  18.580  0.00  0.00    +0.000 A 
ATOM     13  C   UNL     1       4.095   2.671  18.281  0.00  0.00    +0.000 A 
ATOM     14  C   UNL     1       3.549   3.964  18.166  0.00  0.00    +0.000 A 
ATOM     15  C   UNL     1       6.583   4.993  17.635  0.00  0.00    +0.000 C 
ATOM     16  O   UNL     1       6.951   3.828  17.697  0.00  0.00    +0.000 OA
ATOM     17  N   UNL     1       7.461   6.030  17.453  0.00  0.00    +0.000 N 
ATOM     18  C   UNL     1       6.911   7.277  17.335  0.00  0.00    +0.000 C 
ATOM     19  O   UNL     1       7.553   8.297  17.135  0.00  0.00    +0.000 OA
ATOM     20  H   UNL     1       0.924   5.843  18.264  0.00  0.00    +0.000 HD
ATOM     21  H   UNL     1       8.450   5.873  17.369  0.00  0.00    +0.000 HD
ENDROOT
TORSDOF 0
ENDMDL
MODEL 8
REMARK VINA RESULT:      -7.0      2.504      5.002
REMARK  Name = 
REMARK  1 active torsions:
REMARK  status: ('A' for Active; 'I' for Inactive)
REMARK    1  A    between atoms: C_1  and  C_2
REMARK                            x       y       z     vdW  Elec       q    Type
REMARK                         _______ _______ _______ _____ _____    ______ ____
ROOT
ATOM      1  C   UNL     1       1.764   8.663  17.750  0.00  0.00    +0.000 C 
ATOM      2  C   UNL     1       2.827   7.627  17.976  0.00  0.00    +0.000 A 
ATOM      3  C   UNL     1       4.119   7.825  17.471  0.00  0.00    +0.000 A 
ATOM      4  C   UNL     1       5.078   6.848  17.723  0.00  0.00    +0.000 A 
ATOM      5  C   UNL     1       4.869   5.646  18.428  0.00  0.00    +0.000 A 
ATOM      6  C   UNL     1       3.560   5.476  18.926  0.00  0.00    +0.000 A 
ATOM      7  C   UNL     1       2.612   6.442  18.701  0.00  0.00    +0.000 A 
ATOM      8  N   UNL     1       1.502   5.938  19.351  0.00  0.00    +0.000 N 
ATOM      9  C   UNL     1       1.784   4.721  19.959  0.00  0.00    +0.000 A 
ATOM     10  C   UNL     1       0.950   3.899  20.731  0.00  0.00    +0.000 A 
ATOM     11  C   UNL     1       1.487   2.711  21.234  0.00  0.00    +0.000 A 
ATOM     12  C   UNL     1       2.806   2.356  20.972  0.00  0.00    +0.000 A 
ATOM     13  C   UNL     1       3.630   3.185  20.202  0.00  0.00    +0.000 A 
ATOM     14  C   UNL     1       3.121   4.393  19.686  0.00  0.00    +0.000 A 
ATOM     15  C   UNL     1       6.087   4.902  18.465  0.00  0.00    +0.000 C 
ATOM     16  O   UNL     1       6.417   3.810  18.906  0.00  0.00    +0.000 OA
ATOM     17  N   UNL     1       6.968   5.727  17.815  0.00  0.00    +0.000 N 
ATOM     18  C   UNL     1       6.453   6.891  17.313  0.00  0.00    +0.000 C 
ATOM     19  O   UNL     1       7.098   7.714  16.681  0.00  0.00    +0.000 OA
ATOM     20  H   UNL     1       0.606   6.399  19.396  0.00  0.00    +0.000 HD
ATOM     21  H   UNL     1       7.930   5.468  17.679  0.00  0.00    +0.000 HD
ENDROOT
TORSDOF 0
ENDMDL
MODEL 9
REMARK VINA RESULT:      -6.8      2.185      4.882
REMARK  Name = 
REMARK  1 active torsions:
REMARK  status: ('A' for Active; 'I' for Inactive)
REMARK    1  A    between atoms: C_1  and  C_2
REMARK                            x       y       z     vdW  Elec       q    Type
REMARK                         _______ _______ _______ _____ _____    ______ ____
ROOT
ATOM      1  C   UNL     1       1.781   8.798  19.096  0.00  0.00    +0.000 C 
ATOM      2  C   UNL     1       2.556   7.611  18.601  0.00  0.00    +0.000 A 
ATOM      3  C   UNL     1       3.327   7.713  17.435  0.00  0.00    +0.000 A 
ATOM      4  C   UNL     1       4.046   6.593  17.024  0.00  0.00    +0.000 A 
ATOM      5  C   UNL     1       4.057   5.338  17.664  0.00  0.00    +0.000 A 
ATOM      6  C   UNL     1       3.274   5.267  18.836  0.00  0.00    +0.000 A 
ATOM      7  C   UNL     1       2.577   6.370  19.260  0.00  0.00    +0.000 A 
ATOM      8  N   UNL     1       1.976   5.924  20.421  0.00  0.00    +0.000 N 
ATOM      9  C   UNL     1       2.318   4.604  20.690  0.00  0.00    +0.000 A 
ATOM     10  C   UNL     1       1.946   3.792  21.771  0.00  0.00    +0.000 A 
ATOM     11  C   UNL     1       2.435   2.483  21.805  0.00  0.00    +0.000 A 
ATOM     12  C   UNL     1       3.261   2.003  20.794  0.00  0.00    +0.000 A 
ATOM     13  C   UNL     1       3.629   2.824  19.722  0.00  0.00    +0.000 A 
ATOM     14  C   UNL     1       3.158   4.150  19.661  0.00  0.00    +0.000 A 
ATOM     15  C   UNL     1       4.902   4.445  16.937  0.00  0.00    +0.000 C 
ATOM     16  O   UNL     1       5.209   3.267  17.048  0.00  0.00    +0.000 OA
ATOM     17  N   UNL     1       5.383   5.236  15.926  0.00  0.00    +0.000 N 
ATOM     18  C   UNL     1       4.907   6.518  15.879  0.00  0.00    +0.000 C 
ATOM     19  O   UNL     1       5.211   7.334  15.022  0.00  0.00    +0.000 OA
ATOM     20  H   UNL     1       1.381   6.485  21.010  0.00  0.00    +0.000 HD
ATOM     21  H   UNL     1       6.017   4.877  15.234  0.00  0.00    +0.000 HD
ENDROOT
TORSDOF 0
ENDMDL
