MODEL 1
REMARK VINA RESULT:      -5.6      0.000      0.000
REMARK  Name = 
REMARK  7 active torsions:
REMARK  status: ('A' for Active; 'I' for Inactive)
REMARK    1  A    between atoms: C_1  and  O_2
REMARK    2  A    between atoms: O_2  and  C_3
REMARK    3  A    between atoms: C_9  and  C_10
REMARK    4  A    between atoms: C_16  and  O_17
REMARK    5  A    between atoms: O_17  and  C_18
REMARK    6  A    between atoms: C_20  and  O_21
REMARK    7  A    between atoms: O_21  and  C_22
REMARK                            x       y       z     vdW  Elec       q    Type
REMARK                         _______ _______ _______ _____ _____    ______ ____
ROOT
ATOM      1  C   UNL     1      -0.862  14.537  21.806  0.00  0.00    +0.000 C 
ATOM      2  C   UNL     1      -1.147  15.849  21.612  0.00  0.00    +0.000 C 
ATOM      3  I   UNL     1      -1.250  17.412  22.918  0.00  0.00    +0.000 I 
ATOM      4  C   UNL     1      -1.397  16.204  20.192  0.00  0.00    +0.000 C 
ATOM      5  O   UNL     1      -2.445  16.705  19.805  0.00  0.00    +0.000 OA
ATOM      6  C   UNL     1      -0.289  15.826  19.277  0.00  0.00    +0.000 C 
ATOM      7  C   UNL     1      -0.195  14.306  19.245  0.00  0.00    +0.000 C 
ATOM      8  C   UNL     1       1.236  13.960  18.794  0.00  0.00    +0.000 C 
ATOM      9  C   UNL     1      -0.689  13.598  20.601  0.00  0.00    +0.000 C 
ATOM     10  O   UNL     1      -2.056  13.085  20.379  0.00  0.00    +0.000 OA
ATOM     11  C   UNL     1      -1.889  11.912  19.679  0.00  0.00    +0.000 A 
ATOM     12  C   UNL     1      -2.805  11.465  18.747  0.00  0.00    +0.000 A 
ATOM     13 CL   UNL     1      -4.397  12.133  18.727  0.00  0.00    +0.000 Cl
ATOM     14  C   UNL     1      -2.365  10.558  17.775  0.00  0.00    +0.000 A 
ATOM     15  C   UNL     1      -1.046  10.054  17.833  0.00  0.00    +0.000 A 
ATOM     16  C   UNL     1      -0.153  10.468  18.839  0.00  0.00    +0.000 A 
ATOM     17  C   UNL     1      -0.622  11.367  19.786  0.00  0.00    +0.000 A 
ATOM     18  C   UNL     1       0.072  12.257  20.705  0.00  0.00    +0.000 C 
ATOM     19  O   UNL     1       1.126  12.028  21.276  0.00  0.00    +0.000 OA
ENDROOT
BRANCH   1  21
ATOM     20  C   UNL     1      -2.092  13.650  23.652  0.00  0.00    +0.000 C 
ATOM     21  O   UNL     1      -0.819  13.907  23.041  0.00  0.00    +0.000 OA
ENDBRANCH   1  21
BRANCH  14  22
ATOM     22  O   UNL     1      -3.246  10.332  16.751  0.00  0.00    +0.000 OA
ATOM     23  C   UNL     1      -2.888  10.720  15.437  0.00  0.00    +0.000 C 
ENDBRANCH  14  22
BRANCH  16  24
ATOM     24  O   UNL     1       1.171  10.134  18.848  0.00  0.00    +0.000 OA
ATOM     25  C   UNL     1       1.604   9.290  17.782  0.00  0.00    +0.000 C 
ENDBRANCH  16  24
TORSDOF 3
ENDMDL
MODEL 2
REMARK VINA RESULT:      -5.6      9.141     11.249
REMARK  Name = 
REMARK  7 active torsions:
REMARK  status: ('A' for Active; 'I' for Inactive)
REMARK    1  A    between atoms: C_1  and  O_2
REMARK    2  A    between atoms: O_2  and  C_3
REMARK    3  A    between atoms: C_9  and  C_10
REMARK    4  A    between atoms: C_16  and  O_17
REMARK    5  A    between atoms: O_17  and  C_18
REMARK    6  A    between atoms: C_20  and  O_21
REMARK    7  A    between atoms: O_21  and  C_22
REMARK                            x       y       z     vdW  Elec       q    Type
REMARK                         _______ _______ _______ _____ _____    ______ ____
ROOT
ATOM      1  C   UNL     1       3.628   3.656  19.331  0.00  0.00    +0.000 C 
ATOM      2  C   UNL     1       2.280   3.624  19.194  0.00  0.00    +0.000 C 
ATOM      3  I   UNL     1       0.837   2.684  20.288  0.00  0.00    +0.000 I 
ATOM      4  C   UNL     1       1.772   4.443  18.065  0.00  0.00    +0.000 C 
ATOM      5  O   UNL     1       1.112   3.975  17.146  0.00  0.00    +0.000 OA
ATOM      6  C   UNL     1       2.203   5.864  18.117  0.00  0.00    +0.000 C 
ATOM      7  C   UNL     1       3.714   5.911  17.931  0.00  0.00    +0.000 C 
ATOM      8  C   UNL     1       4.195   7.242  18.539  0.00  0.00    +0.000 C 
ATOM      9  C   UNL     1       4.472   4.593  18.451  0.00  0.00    +0.000 C 
ATOM     10  O   UNL     1       4.789   3.752  17.278  0.00  0.00    +0.000 OA
ATOM     11  C   UNL     1       5.908   4.327  16.719  0.00  0.00    +0.000 A 
ATOM     12  C   UNL     1       6.153   4.306  15.360  0.00  0.00    +0.000 A 
ATOM     13 CL   UNL     1       5.292   3.198  14.354  0.00  0.00    +0.000 Cl
ATOM     14  C   UNL     1       7.018   5.274  14.833  0.00  0.00    +0.000 A 
ATOM     15  C   UNL     1       7.685   6.165  15.703  0.00  0.00    +0.000 A 
ATOM     16  C   UNL     1       7.476   6.116  17.094  0.00  0.00    +0.000 A 
ATOM     17  C   UNL     1       6.613   5.145  17.582  0.00  0.00    +0.000 A 
ATOM     18  C   UNL     1       5.901   5.028  18.846  0.00  0.00    +0.000 C 
ATOM     19  O   UNL     1       6.310   5.379  19.941  0.00  0.00    +0.000 OA
ENDROOT
BRANCH   1  21
ATOM     20  C   UNL     1       4.501   1.459  19.678  0.00  0.00    +0.000 C 
ATOM     21  O   UNL     1       4.366   2.809  20.145  0.00  0.00    +0.000 OA
ENDBRANCH   1  21
BRANCH  14  22
ATOM     22  O   UNL     1       7.042   5.349  13.466  0.00  0.00    +0.000 OA
ATOM     23  C   UNL     1       8.289   5.479  12.806  0.00  0.00    +0.000 C 
ENDBRANCH  14  22
BRANCH  16  24
ATOM     24  O   UNL     1       7.973   7.049  17.959  0.00  0.00    +0.000 OA
ATOM     25  C   UNL     1       7.766   8.411  17.587  0.00  0.00    +0.000 C 
ENDBRANCH  16  24
TORSDOF 3
ENDMDL
MODEL 3
REMARK VINA RESULT:      -5.5      3.351      5.486
REMARK  Name = 
REMARK  7 active torsions:
REMARK  status: ('A' for Active; 'I' for Inactive)
REMARK    1  A    between atoms: C_1  and  O_2
REMARK    2  A    between atoms: O_2  and  C_3
REMARK    3  A    between atoms: C_9  and  C_10
REMARK    4  A    between atoms: C_16  and  O_17
REMARK    5  A    between atoms: O_17  and  C_18
REMARK    6  A    between atoms: C_20  and  O_21
REMARK    7  A    between atoms: O_21  and  C_22
REMARK                            x       y       z     vdW  Elec       q    Type
REMARK                         _______ _______ _______ _____ _____    ______ ____
ROOT
ATOM      1  C   UNL     1      -1.895  14.445  21.340  0.00  0.00    +0.000 C 
ATOM      2  C   UNL     1      -0.682  13.855  21.482  0.00  0.00    +0.000 C 
ATOM      3  I   UNL     1       1.203  14.635  21.486  0.00  0.00    +0.000 I 
ATOM      4  C   UNL     1      -0.750  12.389  21.704  0.00  0.00    +0.000 C 
ATOM      5  O   UNL     1      -0.208  11.577  20.965  0.00  0.00    +0.000 OA
ATOM      6  C   UNL     1      -1.599  11.998  22.859  0.00  0.00    +0.000 C 
ATOM      7  C   UNL     1      -3.041  12.371  22.539  0.00  0.00    +0.000 C 
ATOM      8  C   UNL     1      -3.775  12.500  23.887  0.00  0.00    +0.000 C 
ATOM      9  C   UNL     1      -3.180  13.627  21.546  0.00  0.00    +0.000 C 
ATOM     10  O   UNL     1      -3.469  13.112  20.192  0.00  0.00    +0.000 OA
ATOM     11  C   UNL     1      -4.812  12.811  20.203  0.00  0.00    +0.000 A 
ATOM     12  C   UNL     1      -5.347  11.774  19.464  0.00  0.00    +0.000 A 
ATOM     13 CL   UNL     1      -4.432  11.084  18.174  0.00  0.00    +0.000 Cl
ATOM     14  C   UNL     1      -6.580  11.246  19.869  0.00  0.00    +0.000 A 
ATOM     15  C   UNL     1      -7.280  11.845  20.942  0.00  0.00    +0.000 A 
ATOM     16  C   UNL     1      -6.747  12.950  21.631  0.00  0.00    +0.000 A 
ATOM     17  C   UNL     1      -5.524  13.447  21.203  0.00  0.00    +0.000 A 
ATOM     18  C   UNL     1      -4.539  14.293  21.860  0.00  0.00    +0.000 C 
ATOM     19  O   UNL     1      -4.771  15.209  22.632  0.00  0.00    +0.000 OA
ENDROOT
BRANCH   1  21
ATOM     20  C   UNL     1      -1.846  16.777  21.858  0.00  0.00    +0.000 C 
ATOM     21  O   UNL     1      -2.101  15.743  20.896  0.00  0.00    +0.000 OA
ENDBRANCH   1  21
BRANCH  14  22
ATOM     22  O   UNL     1      -6.946  10.083  19.247  0.00  0.00    +0.000 OA
ATOM     23  C   UNL     1      -7.276   8.955  20.037  0.00  0.00    +0.000 C 
ENDBRANCH  14  22
BRANCH  16  24
ATOM     24  O   UNL     1      -7.305  13.464  22.767  0.00  0.00    +0.000 OA
ATOM     25  C   UNL     1      -7.400  12.566  23.871  0.00  0.00    +0.000 C 
ENDBRANCH  16  24
TORSDOF 3
ENDMDL
MODEL 4
REMARK VINA RESULT:      -5.5      1.018      1.050
REMARK  Name = 
REMARK  7 active torsions:
REMARK  status: ('A' for Active; 'I' for Inactive)
REMARK    1  A    between atoms: C_1  and  O_2
REMARK    2  A    between atoms: O_2  and  C_3
REMARK    3  A    between atoms: C_9  and  C_10
REMARK    4  A    between atoms: C_16  and  O_17
REMARK    5  A    between atoms: O_17  and  C_18
REMARK    6  A    between atoms: C_20  and  O_21
REMARK    7  A    between atoms: O_21  and  C_22
REMARK                            x       y       z     vdW  Elec       q    Type
REMARK                         _______ _______ _______ _____ _____    ______ ____
ROOT
ATOM      1  C   UNL     1      -1.892  13.814  22.347  0.00  0.00    +0.000 C 
ATOM      2  C   UNL     1      -2.232  15.125  22.410  0.00  0.00    +0.000 C 
ATOM      3  I   UNL     1      -2.627  16.339  24.001  0.00  0.00    +0.000 I 
ATOM      4  C   UNL     1      -2.297  15.793  21.085  0.00  0.00    +0.000 C 
ATOM      5  O   UNL     1      -3.309  16.336  20.661  0.00  0.00    +0.000 OA
ATOM      6  C   UNL     1      -1.046  15.672  20.294  0.00  0.00    +0.000 C 
ATOM      7  C   UNL     1      -0.847  14.205  19.936  0.00  0.00    +0.000 C 
ATOM      8  C   UNL     1       0.655  14.018  19.649  0.00  0.00    +0.000 C 
ATOM      9  C   UNL     1      -1.484  13.186  21.004  0.00  0.00    +0.000 C 
ATOM     10  O   UNL     1      -2.768  12.696  20.462  0.00  0.00    +0.000 OA
ATOM     11  C   UNL     1      -2.422  11.723  19.551  0.00  0.00    +0.000 A 
ATOM     12  C   UNL     1      -3.163  11.477  18.411  0.00  0.00    +0.000 A 
ATOM     13 CL   UNL     1      -4.775  12.081  18.293  0.00  0.00    +0.000 Cl
ATOM     14  C   UNL     1      -2.527  10.834  17.341  0.00  0.00    +0.000 A 
ATOM     15  C   UNL     1      -1.199  10.372  17.490  0.00  0.00    +0.000 A 
ATOM     16  C   UNL     1      -0.491  10.570  18.690  0.00  0.00    +0.000 A 
ATOM     17  C   UNL     1      -1.152  11.209  19.729  0.00  0.00    +0.000 A 
ATOM     18  C   UNL     1      -0.658  11.882  20.922  0.00  0.00    +0.000 C 
ATOM     19  O   UNL     1       0.314  11.560  21.585  0.00  0.00    +0.000 OA
ENDROOT
BRANCH   1  21
ATOM     20  C   UNL     1      -3.310  12.454  23.706  0.00  0.00    +0.000 C 
ATOM     21  O   UNL     1      -1.987  12.916  23.399  0.00  0.00    +0.000 OA
ENDBRANCH   1  21
BRANCH  14  22
ATOM     22  O   UNL     1      -3.233  10.824  16.167  0.00  0.00    +0.000 OA
ATOM     23  C   UNL     1      -2.853   9.920  15.145  0.00  0.00    +0.000 C 
ENDBRANCH  14  22
BRANCH  16  24
ATOM     24  O   UNL     1       0.837  10.283  18.831  0.00  0.00    +0.000 OA
ATOM     25  C   UNL     1       1.366   9.329  17.912  0.00  0.00    +0.000 C 
ENDBRANCH  16  24
TORSDOF 3
ENDMDL
MODEL 5
REMARK VINA RESULT:      -5.4      2.915      5.170
REMARK  Name = 
REMARK  7 active torsions:
REMARK  status: ('A' for Active; 'I' for Inactive)
REMARK    1  A    between atoms: C_1  and  O_2
REMARK    2  A    between atoms: O_2  and  C_3
REMARK    3  A    between atoms: C_9  and  C_10
REMARK    4  A    between atoms: C_16  and  O_17
REMARK    5  A    between atoms: O_17  and  C_18
REMARK    6  A    between atoms: C_20  and  O_21
REMARK    7  A    between atoms: O_21  and  C_22
REMARK                            x       y       z     vdW  Elec       q    Type
REMARK                         _______ _______ _______ _____ _____    ______ ____
ROOT
ATOM      1  C   UNL     1      -0.216  13.759  20.093  0.00  0.00    +0.000 C 
ATOM      2  C   UNL     1       0.660  12.911  19.497  0.00  0.00    +0.000 C 
ATOM      3  I   UNL     1       2.479  13.240  18.635  0.00  0.00    +0.000 I 
ATOM      4  C   UNL     1       0.221  11.493  19.506  0.00  0.00    +0.000 C 
ATOM      5  O   UNL     1       0.067  10.836  18.484  0.00  0.00    +0.000 OA
ATOM      6  C   UNL     1      -0.087  10.971  20.863  0.00  0.00    +0.000 C 
ATOM      7  C   UNL     1      -1.304  11.716  21.395  0.00  0.00    +0.000 C 
ATOM      8  C   UNL     1      -1.258  11.600  22.931  0.00  0.00    +0.000 C 
ATOM      9  C   UNL     1      -1.456  13.207  20.815  0.00  0.00    +0.000 C 
ATOM     10  O   UNL     1      -2.478  13.183  19.749  0.00  0.00    +0.000 OA
ATOM     11  C   UNL     1      -3.685  13.183  20.412  0.00  0.00    +0.000 A 
ATOM     12  C   UNL     1      -4.805  12.544  19.916  0.00  0.00    +0.000 A 
ATOM     13 CL   UNL     1      -4.859  12.082  18.254  0.00  0.00    +0.000 Cl
ATOM     14  C   UNL     1      -5.816  12.194  20.821  0.00  0.00    +0.000 A 
ATOM     15  C   UNL     1      -5.712  12.587  22.174  0.00  0.00    +0.000 A 
ATOM     16  C   UNL     1      -4.594  13.305  22.639  0.00  0.00    +0.000 A 
ATOM     17  C   UNL     1      -3.612  13.635  21.716  0.00  0.00    +0.000 A 
ATOM     18  C   UNL     1      -2.219  14.024  21.881  0.00  0.00    +0.000 C 
ATOM     19  O   UNL     1      -1.760  14.703  22.786  0.00  0.00    +0.000 OA
ENDROOT
BRANCH   1  21
ATOM     20  C   UNL     1      -0.378  15.703  18.712  0.00  0.00    +0.000 C 
ATOM     21  O   UNL     1      -0.160  15.143  20.015  0.00  0.00    +0.000 OA
ENDBRANCH   1  21
BRANCH  14  22
ATOM     22  O   UNL     1      -6.785  11.367  20.317  0.00  0.00    +0.000 OA
ATOM     23  C   UNL     1      -7.883  11.015  21.140  0.00  0.00    +0.000 C 
ENDBRANCH  14  22
BRANCH  16  24
ATOM     24  O   UNL     1      -4.372  13.571  23.960  0.00  0.00    +0.000 OA
ATOM     25  C   UNL     1      -4.385  12.441  24.831  0.00  0.00    +0.000 C 
ENDBRANCH  16  24
TORSDOF 3
ENDMDL
MODEL 6
REMARK VINA RESULT:      -5.3      3.227      5.982
REMARK  Name = 
REMARK  7 active torsions:
REMARK  status: ('A' for Active; 'I' for Inactive)
REMARK    1  A    between atoms: C_1  and  O_2
REMARK    2  A    between atoms: O_2  and  C_3
REMARK    3  A    between atoms: C_9  and  C_10
REMARK    4  A    between atoms: C_16  and  O_17
REMARK    5  A    between atoms: O_17  and  C_18
REMARK    6  A    between atoms: C_20  and  O_21
REMARK    7  A    between atoms: O_21  and  C_22
REMARK                            x       y       z     vdW  Elec       q    Type
REMARK                         _______ _______ _______ _____ _____    ______ ____
ROOT
ATOM      1  C   UNL     1       0.802  10.207  20.679  0.00  0.00    +0.000 C 
ATOM      2  C   UNL     1       1.165   9.244  19.796  0.00  0.00    +0.000 C 
ATOM      3  I   UNL     1       1.827   7.335  20.082  0.00  0.00    +0.000 I 
ATOM      4  C   UNL     1       1.025   9.649  18.375  0.00  0.00    +0.000 C 
ATOM      5  O   UNL     1       1.963   9.655  17.588  0.00  0.00    +0.000 OA
ATOM      6  C   UNL     1      -0.339  10.119  18.019  0.00  0.00    +0.000 C 
ATOM      7  C   UNL     1      -0.611  11.410  18.779  0.00  0.00    +0.000 C 
ATOM      8  C   UNL     1      -2.142  11.562  18.861  0.00  0.00    +0.000 C 
ATOM      9  C   UNL     1       0.175  11.518  20.177  0.00  0.00    +0.000 C 
ATOM     10  O   UNL     1       1.348  12.393  19.977  0.00  0.00    +0.000 OA
ATOM     11  C   UNL     1       0.849  13.675  20.016  0.00  0.00    +0.000 A 
ATOM     12  C   UNL     1       1.393  14.707  19.277  0.00  0.00    +0.000 A 
ATOM     13 CL   UNL     1       2.973  14.535  18.605  0.00  0.00    +0.000 Cl
ATOM     14  C   UNL     1       0.585  15.819  19.006  0.00  0.00    +0.000 A 
ATOM     15  C   UNL     1      -0.708  15.900  19.573  0.00  0.00    +0.000 A 
ATOM     16  C   UNL     1      -1.211  14.868  20.386  0.00  0.00    +0.000 A 
ATOM     17  C   UNL     1      -0.384  13.782  20.633  0.00  0.00    +0.000 A 
ATOM     18  C   UNL     1      -0.670  12.431  21.094  0.00  0.00    +0.000 C 
ATOM     19  O   UNL     1      -1.528  12.108  21.899  0.00  0.00    +0.000 OA
ENDROOT
BRANCH   1  21
ATOM     20  C   UNL     1       0.151   9.371  22.821  0.00  0.00    +0.000 C 
ATOM     21  O   UNL     1       1.052  10.172  22.043  0.00  0.00    +0.000 OA
ENDBRANCH   1  21
BRANCH  14  22
ATOM     22  O   UNL     1       1.093  16.696  18.086  0.00  0.00    +0.000 OA
ATOM     23  C   UNL     1       0.317  17.818  17.704  0.00  0.00    +0.000 C 
ENDBRANCH  14  22
BRANCH  16  24
ATOM     24  O   UNL     1      -2.503  14.825  20.828  0.00  0.00    +0.000 OA
ATOM     25  C   UNL     1      -2.756  15.488  22.066  0.00  0.00    +0.000 C 
ENDBRANCH  16  24
TORSDOF 3
ENDMDL
MODEL 7
REMARK VINA RESULT:      -5.2      3.138      5.334
REMARK  Name = 
REMARK  7 active torsions:
REMARK  status: ('A' for Active; 'I' for Inactive)
REMARK    1  A    between atoms: C_1  and  O_2
REMARK    2  A    between atoms: O_2  and  C_3
REMARK    3  A    between atoms: C_9  and  C_10
REMARK    4  A    between atoms: C_16  and  O_17
REMARK    5  A    between atoms: O_17  and  C_18
REMARK    6  A    between atoms: C_20  and  O_21
REMARK    7  A    between atoms: O_21  and  C_22
REMARK                            x       y       z     vdW  Elec       q    Type
REMARK                         _______ _______ _______ _____ _____    ______ ____
ROOT
ATOM      1  C   UNL     1      -0.944  13.938  20.948  0.00  0.00    +0.000 C 
ATOM      2  C   UNL     1       0.151  13.161  20.755  0.00  0.00    +0.000 C 
ATOM      3  I   UNL     1       2.111  13.643  20.462  0.00  0.00    +0.000 I 
ATOM      4  C   UNL     1      -0.134  11.704  20.794  0.00  0.00    +0.000 C 
ATOM      5  O   UNL     1       0.109  10.952  19.859  0.00  0.00    +0.000 OA
ATOM      6  C   UNL     1      -0.808  11.261  22.041  0.00  0.00    +0.000 C 
ATOM      7  C   UNL     1      -2.195  11.888  22.083  0.00  0.00    +0.000 C 
ATOM      8  C   UNL     1      -2.631  11.904  23.560  0.00  0.00    +0.000 C 
ATOM      9  C   UNL     1      -2.292  13.296  21.313  0.00  0.00    +0.000 C 
ATOM     10  O   UNL     1      -2.915  13.056  19.995  0.00  0.00    +0.000 OA
ATOM     11  C   UNL     1      -4.264  12.959  20.249  0.00  0.00    +0.000 A 
ATOM     12  C   UNL     1      -5.102  12.146  19.511  0.00  0.00    +0.000 A 
ATOM     13 CL   UNL     1      -4.580  11.546  17.980  0.00  0.00    +0.000 Cl
ATOM     14  C   UNL     1      -6.312  11.746  20.095  0.00  0.00    +0.000 A 
ATOM     15  C   UNL     1      -6.682  12.259  21.359  0.00  0.00    +0.000 A 
ATOM     16  C   UNL     1      -5.843  13.147  22.058  0.00  0.00    +0.000 A 
ATOM     17  C   UNL     1      -4.653  13.521  21.450  0.00  0.00    +0.000 A 
ATOM     18  C   UNL     1      -3.429  14.095  21.989  0.00  0.00    +0.000 C 
ATOM     19  O   UNL     1      -3.348  14.898  22.905  0.00  0.00    +0.000 OA
ENDROOT
BRANCH   1  21
ATOM     20  C   UNL     1      -0.781  15.730  19.375  0.00  0.00    +0.000 C 
ATOM     21  O   UNL     1      -0.996  15.307  20.730  0.00  0.00    +0.000 OA
ENDBRANCH   1  21
BRANCH  14  22
ATOM     22  O   UNL     1      -6.988  10.767  19.419  0.00  0.00    +0.000 OA
ATOM     23  C   UNL     1      -7.175   9.507  20.039  0.00  0.00    +0.000 C 
ENDBRANCH  14  22
BRANCH  16  24
ATOM     24  O   UNL     1      -6.080  13.547  23.342  0.00  0.00    +0.000 OA
ATOM     25  C   UNL     1      -7.173  12.906  23.998  0.00  0.00    +0.000 C 
ENDBRANCH  16  24
TORSDOF 3
ENDMDL
MODEL 8
REMARK VINA RESULT:      -5.1      3.102      5.280
REMARK  Name = 
REMARK  7 active torsions:
REMARK  status: ('A' for Active; 'I' for Inactive)
REMARK    1  A    between atoms: C_1  and  O_2
REMARK    2  A    between atoms: O_2  and  C_3
REMARK    3  A    between atoms: C_9  and  C_10
REMARK    4  A    between atoms: C_16  and  O_17
REMARK    5  A    between atoms: O_17  and  C_18
REMARK    6  A    between atoms: C_20  and  O_21
REMARK    7  A    between atoms: O_21  and  C_22
REMARK                            x       y       z     vdW  Elec       q    Type
REMARK                         _______ _______ _______ _____ _____    ______ ____
ROOT
ATOM      1  C   UNL     1      -0.642  13.329  19.468  0.00  0.00    +0.000 C 
ATOM      2  C   UNL     1       0.330  12.439  19.150  0.00  0.00    +0.000 C 
ATOM      3  I   UNL     1       2.210  12.706  18.406  0.00  0.00    +0.000 I 
ATOM      4  C   UNL     1      -0.038  11.027  19.424  0.00  0.00    +0.000 C 
ATOM      5  O   UNL     1      -0.053  10.161  18.557  0.00  0.00    +0.000 OA
ATOM      6  C   UNL     1      -0.458  10.780  20.827  0.00  0.00    +0.000 C 
ATOM      7  C   UNL     1      -1.758  11.533  21.076  0.00  0.00    +0.000 C 
ATOM      8  C   UNL     1      -1.865  11.744  22.598  0.00  0.00    +0.000 C 
ATOM      9  C   UNL     1      -1.922  12.855  20.176  0.00  0.00    +0.000 C 
ATOM     10  O   UNL     1      -2.827  12.537  19.053  0.00  0.00    +0.000 OA
ATOM     11  C   UNL     1      -4.094  12.592  19.589  0.00  0.00    +0.000 A 
ATOM     12  C   UNL     1      -5.124  11.787  19.143  0.00  0.00    +0.000 A 
ATOM     13 CL   UNL     1      -4.984  10.985  17.621  0.00  0.00    +0.000 Cl
ATOM     14  C   UNL     1      -6.204  11.564  20.006  0.00  0.00    +0.000 A 
ATOM     15  C   UNL     1      -6.260  12.238  21.247  0.00  0.00    +0.000 A 
ATOM     16  C   UNL     1      -5.232  13.113  21.646  0.00  0.00    +0.000 A 
ATOM     17  C   UNL     1      -4.178  13.311  20.767  0.00  0.00    +0.000 A 
ATOM     18  C   UNL     1      -2.830  13.822  20.969  0.00  0.00    +0.000 C 
ATOM     19  O   UNL     1      -2.500  14.706  21.744  0.00  0.00    +0.000 OA
ENDROOT
BRANCH   1  21
ATOM     20  C   UNL     1       0.221  15.523  19.856  0.00  0.00    +0.000 C 
ATOM     21  O   UNL     1      -0.647  14.667  19.100  0.00  0.00    +0.000 OA
ENDBRANCH   1  21
BRANCH  14  22
ATOM     22  O   UNL     1      -7.075  10.585  19.607  0.00  0.00    +0.000 OA
ATOM     23  C   UNL     1      -7.507   9.623  20.552  0.00  0.00    +0.000 C 
ENDBRANCH  14  22
BRANCH  16  24
ATOM     24  O   UNL     1      -5.161  13.665  22.894  0.00  0.00    +0.000 OA
ATOM     25  C   UNL     1      -6.218  13.317  23.786  0.00  0.00    +0.000 C 
ENDBRANCH  16  24
TORSDOF 3
ENDMDL
MODEL 9
REMARK VINA RESULT:      -5.1      3.431      6.334
REMARK  Name = 
REMARK  7 active torsions:
REMARK  status: ('A' for Active; 'I' for Inactive)
REMARK    1  A    between atoms: C_1  and  O_2
REMARK    2  A    between atoms: O_2  and  C_3
REMARK    3  A    between atoms: C_9  and  C_10
REMARK    4  A    between atoms: C_16  and  O_17
REMARK    5  A    between atoms: O_17  and  C_18
REMARK    6  A    between atoms: C_20  and  O_21
REMARK    7  A    between atoms: O_21  and  C_22
REMARK                            x       y       z     vdW  Elec       q    Type
REMARK                         _______ _______ _______ _____ _____    ______ ____
ROOT
ATOM      1  C   UNL     1       0.163  11.237  20.989  0.00  0.00    +0.000 C 
ATOM      2  C   UNL     1       0.438  11.165  19.663  0.00  0.00    +0.000 C 
ATOM      3  I   UNL     1       1.354   9.719  18.554  0.00  0.00    +0.000 I 
ATOM      4  C   UNL     1      -0.044  12.335  18.887  0.00  0.00    +0.000 C 
ATOM      5  O   UNL     1       0.700  13.048  18.225  0.00  0.00    +0.000 OA
ATOM      6  C   UNL     1      -1.496  12.604  19.050  0.00  0.00    +0.000 C 
ATOM      7  C   UNL     1      -1.745  13.017  20.495  0.00  0.00    +0.000 C 
ATOM      8  C   UNL     1      -3.231  12.735  20.787  0.00  0.00    +0.000 C 
ATOM      9  C   UNL     1      -0.698  12.386  21.538  0.00  0.00    +0.000 C 
ATOM     10  O   UNL     1       0.301  13.422  21.870  0.00  0.00    +0.000 OA
ATOM     11  C   UNL     1      -0.319  14.235  22.792  0.00  0.00    +0.000 A 
ATOM     12  C   UNL     1      -0.063  15.589  22.879  0.00  0.00    +0.000 A 
ATOM     13 CL   UNL     1       1.349  16.241  22.130  0.00  0.00    +0.000 Cl
ATOM     14  C   UNL     1      -1.029  16.404  23.484  0.00  0.00    +0.000 A 
ATOM     15  C   UNL     1      -2.173  15.816  24.070  0.00  0.00    +0.000 A 
ATOM     16  C   UNL     1      -2.375  14.423  24.033  0.00  0.00    +0.000 A 
ATOM     17  C   UNL     1      -1.398  13.647  23.426  0.00  0.00    +0.000 A 
ATOM     18  C   UNL     1      -1.427  12.292  22.898  0.00  0.00    +0.000 C 
ATOM     19  O   UNL     1      -2.054  11.350  23.356  0.00  0.00    +0.000 OA
ENDROOT
BRANCH   1  21
ATOM     20  C   UNL     1       0.109   9.097  22.052  0.00  0.00    +0.000 C 
ATOM     21  O   UNL     1       0.699  10.402  21.959  0.00  0.00    +0.000 OA
ENDBRANCH   1  21
BRANCH  14  22
ATOM     22  O   UNL     1      -0.828  17.750  23.338  0.00  0.00    +0.000 OA
ATOM     23  C   UNL     1      -1.718  18.494  22.524  0.00  0.00    +0.000 C 
ENDBRANCH  14  22
BRANCH  16  24
ATOM     24  O   UNL     1      -3.531  13.823  24.444  0.00  0.00    +0.000 OA
ATOM     25  C   UNL     1      -4.725  14.288  23.817  0.00  0.00    +0.000 C 
ENDBRANCH  16  24
TORSDOF 3
ENDMDL
