MODEL 1
REMARK VINA RESULT:      -7.9      0.000      0.000
REMARK  Name = 
REMARK  4 active torsions:
REMARK  status: ('A' for Active; 'I' for Inactive)
REMARK    1  A    between atoms: N_4  and  C_5
REMARK    2  A    between atoms: C_10  and  C_11
REMARK    3  A    between atoms: C_14  and  C_15
REMARK    4  A    between atoms: C_15  and  O_17
REMARK                            x       y       z     vdW  Elec       q    Type
REMARK                         _______ _______ _______ _____ _____    ______ ____
ROOT
ATOM      1  C   UNL     1       3.508   4.358  18.733  0.00  0.00    +0.000 A 
ATOM      2  C   UNL     1       3.809   5.289  17.726  0.00  0.00    +0.000 A 
ATOM      3  C   UNL     1       3.382   6.620  17.780  0.00  0.00    +0.000 A 
ATOM      4  C   UNL     1       2.627   6.979  18.891  0.00  0.00    +0.000 A 
ATOM      5  N   UNL     1       2.075   8.169  19.277  0.00  0.00    +0.000 N 
ATOM      6  C   UNL     1       1.395   7.983  20.457  0.00  0.00    +0.000 A 
ATOM      7  N   UNL     1       1.537   6.736  20.871  0.00  0.00    +0.000 NA
ATOM      8  C   UNL     1       2.277   6.097  19.902  0.00  0.00    +0.000 A 
ATOM      9  C   UNL     1       2.712   4.764  19.822  0.00  0.00    +0.000 A 
ATOM     10  H   UNL     1       2.161   9.044  18.783  0.00  0.00    +0.000 HD
ENDROOT
BRANCH   1  14
ATOM     11  N   UNL     1       4.253   0.793  18.600  0.00  0.00    +0.000 NA
ATOM     12  C   UNL     1       3.566   1.866  18.392  0.00  0.00    +0.000 C 
ATOM     13  N   UNL     1       2.381   1.824  17.748  0.00  0.00    +0.000 N 
ATOM     14  N   UNL     1       4.069   3.068  18.760  0.00  0.00    +0.000 N 
ATOM     15  H   UNL     1       3.729  -0.014  18.258  0.00  0.00    +0.000 HD
ATOM     16  H   UNL     1       2.188   0.975  17.235  0.00  0.00    +0.000 HD
ATOM     17  H   UNL     1       2.205   2.645  17.180  0.00  0.00    +0.000 HD
ATOM     18  H   UNL     1       5.019   3.013  19.109  0.00  0.00    +0.000 HD
ENDBRANCH   1  14
BRANCH   6  19
ATOM     19  C   UNL     1       0.654   9.055  21.124  0.00  0.00    +0.000 A 
ATOM     20  C   UNL     1       0.280  10.214  20.428  0.00  0.00    +0.000 A 
ATOM     21  C   UNL     1      -0.426  11.234  21.071  0.00  0.00    +0.000 A 
ATOM     22  C   UNL     1      -0.768  11.114  22.422  0.00  0.00    +0.000 A 
ATOM     23  C   UNL     1      -0.421   9.951  23.120  0.00  0.00    +0.000 A 
ATOM     24  C   UNL     1       0.288   8.931  22.471  0.00  0.00    +0.000 A 
BRANCH  22  25
ATOM     25  C   UNL     1      -1.546  12.223  23.032  0.00  0.00    +0.000 C 
ATOM     26  O   UNL     1      -1.015  13.217  23.506  0.00  0.00    +0.000 OA
BRANCH  25  27
ATOM     27  O   UNL     1      -2.878  12.018  23.066  0.00  0.00    +0.000 OA
ATOM     28  H   UNL     1      -3.365  12.289  22.270  0.00  0.00    +0.000 HD
ENDBRANCH  25  27
ENDBRANCH  22  25
ENDBRANCH   6  19
TORSDOF 4
ENDMDL
MODEL 2
REMARK VINA RESULT:      -7.9      0.133      1.236
REMARK  Name = 
REMARK  4 active torsions:
REMARK  status: ('A' for Active; 'I' for Inactive)
REMARK    1  A    between atoms: N_4  and  C_5
REMARK    2  A    between atoms: C_10  and  C_11
REMARK    3  A    between atoms: C_14  and  C_15
REMARK    4  A    between atoms: C_15  and  O_17
REMARK                            x       y       z     vdW  Elec       q    Type
REMARK                         _______ _______ _______ _____ _____    ______ ____
ROOT
ATOM      1  C   UNL     1       3.550   4.309  18.722  0.00  0.00    +0.000 A 
ATOM      2  C   UNL     1       3.878   5.258  17.740  0.00  0.00    +0.000 A 
ATOM      3  C   UNL     1       3.449   6.588  17.806  0.00  0.00    +0.000 A 
ATOM      4  C   UNL     1       2.663   6.927  18.903  0.00  0.00    +0.000 A 
ATOM      5  N   UNL     1       2.100   8.109  19.295  0.00  0.00    +0.000 N 
ATOM      6  C   UNL     1       1.388   7.902  20.452  0.00  0.00    +0.000 A 
ATOM      7  N   UNL     1       1.519   6.649  20.847  0.00  0.00    +0.000 NA
ATOM      8  C   UNL     1       2.286   6.027  19.887  0.00  0.00    +0.000 A 
ATOM      9  C   UNL     1       2.724   4.696  19.796  0.00  0.00    +0.000 A 
ATOM     10  H   UNL     1       2.199   8.993  18.819  0.00  0.00    +0.000 HD
ENDROOT
BRANCH   1  14
ATOM     11  N   UNL     1       4.286   0.742  18.603  0.00  0.00    +0.000 NA
ATOM     12  C   UNL     1       3.591   1.813  18.412  0.00  0.00    +0.000 C 
ATOM     13  N   UNL     1       2.378   1.764  17.823  0.00  0.00    +0.000 N 
ATOM     14  N   UNL     1       4.110   3.020  18.741  0.00  0.00    +0.000 N 
ATOM     15  H   UNL     1       3.747  -0.069  18.296  0.00  0.00    +0.000 HD
ATOM     16  H   UNL     1       2.161   0.908  17.331  0.00  0.00    +0.000 HD
ATOM     17  H   UNL     1       2.177   2.577  17.253  0.00  0.00    +0.000 HD
ATOM     18  H   UNL     1       5.075   2.968  19.047  0.00  0.00    +0.000 HD
ENDBRANCH   1  14
BRANCH   6  19
ATOM     19  C   UNL     1       0.628   8.962  21.117  0.00  0.00    +0.000 A 
ATOM     20  C   UNL     1       0.283   8.861  22.472  0.00  0.00    +0.000 A 
ATOM     21  C   UNL     1      -0.444   9.876  23.100  0.00  0.00    +0.000 A 
ATOM     22  C   UNL     1      -0.840  11.009  22.382  0.00  0.00    +0.000 A 
ATOM     23  C   UNL     1      -0.481  11.131  21.035  0.00  0.00    +0.000 A 
ATOM     24  C   UNL     1       0.247  10.110  20.409  0.00  0.00    +0.000 A 
BRANCH  22  25
ATOM     25  C   UNL     1      -1.583  12.062  23.122  0.00  0.00    +0.000 C 
ATOM     26  O   UNL     1      -2.752  11.933  23.455  0.00  0.00    +0.000 OA
BRANCH  25  27
ATOM     27  O   UNL     1      -0.878  13.189  23.346  0.00  0.00    +0.000 OA
ATOM     28  H   UNL     1      -0.870  13.832  22.616  0.00  0.00    +0.000 HD
ENDBRANCH  25  27
ENDBRANCH  22  25
ENDBRANCH   6  19
TORSDOF 4
ENDMDL
MODEL 3
REMARK VINA RESULT:      -7.7      1.573      2.285
REMARK  Name = 
REMARK  4 active torsions:
REMARK  status: ('A' for Active; 'I' for Inactive)
REMARK    1  A    between atoms: N_4  and  C_5
REMARK    2  A    between atoms: C_10  and  C_11
REMARK    3  A    between atoms: C_14  and  C_15
REMARK    4  A    between atoms: C_15  and  O_17
REMARK                            x       y       z     vdW  Elec       q    Type
REMARK                         _______ _______ _______ _____ _____    ______ ____
ROOT
ATOM      1  C   UNL     1       4.084   4.735  17.621  0.00  0.00    +0.000 A 
ATOM      2  C   UNL     1       3.860   3.947  18.761  0.00  0.00    +0.000 A 
ATOM      3  C   UNL     1       3.150   4.415  19.872  0.00  0.00    +0.000 A 
ATOM      4  C   UNL     1       2.679   5.721  19.795  0.00  0.00    +0.000 A 
ATOM      5  N   UNL     1       1.945   6.482  20.661  0.00  0.00    +0.000 N 
ATOM      6  C   UNL     1       1.766   7.731  20.116  0.00  0.00    +0.000 A 
ATOM      7  N   UNL     1       2.305   7.782  18.912  0.00  0.00    +0.000 NA
ATOM      8  C   UNL     1       2.894   6.554  18.707  0.00  0.00    +0.000 A 
ATOM      9  C   UNL     1       3.615   6.063  17.606  0.00  0.00    +0.000 A 
ATOM     10  H   UNL     1       1.585   6.176  21.552  0.00  0.00    +0.000 HD
ENDROOT
BRANCH   1  14
ATOM     11  N   UNL     1       6.225   3.623  14.889  0.00  0.00    +0.000 NA
ATOM     12  C   UNL     1       5.947   4.044  16.078  0.00  0.00    +0.000 C 
ATOM     13  N   UNL     1       6.918   4.250  16.992  0.00  0.00    +0.000 N 
ATOM     14  N   UNL     1       4.655   4.216  16.445  0.00  0.00    +0.000 N 
ATOM     15  H   UNL     1       7.238   3.546  14.787  0.00  0.00    +0.000 HD
ATOM     16  H   UNL     1       7.814   3.832  16.784  0.00  0.00    +0.000 HD
ATOM     17  H   UNL     1       6.626   4.040  17.939  0.00  0.00    +0.000 HD
ATOM     18  H   UNL     1       3.995   3.906  15.740  0.00  0.00    +0.000 HD
ENDBRANCH   1  14
BRANCH   6  19
ATOM     19  C   UNL     1       1.052   8.805  20.810  0.00  0.00    +0.000 A 
ATOM     20  C   UNL     1       0.575   9.923  20.111  0.00  0.00    +0.000 A 
ATOM     21  C   UNL     1      -0.105  10.945  20.779  0.00  0.00    +0.000 A 
ATOM     22  C   UNL     1      -0.316  10.867  22.160  0.00  0.00    +0.000 A 
ATOM     23  C   UNL     1       0.136   9.745  22.864  0.00  0.00    +0.000 A 
ATOM     24  C   UNL     1       0.817   8.723  22.189  0.00  0.00    +0.000 A 
BRANCH  22  25
ATOM     25  C   UNL     1      -1.073  11.974  22.799  0.00  0.00    +0.000 C 
ATOM     26  O   UNL     1      -0.522  12.939  23.311  0.00  0.00    +0.000 OA
BRANCH  25  27
ATOM     27  O   UNL     1      -2.409  11.800  22.816  0.00  0.00    +0.000 OA
ATOM     28  H   UNL     1      -2.917  12.491  23.275  0.00  0.00    +0.000 HD
ENDBRANCH  25  27
ENDBRANCH  22  25
ENDBRANCH   6  19
TORSDOF 4
ENDMDL
MODEL 4
REMARK VINA RESULT:      -7.6      1.440      2.530
REMARK  Name = 
REMARK  4 active torsions:
REMARK  status: ('A' for Active; 'I' for Inactive)
REMARK    1  A    between atoms: N_4  and  C_5
REMARK    2  A    between atoms: C_10  and  C_11
REMARK    3  A    between atoms: C_14  and  C_15
REMARK    4  A    between atoms: C_15  and  O_17
REMARK                            x       y       z     vdW  Elec       q    Type
REMARK                         _______ _______ _______ _____ _____    ______ ____
ROOT
ATOM      1  C   UNL     1       3.979   4.972  17.799  0.00  0.00    +0.000 A 
ATOM      2  C   UNL     1       3.744   4.174  18.931  0.00  0.00    +0.000 A 
ATOM      3  C   UNL     1       3.013   4.629  20.034  0.00  0.00    +0.000 A 
ATOM      4  C   UNL     1       2.530   5.932  19.957  0.00  0.00    +0.000 A 
ATOM      5  N   UNL     1       1.777   6.680  20.816  0.00  0.00    +0.000 N 
ATOM      6  C   UNL     1       1.593   7.931  20.275  0.00  0.00    +0.000 A 
ATOM      7  N   UNL     1       2.151   7.994  19.080  0.00  0.00    +0.000 NA
ATOM      8  C   UNL     1       2.755   6.772  18.878  0.00  0.00    +0.000 A 
ATOM      9  C   UNL     1       3.497   6.296  17.785  0.00  0.00    +0.000 A 
ATOM     10  H   UNL     1       1.405   6.365  21.700  0.00  0.00    +0.000 HD
ENDROOT
BRANCH   1  14
ATOM     11  N   UNL     1       6.177   3.820  15.130  0.00  0.00    +0.000 NA
ATOM     12  C   UNL     1       5.865   4.204  16.323  0.00  0.00    +0.000 C 
ATOM     13  N   UNL     1       6.796   4.284  17.297  0.00  0.00    +0.000 N 
ATOM     14  N   UNL     1       4.573   4.465  16.630  0.00  0.00    +0.000 N 
ATOM     15  H   UNL     1       7.185   3.665  15.078  0.00  0.00    +0.000 HD
ATOM     16  H   UNL     1       7.666   3.804  17.115  0.00  0.00    +0.000 HD
ATOM     17  H   UNL     1       6.434   4.053  18.215  0.00  0.00    +0.000 HD
ATOM     18  H   UNL     1       3.932   4.246  15.875  0.00  0.00    +0.000 HD
ENDBRANCH   1  14
BRANCH   6  19
ATOM     19  C   UNL     1       0.859   8.994  20.964  0.00  0.00    +0.000 A 
ATOM     20  C   UNL     1       0.268   8.768  22.215  0.00  0.00    +0.000 A 
ATOM     21  C   UNL     1      -0.433   9.787  22.866  0.00  0.00    +0.000 A 
ATOM     22  C   UNL     1      -0.556  11.049  22.276  0.00  0.00    +0.000 A 
ATOM     23  C   UNL     1       0.050  11.292  21.037  0.00  0.00    +0.000 A 
ATOM     24  C   UNL     1       0.750  10.267  20.388  0.00  0.00    +0.000 A 
BRANCH  22  25
ATOM     25  C   UNL     1      -1.288  12.093  23.038  0.00  0.00    +0.000 C 
ATOM     26  O   UNL     1      -2.476  11.998  23.312  0.00  0.00    +0.000 OA
BRANCH  25  27
ATOM     27  O   UNL     1      -0.548  13.173  23.356  0.00  0.00    +0.000 OA
ATOM     28  H   UNL     1       0.120  13.433  22.698  0.00  0.00    +0.000 HD
ENDBRANCH  25  27
ENDBRANCH  22  25
ENDBRANCH   6  19
TORSDOF 4
ENDMDL
MODEL 5
REMARK VINA RESULT:      -7.6      2.091      2.961
REMARK  Name = 
REMARK  4 active torsions:
REMARK  status: ('A' for Active; 'I' for Inactive)
REMARK    1  A    between atoms: N_4  and  C_5
REMARK    2  A    between atoms: C_10  and  C_11
REMARK    3  A    between atoms: C_14  and  C_15
REMARK    4  A    between atoms: C_15  and  O_17
REMARK                            x       y       z     vdW  Elec       q    Type
REMARK                         _______ _______ _______ _____ _____    ______ ____
ROOT
ATOM      1  C   UNL     1       4.709   4.555  17.132  0.00  0.00    +0.000 A 
ATOM      2  C   UNL     1       4.760   3.908  18.377  0.00  0.00    +0.000 A 
ATOM      3  C   UNL     1       4.114   4.408  19.513  0.00  0.00    +0.000 A 
ATOM      4  C   UNL     1       3.416   5.600  19.348  0.00  0.00    +0.000 A 
ATOM      5  N   UNL     1       2.667   6.348  20.212  0.00  0.00    +0.000 N 
ATOM      6  C   UNL     1       2.209   7.465  19.554  0.00  0.00    +0.000 A 
ATOM      7  N   UNL     1       2.587   7.432  18.289  0.00  0.00    +0.000 NA
ATOM      8  C   UNL     1       3.354   6.296  18.151  0.00  0.00    +0.000 A 
ATOM      9  C   UNL     1       4.016   5.777  17.027  0.00  0.00    +0.000 A 
ATOM     10  H   UNL     1       2.472   6.116  21.174  0.00  0.00    +0.000 HD
ENDROOT
BRANCH   1  14
ATOM     11  N   UNL     1       6.567   3.602  14.146  0.00  0.00    +0.000 NA
ATOM     12  C   UNL     1       6.358   4.214  15.263  0.00  0.00    +0.000 C 
ATOM     13  N   UNL     1       7.284   5.040  15.793  0.00  0.00    +0.000 N 
ATOM     14  N   UNL     1       5.221   3.974  15.959  0.00  0.00    +0.000 N 
ATOM     15  H   UNL     1       7.468   3.897  13.764  0.00  0.00    +0.000 HD
ATOM     16  H   UNL     1       8.216   4.961  15.410  0.00  0.00    +0.000 HD
ATOM     17  H   UNL     1       7.301   5.025  16.806  0.00  0.00    +0.000 HD
ATOM     18  H   UNL     1       4.652   3.240  15.552  0.00  0.00    +0.000 HD
ENDBRANCH   1  14
BRANCH   6  19
ATOM     19  C   UNL     1       1.405   8.499  20.208  0.00  0.00    +0.000 A 
ATOM     20  C   UNL     1       1.153   8.452  21.586  0.00  0.00    +0.000 A 
ATOM     21  C   UNL     1       0.384   9.441  22.204  0.00  0.00    +0.000 A 
ATOM     22  C   UNL     1      -0.150  10.493  21.453  0.00  0.00    +0.000 A 
ATOM     23  C   UNL     1       0.114  10.562  20.080  0.00  0.00    +0.000 A 
ATOM     24  C   UNL     1       0.885   9.567  19.464  0.00  0.00    +0.000 A 
BRANCH  22  25
ATOM     25  C   UNL     1      -0.933  11.526  22.180  0.00  0.00    +0.000 C 
ATOM     26  O   UNL     1      -0.730  11.800  23.354  0.00  0.00    +0.000 OA
BRANCH  25  27
ATOM     27  O   UNL     1      -1.916  12.094  21.455  0.00  0.00    +0.000 OA
ATOM     28  H   UNL     1      -2.171  12.993  21.725  0.00  0.00    +0.000 HD
ENDBRANCH  25  27
ENDBRANCH  22  25
ENDBRANCH   6  19
TORSDOF 4
ENDMDL
MODEL 6
REMARK VINA RESULT:      -7.5      4.855      8.641
REMARK  Name = 
REMARK  4 active torsions:
REMARK  status: ('A' for Active; 'I' for Inactive)
REMARK    1  A    between atoms: N_4  and  C_5
REMARK    2  A    between atoms: C_10  and  C_11
REMARK    3  A    between atoms: C_14  and  C_15
REMARK    4  A    between atoms: C_15  and  O_17
REMARK                            x       y       z     vdW  Elec       q    Type
REMARK                         _______ _______ _______ _____ _____    ______ ____
ROOT
ATOM      1  C   UNL     1       0.207  11.648  20.194  0.00  0.00    +0.000 A 
ATOM      2  C   UNL     1      -0.155  11.238  21.488  0.00  0.00    +0.000 A 
ATOM      3  C   UNL     1       0.138   9.963  21.983  0.00  0.00    +0.000 A 
ATOM      4  C   UNL     1       0.808   9.106  21.117  0.00  0.00    +0.000 A 
ATOM      5  N   UNL     1       1.264   7.826  21.266  0.00  0.00    +0.000 N 
ATOM      6  C   UNL     1       1.839   7.417  20.087  0.00  0.00    +0.000 A 
ATOM      7  N   UNL     1       1.820   8.402  19.207  0.00  0.00    +0.000 NA
ATOM      8  C   UNL     1       1.165   9.446  19.821  0.00  0.00    +0.000 A 
ATOM      9  C   UNL     1       0.854  10.730  19.344  0.00  0.00    +0.000 A 
ATOM     10  H   UNL     1       1.199   7.274  22.108  0.00  0.00    +0.000 HD
ENDROOT
BRANCH   1  14
ATOM     11  N   UNL     1      -0.431  14.757  18.403  0.00  0.00    +0.000 NA
ATOM     12  C   UNL     1      -0.494  13.487  18.628  0.00  0.00    +0.000 C 
ATOM     13  N   UNL     1      -1.162  12.662  17.795  0.00  0.00    +0.000 N 
ATOM     14  N   UNL     1       0.057  12.975  19.754  0.00  0.00    +0.000 N 
ATOM     15  H   UNL     1      -0.899  14.967  17.520  0.00  0.00    +0.000 HD
ATOM     16  H   UNL     1      -1.798  13.108  17.149  0.00  0.00    +0.000 HD
ATOM     17  H   UNL     1      -1.608  11.887  18.273  0.00  0.00    +0.000 HD
ATOM     18  H   UNL     1       0.414  13.686  20.382  0.00  0.00    +0.000 HD
ENDBRANCH   1  14
BRANCH   6  19
ATOM     19  C   UNL     1       2.394   6.075  19.898  0.00  0.00    +0.000 A 
ATOM     20  C   UNL     1       3.418   5.843  18.969  0.00  0.00    +0.000 A 
ATOM     21  C   UNL     1       3.943   4.560  18.793  0.00  0.00    +0.000 A 
ATOM     22  C   UNL     1       3.450   3.486  19.542  0.00  0.00    +0.000 A 
ATOM     23  C   UNL     1       2.444   3.711  20.489  0.00  0.00    +0.000 A 
ATOM     24  C   UNL     1       1.920   4.999  20.661  0.00  0.00    +0.000 A 
BRANCH  22  25
ATOM     25  C   UNL     1       4.076   2.156  19.325  0.00  0.00    +0.000 C 
ATOM     26  O   UNL     1       3.621   1.334  18.543  0.00  0.00    +0.000 OA
BRANCH  25  27
ATOM     27  O   UNL     1       5.151   1.913  20.100  0.00  0.00    +0.000 OA
ATOM     28  H   UNL     1       5.944   1.598  19.632  0.00  0.00    +0.000 HD
ENDBRANCH  25  27
ENDBRANCH  22  25
ENDBRANCH   6  19
TORSDOF 4
ENDMDL
MODEL 7
REMARK VINA RESULT:      -7.5      1.398      2.282
REMARK  Name = 
REMARK  4 active torsions:
REMARK  status: ('A' for Active; 'I' for Inactive)
REMARK    1  A    between atoms: N_4  and  C_5
REMARK    2  A    between atoms: C_10  and  C_11
REMARK    3  A    between atoms: C_14  and  C_15
REMARK    4  A    between atoms: C_15  and  O_17
REMARK                            x       y       z     vdW  Elec       q    Type
REMARK                         _______ _______ _______ _____ _____    ______ ____
ROOT
ATOM      1  C   UNL     1       3.529   5.022  18.536  0.00  0.00    +0.000 A 
ATOM      2  C   UNL     1       3.128   4.289  19.664  0.00  0.00    +0.000 A 
ATOM      3  C   UNL     1       2.358   4.847  20.690  0.00  0.00    +0.000 A 
ATOM      4  C   UNL     1       2.013   6.186  20.541  0.00  0.00    +0.000 A 
ATOM      5  N   UNL     1       1.269   7.031  21.315  0.00  0.00    +0.000 N 
ATOM      6  C   UNL     1       1.252   8.275  20.730  0.00  0.00    +0.000 A 
ATOM      7  N   UNL     1       1.907   8.245  19.583  0.00  0.00    +0.000 NA
ATOM      8  C   UNL     1       2.403   6.966  19.463  0.00  0.00    +0.000 A 
ATOM      9  C   UNL     1       3.181   6.385  18.448  0.00  0.00    +0.000 A 
ATOM     10  H   UNL     1       0.799   6.782  22.172  0.00  0.00    +0.000 HD
ENDROOT
BRANCH   1  14
ATOM     11  N   UNL     1       5.815   3.612  16.073  0.00  0.00    +0.000 NA
ATOM     12  C   UNL     1       5.454   4.073  17.223  0.00  0.00    +0.000 C 
ATOM     13  N   UNL     1       6.325   4.150  18.251  0.00  0.00    +0.000 N 
ATOM     14  N   UNL     1       4.163   4.423  17.433  0.00  0.00    +0.000 N 
ATOM     15  H   UNL     1       6.813   3.396  16.094  0.00  0.00    +0.000 HD
ATOM     16  H   UNL     1       7.175   3.613  18.149  0.00  0.00    +0.000 HD
ATOM     17  H   UNL     1       5.894   3.988  19.154  0.00  0.00    +0.000 HD
ATOM     18  H   UNL     1       3.558   4.202  16.650  0.00  0.00    +0.000 HD
ENDBRANCH   1  14
BRANCH   6  19
ATOM     19  C   UNL     1       0.572   9.425  21.328  0.00  0.00    +0.000 A 
ATOM     20  C   UNL     1      -0.174   9.289  22.507  0.00  0.00    +0.000 A 
ATOM     21  C   UNL     1      -0.822  10.390  23.072  0.00  0.00    +0.000 A 
ATOM     22  C   UNL     1      -0.737  11.647  22.465  0.00  0.00    +0.000 A 
ATOM     23  C   UNL     1       0.024  11.800  21.300  0.00  0.00    +0.000 A 
ATOM     24  C   UNL     1       0.671  10.692  20.737  0.00  0.00    +0.000 A 
BRANCH  22  25
ATOM     25  C   UNL     1      -1.425  12.780  23.138  0.00  0.00    +0.000 C 
ATOM     26  O   UNL     1      -0.817  13.682  23.696  0.00  0.00    +0.000 OA
BRANCH  25  27
ATOM     27  O   UNL     1      -2.770  12.702  23.126  0.00  0.00    +0.000 OA
ATOM     28  H   UNL     1      -3.203  13.027  22.317  0.00  0.00    +0.000 HD
ENDBRANCH  25  27
ENDBRANCH  22  25
ENDBRANCH   6  19
TORSDOF 4
ENDMDL
MODEL 8
REMARK VINA RESULT:      -7.5      8.315     10.880
REMARK  Name = 
REMARK  4 active torsions:
REMARK  status: ('A' for Active; 'I' for Inactive)
REMARK    1  A    between atoms: N_4  and  C_5
REMARK    2  A    between atoms: C_10  and  C_11
REMARK    3  A    between atoms: C_14  and  C_15
REMARK    4  A    between atoms: C_15  and  O_17
REMARK                            x       y       z     vdW  Elec       q    Type
REMARK                         _______ _______ _______ _____ _____    ______ ____
ROOT
ATOM      1  C   UNL     1      10.255  12.981  18.447  0.00  0.00    +0.000 A 
ATOM      2  C   UNL     1      10.704  12.442  19.663  0.00  0.00    +0.000 A 
ATOM      3  C   UNL     1      10.368  11.150  20.084  0.00  0.00    +0.000 A 
ATOM      4  C   UNL     1       9.550  10.418  19.229  0.00  0.00    +0.000 A 
ATOM      5  N   UNL     1       9.053   9.148  19.304  0.00  0.00    +0.000 N 
ATOM      6  C   UNL     1       8.264   8.912  18.203  0.00  0.00    +0.000 A 
ATOM      7  N   UNL     1       8.283   9.959  17.398  0.00  0.00    +0.000 NA
ATOM      8  C   UNL     1       9.056  10.909  18.030  0.00  0.00    +0.000 A 
ATOM      9  C   UNL     1       9.401  12.211  17.633  0.00  0.00    +0.000 A 
ATOM     10  H   UNL     1       9.240   8.486  20.041  0.00  0.00    +0.000 HD
ENDROOT
BRANCH   1  14
ATOM     11  N   UNL     1      11.956  15.733  16.769  0.00  0.00    +0.000 NA
ATOM     12  C   UNL     1      11.625  14.504  16.987  0.00  0.00    +0.000 C 
ATOM     13  N   UNL     1      12.112  13.503  16.224  0.00  0.00    +0.000 N 
ATOM     14  N   UNL     1      10.720  14.211  17.950  0.00  0.00    +0.000 N 
ATOM     15  H   UNL     1      12.639  15.769  16.011  0.00  0.00    +0.000 HD
ATOM     16  H   UNL     1      12.534  13.781  15.349  0.00  0.00    +0.000 HD
ATOM     17  H   UNL     1      11.452  12.746  16.089  0.00  0.00    +0.000 HD
ATOM     18  H   UNL     1      10.309  15.035  18.375  0.00  0.00    +0.000 HD
ENDBRANCH   1  14
BRANCH   6  19
ATOM     19  C   UNL     1       7.547   7.653  17.995  0.00  0.00    +0.000 A 
ATOM     20  C   UNL     1       6.463   7.578  17.109  0.00  0.00    +0.000 A 
ATOM     21  C   UNL     1       5.782   6.373  16.916  0.00  0.00    +0.000 A 
ATOM     22  C   UNL     1       6.172   5.222  17.609  0.00  0.00    +0.000 A 
ATOM     23  C   UNL     1       7.268   5.280  18.479  0.00  0.00    +0.000 A 
ATOM     24  C   UNL     1       7.947   6.491  18.669  0.00  0.00    +0.000 A 
BRANCH  22  25
ATOM     25  C   UNL     1       5.423   3.969  17.332  0.00  0.00    +0.000 C 
ATOM     26  O   UNL     1       4.526   3.564  18.057  0.00  0.00    +0.000 OA
BRANCH  25  27
ATOM     27  O   UNL     1       5.850   3.292  16.247  0.00  0.00    +0.000 OA
ATOM     28  H   UNL     1       5.157   2.842  15.734  0.00  0.00    +0.000 HD
ENDBRANCH  25  27
ENDBRANCH  22  25
ENDBRANCH   6  19
TORSDOF 4
ENDMDL
MODEL 9
REMARK VINA RESULT:      -7.5      8.535     11.137
REMARK  Name = 
REMARK  4 active torsions:
REMARK  status: ('A' for Active; 'I' for Inactive)
REMARK    1  A    between atoms: N_4  and  C_5
REMARK    2  A    between atoms: C_10  and  C_11
REMARK    3  A    between atoms: C_14  and  C_15
REMARK    4  A    between atoms: C_15  and  O_17
REMARK                            x       y       z     vdW  Elec       q    Type
REMARK                         _______ _______ _______ _____ _____    ______ ____
ROOT
ATOM      1  C   UNL     1      10.259  13.431  18.587  0.00  0.00    +0.000 A 
ATOM      2  C   UNL     1      10.815  12.865  19.745  0.00  0.00    +0.000 A 
ATOM      3  C   UNL     1      10.571  11.542  20.129  0.00  0.00    +0.000 A 
ATOM      4  C   UNL     1       9.731  10.806  19.299  0.00  0.00    +0.000 A 
ATOM      5  N   UNL     1       9.301   9.510  19.350  0.00  0.00    +0.000 N 
ATOM      6  C   UNL     1       8.450   9.281  18.294  0.00  0.00    +0.000 A 
ATOM      7  N   UNL     1       8.365  10.360  17.538  0.00  0.00    +0.000 NA
ATOM      8  C   UNL     1       9.133  11.320  18.159  0.00  0.00    +0.000 A 
ATOM      9  C   UNL     1       9.388  12.653  17.798  0.00  0.00    +0.000 A 
ATOM     10  H   UNL     1       9.570   8.828  20.042  0.00  0.00    +0.000 HD
ENDROOT
BRANCH   1  14
ATOM     11  N   UNL     1      11.817  16.351  17.062  0.00  0.00    +0.000 NA
ATOM     12  C   UNL     1      11.616  15.094  17.275  0.00  0.00    +0.000 C 
ATOM     13  N   UNL     1      12.326  14.152  16.621  0.00  0.00    +0.000 N 
ATOM     14  N   UNL     1      10.630  14.703  18.116  0.00  0.00    +0.000 N 
ATOM     15  H   UNL     1      12.589  16.463  16.403  0.00  0.00    +0.000 HD
ATOM     16  H   UNL     1      12.828  14.467  15.802  0.00  0.00    +0.000 HD
ATOM     17  H   UNL     1      11.792  13.313  16.424  0.00  0.00    +0.000 HD
ATOM     18  H   UNL     1      10.064  15.474  18.453  0.00  0.00    +0.000 HD
ENDBRANCH   1  14
BRANCH   6  19
ATOM     19  C   UNL     1       7.781   7.997  18.078  0.00  0.00    +0.000 A 
ATOM     20  C   UNL     1       8.203   6.841  18.751  0.00  0.00    +0.000 A 
ATOM     21  C   UNL     1       7.560   5.619  18.539  0.00  0.00    +0.000 A 
ATOM     22  C   UNL     1       6.485   5.531  17.649  0.00  0.00    +0.000 A 
ATOM     23  C   UNL     1       6.040   6.683  16.989  0.00  0.00    +0.000 A 
ATOM     24  C   UNL     1       6.689   7.906  17.204  0.00  0.00    +0.000 A 
BRANCH  22  25
ATOM     25  C   UNL     1       5.829   4.206  17.496  0.00  0.00    +0.000 C 
ATOM     26  O   UNL     1       5.454   3.777  16.414  0.00  0.00    +0.000 OA
BRANCH  25  27
ATOM     27  O   UNL     1       5.636   3.543  18.654  0.00  0.00    +0.000 OA
ATOM     28  H   UNL     1       6.080   3.920  19.432  0.00  0.00    +0.000 HD
ENDBRANCH  25  27
ENDBRANCH  22  25
ENDBRANCH   6  19
TORSDOF 4
ENDMDL
