MODEL 1
REMARK VINA RESULT:      -8.9      0.000      0.000
REMARK  Name = 
REMARK  4 active torsions:
REMARK  status: ('A' for Active; 'I' for Inactive)
REMARK    1  A    between atoms: C_5  and  C_6
REMARK    2  A    between atoms: C_9  and  C_10
REMARK    3  A    between atoms: C_15  and  O_16
REMARK    4  A    between atoms: O_16  and  C_17
REMARK                            x       y       z     vdW  Elec       q    Type
REMARK                         _______ _______ _______ _____ _____    ______ ____
ROOT
ATOM      1  C   UNL     1       1.392   9.558  19.113  0.00  0.00    +0.000 A 
ATOM      2  C   UNL     1       1.919   8.737  18.100  0.00  0.00    +0.000 A 
ATOM      3  C   UNL     1       2.227   7.380  18.331  0.00  0.00    +0.000 A 
ATOM      4  C   UNL     1       2.014   6.776  19.579  0.00  0.00    +0.000 A 
ATOM      5  C   UNL     1       1.549   7.621  20.601  0.00  0.00    +0.000 A 
ATOM      6  C   UNL     1       1.261   8.969  20.374  0.00  0.00    +0.000 A 
ATOM      7  F   UNL     1       0.804   9.681  21.416  0.00  0.00    +0.000 F 
ENDROOT
BRANCH   1  12
ATOM      8  N   UNL     1      -0.510  14.777  18.487  0.00  0.00    +0.000 N 
ATOM      9  C   UNL     1      -0.028  13.490  18.579  0.00  0.00    +0.000 A 
ATOM     10  N   UNL     1      -0.909  12.493  18.514  0.00  0.00    +0.000 NA
ATOM     11  C   UNL     1      -0.412  11.243  18.664  0.00  0.00    +0.000 A 
ATOM     12  C   UNL     1       0.922  10.932  18.847  0.00  0.00    +0.000 A 
ATOM     13  C   UNL     1       1.733  12.053  18.835  0.00  0.00    +0.000 A 
ATOM     14  N   UNL     1       1.290  13.328  18.700  0.00  0.00    +0.000 NA
ATOM     15  H   UNL     1      -1.392  14.778  17.996  0.00  0.00    +0.000 HD
ATOM     16  H   UNL     1       0.217  15.394  18.156  0.00  0.00    +0.000 HD
ENDBRANCH   1  12
BRANCH   4  17
ATOM     17  C   UNL     1       2.278   5.331  19.850  0.00  0.00    +0.000 A 
ATOM     18  C   UNL     1       1.181   4.477  20.118  0.00  0.00    +0.000 A 
ATOM     19  C   UNL     1       1.330   3.106  20.341  0.00  0.00    +0.000 A 
ATOM     20  C   UNL     1       2.596   2.549  20.372  0.00  0.00    +0.000 A 
ATOM     21  C   UNL     1       3.705   3.362  20.156  0.00  0.00    +0.000 A 
ATOM     22  C   UNL     1       3.559   4.725  19.832  0.00  0.00    +0.000 A 
BRANCH  22  23
ATOM     23  O   UNL     1       4.671   5.499  19.530  0.00  0.00    +0.000 OA
BRANCH  23  24
ATOM     24  C   UNL     1       5.457   5.109  18.450  0.00  0.00    +0.000 A 
ATOM     25  N   UNL     1       6.758   4.819  18.655  0.00  0.00    +0.000 NA
ATOM     26  C   UNL     1       7.489   4.559  17.559  0.00  0.00    +0.000 A 
ATOM     27  C   UNL     1       6.969   4.543  16.287  0.00  0.00    +0.000 A 
ATOM     28  C   UNL     1       5.623   4.809  16.193  0.00  0.00    +0.000 A 
ATOM     29  N   UNL     1       4.843   5.094  17.255  0.00  0.00    +0.000 NA
ENDBRANCH  23  24
ENDBRANCH  22  23
ENDBRANCH   4  17
TORSDOF 4
ENDMDL
MODEL 2
REMARK VINA RESULT:      -8.7      2.681      8.619
REMARK  Name = 
REMARK  4 active torsions:
REMARK  status: ('A' for Active; 'I' for Inactive)
REMARK    1  A    between atoms: C_5  and  C_6
REMARK    2  A    between atoms: C_9  and  C_10
REMARK    3  A    between atoms: C_15  and  O_16
REMARK    4  A    between atoms: O_16  and  C_17
REMARK                            x       y       z     vdW  Elec       q    Type
REMARK                         _______ _______ _______ _____ _____    ______ ____
ROOT
ATOM      1  C   UNL     1       2.411   7.097  19.162  0.00  0.00    +0.000 A 
ATOM      2  C   UNL     1       2.501   7.807  17.952  0.00  0.00    +0.000 A 
ATOM      3  C   UNL     1       1.995   9.117  17.822  0.00  0.00    +0.000 A 
ATOM      4  C   UNL     1       1.385   9.784  18.895  0.00  0.00    +0.000 A 
ATOM      5  C   UNL     1       1.242   9.042  20.079  0.00  0.00    +0.000 A 
ATOM      6  C   UNL     1       1.729   7.737  20.200  0.00  0.00    +0.000 A 
ATOM      7  F   UNL     1       1.556   7.126  21.383  0.00  0.00    +0.000 F 
ENDROOT
BRANCH   1  12
ATOM      8  N   UNL     1       4.786   2.051  19.539  0.00  0.00    +0.000 N 
ATOM      9  C   UNL     1       4.217   3.304  19.507  0.00  0.00    +0.000 A 
ATOM     10  N   UNL     1       2.907   3.395  19.729  0.00  0.00    +0.000 NA
ATOM     11  C   UNL     1       2.367   4.633  19.635  0.00  0.00    +0.000 A 
ATOM     12  C   UNL     1       3.070   5.791  19.358  0.00  0.00    +0.000 A 
ATOM     13  C   UNL     1       4.426   5.562  19.208  0.00  0.00    +0.000 A 
ATOM     14  N   UNL     1       5.020   4.345  19.281  0.00  0.00    +0.000 NA
ATOM     15  H   UNL     1       4.223   1.433  20.105  0.00  0.00    +0.000 HD
ATOM     16  H   UNL     1       5.770   2.124  19.753  0.00  0.00    +0.000 HD
ENDBRANCH   1  12
BRANCH   4  17
ATOM     17  C   UNL     1       0.883  11.189  18.813  0.00  0.00    +0.000 A 
ATOM     18  C   UNL     1       1.824  12.245  18.753  0.00  0.00    +0.000 A 
ATOM     19  C   UNL     1       1.446  13.585  18.634  0.00  0.00    +0.000 A 
ATOM     20  C   UNL     1       0.104  13.923  18.640  0.00  0.00    +0.000 A 
ATOM     21  C   UNL     1      -0.853  12.917  18.741  0.00  0.00    +0.000 A 
ATOM     22  C   UNL     1      -0.484  11.557  18.762  0.00  0.00    +0.000 A 
BRANCH  22  23
ATOM     23  O   UNL     1      -1.455  10.565  18.771  0.00  0.00    +0.000 OA
BRANCH  23  24
ATOM     24  C   UNL     1      -2.331  10.507  17.692  0.00  0.00    +0.000 A 
ATOM     25  N   UNL     1      -1.939   9.892  16.558  0.00  0.00    +0.000 NA
ATOM     26  C   UNL     1      -2.784   9.969  15.517  0.00  0.00    +0.000 A 
ATOM     27  C   UNL     1      -4.005  10.595  15.576  0.00  0.00    +0.000 A 
ATOM     28  C   UNL     1      -4.328  11.151  16.792  0.00  0.00    +0.000 A 
ATOM     29  N   UNL     1      -3.514  11.122  17.865  0.00  0.00    +0.000 NA
ENDBRANCH  23  24
ENDBRANCH  22  23
ENDBRANCH   4  17
TORSDOF 4
ENDMDL
MODEL 3
REMARK VINA RESULT:      -8.7      0.418      1.326
REMARK  Name = 
REMARK  4 active torsions:
REMARK  status: ('A' for Active; 'I' for Inactive)
REMARK    1  A    between atoms: C_5  and  C_6
REMARK    2  A    between atoms: C_9  and  C_10
REMARK    3  A    between atoms: C_15  and  O_16
REMARK    4  A    between atoms: O_16  and  C_17
REMARK                            x       y       z     vdW  Elec       q    Type
REMARK                         _______ _______ _______ _____ _____    ______ ____
ROOT
ATOM      1  C   UNL     1       1.362   9.333  19.221  0.00  0.00    +0.000 A 
ATOM      2  C   UNL     1       1.837   8.617  18.109  0.00  0.00    +0.000 A 
ATOM      3  C   UNL     1       2.191   7.254  18.200  0.00  0.00    +0.000 A 
ATOM      4  C   UNL     1       2.078   6.541  19.402  0.00  0.00    +0.000 A 
ATOM      5  C   UNL     1       1.665   7.282  20.522  0.00  0.00    +0.000 A 
ATOM      6  C   UNL     1       1.331   8.636  20.433  0.00  0.00    +0.000 A 
ATOM      7  F   UNL     1       0.930   9.244  21.560  0.00  0.00    +0.000 F 
ENDROOT
BRANCH   1  12
ATOM      8  N   UNL     1      -0.563  14.515  18.393  0.00  0.00    +0.000 N 
ATOM      9  C   UNL     1      -0.091  13.250  18.660  0.00  0.00    +0.000 A 
ATOM     10  N   UNL     1       1.228  13.063  18.638  0.00  0.00    +0.000 NA
ATOM     11  C   UNL     1       1.658  11.797  18.848  0.00  0.00    +0.000 A 
ATOM     12  C   UNL     1       0.844  10.710  19.107  0.00  0.00    +0.000 A 
ATOM     13  C   UNL     1      -0.496  11.055  19.160  0.00  0.00    +0.000 A 
ATOM     14  N   UNL     1      -0.984  12.302  18.948  0.00  0.00    +0.000 NA
ATOM     15  H   UNL     1       0.150  15.199  18.606  0.00  0.00    +0.000 HD
ATOM     16  H   UNL     1      -1.474  14.638  18.809  0.00  0.00    +0.000 HD
ENDBRANCH   1  12
BRANCH   4  17
ATOM     17  C   UNL     1       2.393   5.086  19.529  0.00  0.00    +0.000 A 
ATOM     18  C   UNL     1       1.324   4.161  19.591  0.00  0.00    +0.000 A 
ATOM     19  C   UNL     1       1.524   2.780  19.668  0.00  0.00    +0.000 A 
ATOM     20  C   UNL     1       2.811   2.278  19.755  0.00  0.00    +0.000 A 
ATOM     21  C   UNL     1       3.890   3.156  19.741  0.00  0.00    +0.000 A 
ATOM     22  C   UNL     1       3.701   4.542  19.564  0.00  0.00    +0.000 A 
BRANCH  22  23
ATOM     23  O   UNL     1       4.793   5.392  19.461  0.00  0.00    +0.000 OA
BRANCH  23  24
ATOM     24  C   UNL     1       5.601   5.275  18.335  0.00  0.00    +0.000 A 
ATOM     25  N   UNL     1       5.106   5.624  17.131  0.00  0.00    +0.000 NA
ATOM     26  C   UNL     1       5.894   5.381  16.070  0.00  0.00    +0.000 A 
ATOM     27  C   UNL     1       7.154   4.845  16.170  0.00  0.00    +0.000 A 
ATOM     28  C   UNL     1       7.582   4.566  17.446  0.00  0.00    +0.000 A 
ATOM     29  N   UNL     1       6.829   4.770  18.546  0.00  0.00    +0.000 NA
ENDBRANCH  23  24
ENDBRANCH  22  23
ENDBRANCH   4  17
TORSDOF 4
ENDMDL
MODEL 4
REMARK VINA RESULT:      -8.6      2.711      8.676
REMARK  Name = 
REMARK  4 active torsions:
REMARK  status: ('A' for Active; 'I' for Inactive)
REMARK    1  A    between atoms: C_5  and  C_6
REMARK    2  A    between atoms: C_9  and  C_10
REMARK    3  A    between atoms: C_15  and  O_16
REMARK    4  A    between atoms: O_16  and  C_17
REMARK                            x       y       z     vdW  Elec       q    Type
REMARK                         _______ _______ _______ _____ _____    ______ ____
ROOT
ATOM      1  C   UNL     1       2.357   7.208  18.940  0.00  0.00    +0.000 A 
ATOM      2  C   UNL     1       2.382   8.002  17.780  0.00  0.00    +0.000 A 
ATOM      3  C   UNL     1       1.877   9.319  17.773  0.00  0.00    +0.000 A 
ATOM      4  C   UNL     1       1.336   9.910  18.924  0.00  0.00    +0.000 A 
ATOM      5  C   UNL     1       1.257   9.086  20.060  0.00  0.00    +0.000 A 
ATOM      6  C   UNL     1       1.741   7.775  20.060  0.00  0.00    +0.000 A 
ATOM      7  F   UNL     1       1.634   7.082  21.204  0.00  0.00    +0.000 F 
ENDROOT
BRANCH   1  12
ATOM      8  N   UNL     1       4.901   2.271  19.579  0.00  0.00    +0.000 N 
ATOM      9  C   UNL     1       4.274   3.477  19.358  0.00  0.00    +0.000 A 
ATOM     10  N   UNL     1       5.036   4.567  19.289  0.00  0.00    +0.000 NA
ATOM     11  C   UNL     1       4.387   5.744  19.129  0.00  0.00    +0.000 A 
ATOM     12  C   UNL     1       3.018   5.889  19.005  0.00  0.00    +0.000 A 
ATOM     13  C   UNL     1       2.353   4.676  19.034  0.00  0.00    +0.000 A 
ATOM     14  N   UNL     1       2.950   3.470  19.203  0.00  0.00    +0.000 NA
ATOM     15  H   UNL     1       5.860   2.322  19.268  0.00  0.00    +0.000 HD
ATOM     16  H   UNL     1       4.329   1.517  19.229  0.00  0.00    +0.000 HD
ENDBRANCH   1  12
BRANCH   4  17
ATOM     17  C   UNL     1       0.839  11.318  18.972  0.00  0.00    +0.000 A 
ATOM     18  C   UNL     1       1.783  12.371  19.025  0.00  0.00    +0.000 A 
ATOM     19  C   UNL     1       1.411  13.717  19.031  0.00  0.00    +0.000 A 
ATOM     20  C   UNL     1       0.070  14.059  19.052  0.00  0.00    +0.000 A 
ATOM     21  C   UNL     1      -0.891  13.053  19.045  0.00  0.00    +0.000 A 
ATOM     22  C   UNL     1      -0.526  11.695  18.939  0.00  0.00    +0.000 A 
BRANCH  22  23
ATOM     23  O   UNL     1      -1.500  10.711  18.841  0.00  0.00    +0.000 OA
BRANCH  23  24
ATOM     24  C   UNL     1      -2.327  10.728  17.722  0.00  0.00    +0.000 A 
ATOM     25  N   UNL     1      -3.509  11.372  17.787  0.00  0.00    +0.000 NA
ATOM     26  C   UNL     1      -4.309  11.256  16.714  0.00  0.00    +0.000 A 
ATOM     27  C   UNL     1      -3.962  10.561  15.581  0.00  0.00    +0.000 A 
ATOM     28  C   UNL     1      -2.716   9.980  15.600  0.00  0.00    +0.000 A 
ATOM     29  N   UNL     1      -1.878  10.046  16.653  0.00  0.00    +0.000 NA
ENDBRANCH  23  24
ENDBRANCH  22  23
ENDBRANCH   4  17
TORSDOF 4
ENDMDL
MODEL 5
REMARK VINA RESULT:      -8.5      2.436      4.118
REMARK  Name = 
REMARK  4 active torsions:
REMARK  status: ('A' for Active; 'I' for Inactive)
REMARK    1  A    between atoms: C_5  and  C_6
REMARK    2  A    between atoms: C_9  and  C_10
REMARK    3  A    between atoms: C_15  and  O_16
REMARK    4  A    between atoms: O_16  and  C_17
REMARK                            x       y       z     vdW  Elec       q    Type
REMARK                         _______ _______ _______ _____ _____    ______ ____
ROOT
ATOM      1  C   UNL     1       1.165   9.109  19.961  0.00  0.00    +0.000 A 
ATOM      2  C   UNL     1       1.640   7.934  20.570  0.00  0.00    +0.000 A 
ATOM      3  C   UNL     1       2.391   6.979  19.853  0.00  0.00    +0.000 A 
ATOM      4  C   UNL     1       2.711   7.155  18.499  0.00  0.00    +0.000 A 
ATOM      5  C   UNL     1       2.176   8.300  17.884  0.00  0.00    +0.000 A 
ATOM      6  C   UNL     1       1.418   9.237  18.592  0.00  0.00    +0.000 A 
ATOM      7  F   UNL     1       0.972  10.304  17.912  0.00  0.00    +0.000 F 
ENDROOT
BRANCH   1  12
ATOM      8  N   UNL     1      -1.092  13.068  23.198  0.00  0.00    +0.000 N 
ATOM      9  C   UNL     1      -0.575  12.111  22.354  0.00  0.00    +0.000 A 
ATOM     10  N   UNL     1      -1.086  10.884  22.422  0.00  0.00    +0.000 NA
ATOM     11  C   UNL     1      -0.519   9.952  21.620  0.00  0.00    +0.000 A 
ATOM     12  C   UNL     1       0.514  10.186  20.732  0.00  0.00    +0.000 A 
ATOM     13  C   UNL     1       0.909  11.513  20.719  0.00  0.00    +0.000 A 
ATOM     14  N   UNL     1       0.385  12.485  21.506  0.00  0.00    +0.000 NA
ATOM     15  H   UNL     1      -2.033  12.817  23.465  0.00  0.00    +0.000 HD
ATOM     16  H   UNL     1      -0.940  13.988  22.812  0.00  0.00    +0.000 HD
ENDBRANCH   1  12
BRANCH   4  17
ATOM     17  C   UNL     1       3.546   6.194  17.718  0.00  0.00    +0.000 A 
ATOM     18  C   UNL     1       4.782   6.638  17.192  0.00  0.00    +0.000 A 
ATOM     19  C   UNL     1       5.647   5.798  16.485  0.00  0.00    +0.000 A 
ATOM     20  C   UNL     1       5.270   4.493  16.219  0.00  0.00    +0.000 A 
ATOM     21  C   UNL     1       4.042   4.029  16.682  0.00  0.00    +0.000 A 
ATOM     22  C   UNL     1       3.209   4.839  17.480  0.00  0.00    +0.000 A 
BRANCH  22  23
ATOM     23  O   UNL     1       2.031   4.329  18.008  0.00  0.00    +0.000 OA
BRANCH  23  24
ATOM     24  C   UNL     1       2.103   3.661  19.227  0.00  0.00    +0.000 A 
ATOM     25  N   UNL     1       1.009   3.607  20.013  0.00  0.00    +0.000 NA
ATOM     26  C   UNL     1       1.174   3.048  21.223  0.00  0.00    +0.000 A 
ATOM     27  C   UNL     1       2.364   2.517  21.657  0.00  0.00    +0.000 A 
ATOM     28  C   UNL     1       3.406   2.584  20.762  0.00  0.00    +0.000 A 
ATOM     29  N   UNL     1       3.305   3.148  19.542  0.00  0.00    +0.000 NA
ENDBRANCH  23  24
ENDBRANCH  22  23
ENDBRANCH   4  17
TORSDOF 4
ENDMDL
MODEL 6
REMARK VINA RESULT:      -8.4      1.603      1.839
REMARK  Name = 
REMARK  4 active torsions:
REMARK  status: ('A' for Active; 'I' for Inactive)
REMARK    1  A    between atoms: C_5  and  C_6
REMARK    2  A    between atoms: C_9  and  C_10
REMARK    3  A    between atoms: C_15  and  O_16
REMARK    4  A    between atoms: O_16  and  C_17
REMARK                            x       y       z     vdW  Elec       q    Type
REMARK                         _______ _______ _______ _____ _____    ______ ____
ROOT
ATOM      1  C   UNL     1       1.314   8.893  19.757  0.00  0.00    +0.000 A 
ATOM      2  C   UNL     1       1.829   8.546  18.496  0.00  0.00    +0.000 A 
ATOM      3  C   UNL     1       2.264   7.236  18.207  0.00  0.00    +0.000 A 
ATOM      4  C   UNL     1       2.194   6.208  19.159  0.00  0.00    +0.000 A 
ATOM      5  C   UNL     1       1.738   6.580  20.435  0.00  0.00    +0.000 A 
ATOM      6  C   UNL     1       1.325   7.883  20.724  0.00  0.00    +0.000 A 
ATOM      7  F   UNL     1       0.889   8.126  21.969  0.00  0.00    +0.000 F 
ENDROOT
BRANCH   1  12
ATOM      8  N   UNL     1      -0.634  14.064  20.604  0.00  0.00    +0.000 N 
ATOM      9  C   UNL     1      -0.204  12.768  20.428  0.00  0.00    +0.000 A 
ATOM     10  N   UNL     1       0.701  12.294  21.283  0.00  0.00    +0.000 NA
ATOM     11  C   UNL     1       1.146  11.037  21.050  0.00  0.00    +0.000 A 
ATOM     12  C   UNL     1       0.715  10.215  20.026  0.00  0.00    +0.000 A 
ATOM     13  C   UNL     1      -0.266  10.808  19.250  0.00  0.00    +0.000 A 
ATOM     14  N   UNL     1      -0.742  12.065  19.430  0.00  0.00    +0.000 NA
ATOM     15  H   UNL     1      -0.508  14.339  21.567  0.00  0.00    +0.000 HD
ATOM     16  H   UNL     1      -1.549  14.182  20.194  0.00  0.00    +0.000 HD
ENDBRANCH   1  12
BRANCH   4  17
ATOM     17  C   UNL     1       2.594   4.796  18.877  0.00  0.00    +0.000 A 
ATOM     18  C   UNL     1       1.705   3.969  18.151  0.00  0.00    +0.000 A 
ATOM     19  C   UNL     1       2.014   2.650  17.806  0.00  0.00    +0.000 A 
ATOM     20  C   UNL     1       3.202   2.088  18.238  0.00  0.00    +0.000 A 
ATOM     21  C   UNL     1       4.086   2.855  18.993  0.00  0.00    +0.000 A 
ATOM     22  C   UNL     1       3.828   4.214  19.260  0.00  0.00    +0.000 A 
BRANCH  22  23
ATOM     23  O   UNL     1       4.763   4.987  19.935  0.00  0.00    +0.000 OA
BRANCH  23  24
ATOM     24  C   UNL     1       5.823   5.508  19.201  0.00  0.00    +0.000 A 
ATOM     25  N   UNL     1       7.061   5.496  19.735  0.00  0.00    +0.000 NA
ATOM     26  C   UNL     1       8.020   6.114  19.026  0.00  0.00    +0.000 A 
ATOM     27  C   UNL     1       7.800   6.704  17.805  0.00  0.00    +0.000 A 
ATOM     28  C   UNL     1       6.512   6.622  17.330  0.00  0.00    +0.000 A 
ATOM     29  N   UNL     1       5.506   6.031  18.004  0.00  0.00    +0.000 NA
ENDBRANCH  23  24
ENDBRANCH  22  23
ENDBRANCH   4  17
TORSDOF 4
ENDMDL
MODEL 7
REMARK VINA RESULT:      -8.4      1.050      1.192
REMARK  Name = 
REMARK  4 active torsions:
REMARK  status: ('A' for Active; 'I' for Inactive)
REMARK    1  A    between atoms: C_5  and  C_6
REMARK    2  A    between atoms: C_9  and  C_10
REMARK    3  A    between atoms: C_15  and  O_16
REMARK    4  A    between atoms: O_16  and  C_17
REMARK                            x       y       z     vdW  Elec       q    Type
REMARK                         _______ _______ _______ _____ _____    ______ ____
ROOT
ATOM      1  C   UNL     1       1.493   9.271  19.023  0.00  0.00    +0.000 A 
ATOM      2  C   UNL     1       2.041   8.456  18.016  0.00  0.00    +0.000 A 
ATOM      3  C   UNL     1       2.454   7.133  18.276  0.00  0.00    +0.000 A 
ATOM      4  C   UNL     1       2.331   6.557  19.549  0.00  0.00    +0.000 A 
ATOM      5  C   UNL     1       1.844   7.400  20.563  0.00  0.00    +0.000 A 
ATOM      6  C   UNL     1       1.451   8.717  20.306  0.00  0.00    +0.000 A 
ATOM      7  F   UNL     1       0.982   9.429  21.342  0.00  0.00    +0.000 F 
ENDROOT
BRANCH   1  12
ATOM      8  N   UNL     1      -0.806  14.316  18.310  0.00  0.00    +0.000 N 
ATOM      9  C   UNL     1      -0.228  13.071  18.423  0.00  0.00    +0.000 A 
ATOM     10  N   UNL     1      -1.034  12.011  18.413  0.00  0.00    +0.000 NA
ATOM     11  C   UNL     1      -0.442  10.805  18.583  0.00  0.00    +0.000 A 
ATOM     12  C   UNL     1       0.916  10.598  18.733  0.00  0.00    +0.000 A 
ATOM     13  C   UNL     1       1.641  11.775  18.666  0.00  0.00    +0.000 A 
ATOM     14  N   UNL     1       1.102  13.009  18.508  0.00  0.00    +0.000 NA
ATOM     15  H   UNL     1      -1.699  14.238  17.847  0.00  0.00    +0.000 HD
ATOM     16  H   UNL     1      -0.136  14.974  17.940  0.00  0.00    +0.000 HD
ENDBRANCH   1  12
BRANCH   4  17
ATOM     17  C   UNL     1       2.709   5.144  19.854  0.00  0.00    +0.000 A 
ATOM     18  C   UNL     1       2.064   4.484  20.928  0.00  0.00    +0.000 A 
ATOM     19  C   UNL     1       2.323   3.152  21.259  0.00  0.00    +0.000 A 
ATOM     20  C   UNL     1       3.293   2.449  20.565  0.00  0.00    +0.000 A 
ATOM     21  C   UNL     1       3.982   3.075  19.530  0.00  0.00    +0.000 A 
ATOM     22  C   UNL     1       3.658   4.385  19.126  0.00  0.00    +0.000 A 
BRANCH  22  23
ATOM     23  O   UNL     1       4.292   4.960  18.032  0.00  0.00    +0.000 OA
BRANCH  23  24
ATOM     24  C   UNL     1       5.575   5.463  18.219  0.00  0.00    +0.000 A 
ATOM     25  N   UNL     1       6.299   5.042  19.276  0.00  0.00    +0.000 NA
ATOM     26  C   UNL     1       7.483   5.647  19.464  0.00  0.00    +0.000 A 
ATOM     27  C   UNL     1       7.981   6.616  18.627  0.00  0.00    +0.000 A 
ATOM     28  C   UNL     1       7.185   6.940  17.554  0.00  0.00    +0.000 A 
ATOM     29  N   UNL     1       5.980   6.381  17.324  0.00  0.00    +0.000 NA
ENDBRANCH  23  24
ENDBRANCH  22  23
ENDBRANCH   4  17
TORSDOF 4
ENDMDL
MODEL 8
REMARK VINA RESULT:      -8.4      2.326      4.348
REMARK  Name = 
REMARK  4 active torsions:
REMARK  status: ('A' for Active; 'I' for Inactive)
REMARK    1  A    between atoms: C_5  and  C_6
REMARK    2  A    between atoms: C_9  and  C_10
REMARK    3  A    between atoms: C_15  and  O_16
REMARK    4  A    between atoms: O_16  and  C_17
REMARK                            x       y       z     vdW  Elec       q    Type
REMARK                         _______ _______ _______ _____ _____    ______ ____
ROOT
ATOM      1  C   UNL     1       1.800   8.145  19.575  0.00  0.00    +0.000 A 
ATOM      2  C   UNL     1       2.254   6.921  20.098  0.00  0.00    +0.000 A 
ATOM      3  C   UNL     1       3.198   6.127  19.415  0.00  0.00    +0.000 A 
ATOM      4  C   UNL     1       3.742   6.522  18.184  0.00  0.00    +0.000 A 
ATOM      5  C   UNL     1       3.235   7.714  17.639  0.00  0.00    +0.000 A 
ATOM      6  C   UNL     1       2.286   8.490  18.311  0.00  0.00    +0.000 A 
ATOM      7  F   UNL     1       1.884   9.621  17.709  0.00  0.00    +0.000 F 
ENDROOT
BRANCH   1  12
ATOM      8  N   UNL     1      -1.183  11.866  22.492  0.00  0.00    +0.000 N 
ATOM      9  C   UNL     1      -0.496  10.908  21.781  0.00  0.00    +0.000 A 
ATOM     10  N   UNL     1       0.394  10.167  22.440  0.00  0.00    +0.000 NA
ATOM     11  C   UNL     1       1.094   9.273  21.703  0.00  0.00    +0.000 A 
ATOM     12  C   UNL     1       0.934   9.058  20.347  0.00  0.00    +0.000 A 
ATOM     13  C   UNL     1      -0.061   9.850  19.800  0.00  0.00    +0.000 A 
ATOM     14  N   UNL     1      -0.785  10.768  20.486  0.00  0.00    +0.000 NA
ATOM     15  H   UNL     1      -1.209  11.614  23.469  0.00  0.00    +0.000 HD
ATOM     16  H   UNL     1      -2.057  12.074  22.033  0.00  0.00    +0.000 HD
ENDBRANCH   1  12
BRANCH   4  17
ATOM     17  C   UNL     1       4.782   5.736  17.453  0.00  0.00    +0.000 A 
ATOM     18  C   UNL     1       6.139   6.115  17.585  0.00  0.00    +0.000 A 
ATOM     19  C   UNL     1       7.181   5.414  16.972  0.00  0.00    +0.000 A 
ATOM     20  C   UNL     1       6.894   4.342  16.145  0.00  0.00    +0.000 A 
ATOM     21  C   UNL     1       5.568   3.963  15.954  0.00  0.00    +0.000 A 
ATOM     22  C   UNL     1       4.519   4.602  16.646  0.00  0.00    +0.000 A 
BRANCH  22  23
ATOM     23  O   UNL     1       3.213   4.150  16.513  0.00  0.00    +0.000 OA
BRANCH  23  24
ATOM     24  C   UNL     1       2.682   3.391  17.551  0.00  0.00    +0.000 A 
ATOM     25  N   UNL     1       1.357   3.443  17.792  0.00  0.00    +0.000 NA
ATOM     26  C   UNL     1       0.923   2.777  18.875  0.00  0.00    +0.000 A 
ATOM     27  C   UNL     1       1.746   2.042  19.693  0.00  0.00    +0.000 A 
ATOM     28  C   UNL     1       3.073   2.017  19.332  0.00  0.00    +0.000 A 
ATOM     29  N   UNL     1       3.569   2.680  18.269  0.00  0.00    +0.000 NA
ENDBRANCH  23  24
ENDBRANCH  22  23
ENDBRANCH   4  17
TORSDOF 4
ENDMDL
MODEL 9
REMARK VINA RESULT:      -8.4      2.996      8.703
REMARK  Name = 
REMARK  4 active torsions:
REMARK  status: ('A' for Active; 'I' for Inactive)
REMARK    1  A    between atoms: C_5  and  C_6
REMARK    2  A    between atoms: C_9  and  C_10
REMARK    3  A    between atoms: C_15  and  O_16
REMARK    4  A    between atoms: O_16  and  C_17
REMARK                            x       y       z     vdW  Elec       q    Type
REMARK                         _______ _______ _______ _____ _____    ______ ____
ROOT
ATOM      1  C   UNL     1       2.422   7.154  18.988  0.00  0.00    +0.000 A 
ATOM      2  C   UNL     1       1.726   7.691  20.084  0.00  0.00    +0.000 A 
ATOM      3  C   UNL     1       1.244   9.017  20.080  0.00  0.00    +0.000 A 
ATOM      4  C   UNL     1       1.424   9.865  18.977  0.00  0.00    +0.000 A 
ATOM      5  C   UNL     1       2.178   9.340  17.913  0.00  0.00    +0.000 A 
ATOM      6  C   UNL     1       2.669   8.031  17.928  0.00  0.00    +0.000 A 
ATOM      7  F   UNL     1       3.360   7.625  16.852  0.00  0.00    +0.000 F 
ENDROOT
BRANCH   1  12
ATOM      8  N   UNL     1       3.986   1.825  18.349  0.00  0.00    +0.000 N 
ATOM      9  C   UNL     1       3.574   3.122  18.562  0.00  0.00    +0.000 A 
ATOM     10  N   UNL     1       2.433   3.509  17.994  0.00  0.00    +0.000 NA
ATOM     11  C   UNL     1       2.082   4.805  18.175  0.00  0.00    +0.000 A 
ATOM     12  C   UNL     1       2.796   5.728  18.915  0.00  0.00    +0.000 A 
ATOM     13  C   UNL     1       3.926   5.179  19.497  0.00  0.00    +0.000 A 
ATOM     14  N   UNL     1       4.330   3.894  19.343  0.00  0.00    +0.000 NA
ATOM     15  H   UNL     1       3.190   1.244  18.129  0.00  0.00    +0.000 HD
ATOM     16  H   UNL     1       4.595   1.531  19.098  0.00  0.00    +0.000 HD
ENDBRANCH   1  12
BRANCH   4  17
ATOM     17  C   UNL     1       0.885  11.256  18.911  0.00  0.00    +0.000 A 
ATOM     18  C   UNL     1       1.798  12.338  18.875  0.00  0.00    +0.000 A 
ATOM     19  C   UNL     1       1.385  13.669  18.772  0.00  0.00    +0.000 A 
ATOM     20  C   UNL     1       0.035  13.971  18.769  0.00  0.00    +0.000 A 
ATOM     21  C   UNL     1      -0.896  12.939  18.846  0.00  0.00    +0.000 A 
ATOM     22  C   UNL     1      -0.490  11.589  18.851  0.00  0.00    +0.000 A 
BRANCH  22  23
ATOM     23  O   UNL     1      -1.435  10.571  18.835  0.00  0.00    +0.000 OA
BRANCH  23  24
ATOM     24  C   UNL     1      -2.311  10.518  17.757  0.00  0.00    +0.000 A 
ATOM     25  N   UNL     1      -1.919   9.908  16.620  0.00  0.00    +0.000 NA
ATOM     26  C   UNL     1      -2.765   9.989  15.580  0.00  0.00    +0.000 A 
ATOM     27  C   UNL     1      -3.986  10.615  15.642  0.00  0.00    +0.000 A 
ATOM     28  C   UNL     1      -4.309  11.165  16.860  0.00  0.00    +0.000 A 
ATOM     29  N   UNL     1      -3.494  11.131  17.933  0.00  0.00    +0.000 NA
ENDBRANCH  23  24
ENDBRANCH  22  23
ENDBRANCH   4  17
TORSDOF 4
ENDMDL
