MODEL 1
REMARK VINA RESULT:      -8.1      0.000      0.000
REMARK  Name = 
REMARK  4 active torsions:
REMARK  status: ('A' for Active; 'I' for Inactive)
REMARK    1  A    between atoms: C_1  and  C_2
REMARK    2  A    between atoms: C_2  and  N_3
REMARK    3  A    between atoms: C_5  and  C_6
REMARK    4  A    between atoms: C_8  and  C_9
REMARK                            x       y       z     vdW  Elec       q    Type
REMARK                         _______ _______ _______ _____ _____    ______ ____
ROOT
ATOM      1  N   UNL     1       2.353   5.716  19.616  0.00  0.00    +0.000 N 
ATOM      2  C   UNL     1       3.535   6.179  19.099  0.00  0.00    +0.000 A 
ATOM      3  C   UNL     1       4.076   5.200  18.283  0.00  0.00    +0.000 A 
ATOM      4  C   UNL     1       3.163   4.094  18.316  0.00  0.00    +0.000 A 
ATOM      5  C   UNL     1       3.164   2.807  17.732  0.00  0.00    +0.000 A 
ATOM      6  C   UNL     1       2.101   1.932  17.963  0.00  0.00    +0.000 A 
ATOM      7  C   UNL     1       1.032   2.320  18.762  0.00  0.00    +0.000 A 
ATOM      8  C   UNL     1       1.004   3.582  19.361  0.00  0.00    +0.000 A 
ATOM      9  C   UNL     1       2.087   4.450  19.136  0.00  0.00    +0.000 A 
ENDROOT
BRANCH   3  10
ATOM     10  C   UNL     1       5.341   5.281  17.591  0.00  0.00    +0.000 C 
ATOM     11  N   UNL     1       5.551   6.098  16.606  0.00  0.00    +0.000 NA
ATOM     12  C   UNL     1       6.858   5.669  16.082  0.00  0.00    +0.000 C 
ATOM     13  C   UNL     1       7.448   4.816  17.197  0.00  0.00    +0.000 C 
ATOM     14  O   UNL     1       6.326   4.423  17.980  0.00  0.00    +0.000 OA
BRANCH  12  15
ATOM     15  C   UNL     1       6.681   4.939  14.761  0.00  0.00    +0.000 A 
ATOM     16  C   UNL     1       7.593   5.145  13.715  0.00  0.00    +0.000 A 
ATOM     17  C   UNL     1       7.409   4.527  12.476  0.00  0.00    +0.000 A 
ATOM     18  C   UNL     1       6.310   3.697  12.264  0.00  0.00    +0.000 A 
ATOM     19  C   UNL     1       5.395   3.480  13.291  0.00  0.00    +0.000 A 
ATOM     20  C   UNL     1       5.580   4.095  14.530  0.00  0.00    +0.000 A 
ENDBRANCH  12  15
ENDBRANCH   3  10
BRANCH   1  22
ATOM     21  C   UNL     1       1.714   7.943  20.469  0.00  0.00    +0.000 C 
ATOM     22  C   UNL     1       1.544   6.439  20.582  0.00  0.00    +0.000 C 
ENDBRANCH   1  22
TORSDOF 3
ENDMDL
MODEL 2
REMARK VINA RESULT:      -8.0      0.125      1.035
REMARK  Name = 
REMARK  4 active torsions:
REMARK  status: ('A' for Active; 'I' for Inactive)
REMARK    1  A    between atoms: C_1  and  C_2
REMARK    2  A    between atoms: C_2  and  N_3
REMARK    3  A    between atoms: C_5  and  C_6
REMARK    4  A    between atoms: C_8  and  C_9
REMARK                            x       y       z     vdW  Elec       q    Type
REMARK                         _______ _______ _______ _____ _____    ______ ____
ROOT
ATOM      1  N   UNL     1       2.503   5.679  19.759  0.00  0.00    +0.000 N 
ATOM      2  C   UNL     1       3.683   6.128  19.225  0.00  0.00    +0.000 A 
ATOM      3  C   UNL     1       4.165   5.171  18.348  0.00  0.00    +0.000 A 
ATOM      4  C   UNL     1       3.217   4.095  18.360  0.00  0.00    +0.000 A 
ATOM      5  C   UNL     1       3.156   2.838  17.718  0.00  0.00    +0.000 A 
ATOM      6  C   UNL     1       2.071   1.987  17.943  0.00  0.00    +0.000 A 
ATOM      7  C   UNL     1       1.042   2.371  18.794  0.00  0.00    +0.000 A 
ATOM      8  C   UNL     1       1.076   3.604  19.452  0.00  0.00    +0.000 A 
ATOM      9  C   UNL     1       2.180   4.447  19.230  0.00  0.00    +0.000 A 
ENDROOT
BRANCH   3  10
ATOM     10  C   UNL     1       5.409   5.244  17.618  0.00  0.00    +0.000 C 
ATOM     11  N   UNL     1       5.615   6.098  16.665  0.00  0.00    +0.000 NA
ATOM     12  C   UNL     1       6.890   5.653  16.079  0.00  0.00    +0.000 C 
ATOM     13  C   UNL     1       7.486   4.731  17.135  0.00  0.00    +0.000 C 
ATOM     14  O   UNL     1       6.377   4.338  17.936  0.00  0.00    +0.000 OA
BRANCH  12  15
ATOM     15  C   UNL     1       6.647   4.990  14.733  0.00  0.00    +0.000 A 
ATOM     16  C   UNL     1       5.499   4.210  14.529  0.00  0.00    +0.000 A 
ATOM     17  C   UNL     1       5.294   3.546  13.317  0.00  0.00    +0.000 A 
ATOM     18  C   UNL     1       6.235   3.649  12.294  0.00  0.00    +0.000 A 
ATOM     19  C   UNL     1       7.380   4.420  12.479  0.00  0.00    +0.000 A 
ATOM     20  C   UNL     1       7.584   5.085  13.688  0.00  0.00    +0.000 A 
ENDBRANCH  12  15
ENDBRANCH   3  10
BRANCH   1  22
ATOM     21  C   UNL     1       1.642   7.870  20.505  0.00  0.00    +0.000 C 
ATOM     22  C   UNL     1       1.750   6.382  20.784  0.00  0.00    +0.000 C 
ENDBRANCH   1  22
TORSDOF 3
ENDMDL
MODEL 3
REMARK VINA RESULT:      -7.7      1.330      1.562
REMARK  Name = 
REMARK  4 active torsions:
REMARK  status: ('A' for Active; 'I' for Inactive)
REMARK    1  A    between atoms: C_1  and  C_2
REMARK    2  A    between atoms: C_2  and  N_3
REMARK    3  A    between atoms: C_5  and  C_6
REMARK    4  A    between atoms: C_8  and  C_9
REMARK                            x       y       z     vdW  Elec       q    Type
REMARK                         _______ _______ _______ _____ _____    ______ ____
ROOT
ATOM      1  N   UNL     1       2.660   7.142  18.754  0.00  0.00    +0.000 N 
ATOM      2  C   UNL     1       3.747   7.174  17.919  0.00  0.00    +0.000 A 
ATOM      3  C   UNL     1       4.419   5.968  18.021  0.00  0.00    +0.000 A 
ATOM      4  C   UNL     1       3.690   5.175  18.968  0.00  0.00    +0.000 A 
ATOM      5  C   UNL     1       3.881   3.888  19.518  0.00  0.00    +0.000 A 
ATOM      6  C   UNL     1       2.970   3.381  20.448  0.00  0.00    +0.000 A 
ATOM      7  C   UNL     1       1.868   4.133  20.835  0.00  0.00    +0.000 A 
ATOM      8  C   UNL     1       1.655   5.414  20.316  0.00  0.00    +0.000 A 
ATOM      9  C   UNL     1       2.586   5.922  19.392  0.00  0.00    +0.000 A 
ENDROOT
BRANCH   3  10
ATOM     10  C   UNL     1       5.644   5.623  17.337  0.00  0.00    +0.000 C 
ATOM     11  N   UNL     1       6.096   6.297  16.325  0.00  0.00    +0.000 NA
ATOM     12  C   UNL     1       7.201   5.462  15.828  0.00  0.00    +0.000 C 
ATOM     13  C   UNL     1       7.498   4.508  16.979  0.00  0.00    +0.000 C 
ATOM     14  O   UNL     1       6.312   4.515  17.765  0.00  0.00    +0.000 OA
BRANCH  12  15
ATOM     15  C   UNL     1       6.801   4.775  14.533  0.00  0.00    +0.000 A 
ATOM     16  C   UNL     1       7.587   4.930  13.381  0.00  0.00    +0.000 A 
ATOM     17  C   UNL     1       7.199   4.354  12.170  0.00  0.00    +0.000 A 
ATOM     18  C   UNL     1       6.019   3.618  12.091  0.00  0.00    +0.000 A 
ATOM     19  C   UNL     1       5.227   3.452  13.224  0.00  0.00    +0.000 A 
ATOM     20  C   UNL     1       5.615   4.026  14.435  0.00  0.00    +0.000 A 
ENDBRANCH  12  15
ENDBRANCH   3  10
BRANCH   1  22
ATOM     21  C   UNL     1       1.794   9.262  17.830  0.00  0.00    +0.000 C 
ATOM     22  C   UNL     1       1.766   8.266  18.975  0.00  0.00    +0.000 C 
ENDBRANCH   1  22
TORSDOF 3
ENDMDL
MODEL 4
REMARK VINA RESULT:      -7.6      1.262      1.535
REMARK  Name = 
REMARK  4 active torsions:
REMARK  status: ('A' for Active; 'I' for Inactive)
REMARK    1  A    between atoms: C_1  and  C_2
REMARK    2  A    between atoms: C_2  and  N_3
REMARK    3  A    between atoms: C_5  and  C_6
REMARK    4  A    between atoms: C_8  and  C_9
REMARK                            x       y       z     vdW  Elec       q    Type
REMARK                         _______ _______ _______ _____ _____    ______ ____
ROOT
ATOM      1  N   UNL     1       2.763   6.373  18.396  0.00  0.00    +0.000 N 
ATOM      2  C   UNL     1       3.850   6.586  17.589  0.00  0.00    +0.000 A 
ATOM      3  C   UNL     1       4.246   5.374  17.050  0.00  0.00    +0.000 A 
ATOM      4  C   UNL     1       3.342   4.386  17.566  0.00  0.00    +0.000 A 
ATOM      5  C   UNL     1       3.241   2.984  17.422  0.00  0.00    +0.000 A 
ATOM      6  C   UNL     1       2.222   2.285  18.073  0.00  0.00    +0.000 A 
ATOM      7  C   UNL     1       1.298   2.960  18.860  0.00  0.00    +0.000 A 
ATOM      8  C   UNL     1       1.376   4.346  19.030  0.00  0.00    +0.000 A 
ATOM      9  C   UNL     1       2.415   5.039  18.384  0.00  0.00    +0.000 A 
ENDROOT
BRANCH   3  10
ATOM     10  C   UNL     1       5.384   5.165  16.185  0.00  0.00    +0.000 C 
ATOM     11  N   UNL     1       5.500   5.737  15.028  0.00  0.00    +0.000 NA
ATOM     12  C   UNL     1       6.663   5.062  14.430  0.00  0.00    +0.000 C 
ATOM     13  C   UNL     1       7.351   4.387  15.609  0.00  0.00    +0.000 C 
ATOM     14  O   UNL     1       6.342   4.293  16.608  0.00  0.00    +0.000 OA
BRANCH  12  15
ATOM     15  C   UNL     1       6.212   4.107  13.337  0.00  0.00    +0.000 A 
ATOM     16  C   UNL     1       7.159   3.360  12.620  0.00  0.00    +0.000 A 
ATOM     17  C   UNL     1       6.764   2.524  11.573  0.00  0.00    +0.000 A 
ATOM     18  C   UNL     1       5.418   2.425  11.226  0.00  0.00    +0.000 A 
ATOM     19  C   UNL     1       4.464   3.158  11.927  0.00  0.00    +0.000 A 
ATOM     20  C   UNL     1       4.858   3.992  12.975  0.00  0.00    +0.000 A 
ENDBRANCH  12  15
ENDBRANCH   3  10
BRANCH   1  22
ATOM     21  C   UNL     1       2.012   8.725  18.457  0.00  0.00    +0.000 C 
ATOM     22  C   UNL     1       2.125   7.405  19.197  0.00  0.00    +0.000 C 
ENDBRANCH   1  22
TORSDOF 3
ENDMDL
MODEL 5
REMARK VINA RESULT:      -7.5      0.962      1.516
REMARK  Name = 
REMARK  4 active torsions:
REMARK  status: ('A' for Active; 'I' for Inactive)
REMARK    1  A    between atoms: C_1  and  C_2
REMARK    2  A    between atoms: C_2  and  N_3
REMARK    3  A    between atoms: C_5  and  C_6
REMARK    4  A    between atoms: C_8  and  C_9
REMARK                            x       y       z     vdW  Elec       q    Type
REMARK                         _______ _______ _______ _____ _____    ______ ____
ROOT
ATOM      1  N   UNL     1       2.658   6.880  18.936  0.00  0.00    +0.000 N 
ATOM      2  C   UNL     1       3.795   7.036  18.185  0.00  0.00    +0.000 A 
ATOM      3  C   UNL     1       4.344   5.787  17.949  0.00  0.00    +0.000 A 
ATOM      4  C   UNL     1       3.485   4.837  18.595  0.00  0.00    +0.000 A 
ATOM      5  C   UNL     1       3.520   3.433  18.746  0.00  0.00    +0.000 A 
ATOM      6  C   UNL     1       2.509   2.779  19.453  0.00  0.00    +0.000 A 
ATOM      7  C   UNL     1       1.459   3.501  20.007  0.00  0.00    +0.000 A 
ATOM      8  C   UNL     1       1.399   4.892  19.883  0.00  0.00    +0.000 A 
ATOM      9  C   UNL     1       2.430   5.543  19.182  0.00  0.00    +0.000 A 
ENDROOT
BRANCH   3  10
ATOM     10  C   UNL     1       5.573   5.526  17.237  0.00  0.00    +0.000 C 
ATOM     11  N   UNL     1       5.976   6.254  16.242  0.00  0.00    +0.000 NA
ATOM     12  C   UNL     1       7.112   5.491  15.701  0.00  0.00    +0.000 C 
ATOM     13  C   UNL     1       7.474   4.517  16.815  0.00  0.00    +0.000 C 
ATOM     14  O   UNL     1       6.301   4.439  17.618  0.00  0.00    +0.000 OA
BRANCH  12  15
ATOM     15  C   UNL     1       6.725   4.828  14.389  0.00  0.00    +0.000 A 
ATOM     16  C   UNL     1       5.543   4.077  14.302  0.00  0.00    +0.000 A 
ATOM     17  C   UNL     1       5.206   3.413  13.121  0.00  0.00    +0.000 A 
ATOM     18  C   UNL     1       6.047   3.487  12.012  0.00  0.00    +0.000 A 
ATOM     19  C   UNL     1       7.223   4.228  12.080  0.00  0.00    +0.000 A 
ATOM     20  C   UNL     1       7.560   4.894  13.259  0.00  0.00    +0.000 A 
ENDBRANCH  12  15
ENDBRANCH   3  10
BRANCH   1  22
ATOM     21  C   UNL     1       1.642   9.069  18.412  0.00  0.00    +0.000 C 
ATOM     22  C   UNL     1       1.860   7.981  19.448  0.00  0.00    +0.000 C 
ENDBRANCH   1  22
TORSDOF 3
ENDMDL
MODEL 6
REMARK VINA RESULT:      -7.5      2.293      4.719
REMARK  Name = 
REMARK  4 active torsions:
REMARK  status: ('A' for Active; 'I' for Inactive)
REMARK    1  A    between atoms: C_1  and  C_2
REMARK    2  A    between atoms: C_2  and  N_3
REMARK    3  A    between atoms: C_5  and  C_6
REMARK    4  A    between atoms: C_8  and  C_9
REMARK                            x       y       z     vdW  Elec       q    Type
REMARK                         _______ _______ _______ _____ _____    ______ ____
ROOT
ATOM      1  N   UNL     1       0.531   8.382  21.207  0.00  0.00    +0.000 N 
ATOM      2  C   UNL     1       1.074   7.124  21.169  0.00  0.00    +0.000 A 
ATOM      3  C   UNL     1       1.867   7.018  20.039  0.00  0.00    +0.000 A 
ATOM      4  C   UNL     1       1.792   8.285  19.370  0.00  0.00    +0.000 A 
ATOM      5  C   UNL     1       2.339   8.790  18.169  0.00  0.00    +0.000 A 
ATOM      6  C   UNL     1       2.072  10.103  17.775  0.00  0.00    +0.000 A 
ATOM      7  C   UNL     1       1.273  10.924  18.562  0.00  0.00    +0.000 A 
ATOM      8  C   UNL     1       0.709  10.452  19.751  0.00  0.00    +0.000 A 
ATOM      9  C   UNL     1       0.971   9.124  20.131  0.00  0.00    +0.000 A 
ENDROOT
BRANCH   3  10
ATOM     10  C   UNL     1       2.576   5.834  19.612  0.00  0.00    +0.000 C 
ATOM     11  N   UNL     1       3.869   5.741  19.641  0.00  0.00    +0.000 NA
ATOM     12  C   UNL     1       4.136   4.490  18.914  0.00  0.00    +0.000 C 
ATOM     13  C   UNL     1       2.792   3.773  18.895  0.00  0.00    +0.000 C 
ATOM     14  O   UNL     1       1.834   4.801  19.123  0.00  0.00    +0.000 OA
BRANCH  12  15
ATOM     15  C   UNL     1       4.704   4.792  17.537  0.00  0.00    +0.000 A 
ATOM     16  C   UNL     1       4.784   6.118  17.084  0.00  0.00    +0.000 A 
ATOM     17  C   UNL     1       5.248   6.405  15.799  0.00  0.00    +0.000 A 
ATOM     18  C   UNL     1       5.636   5.373  14.947  0.00  0.00    +0.000 A 
ATOM     19  C   UNL     1       5.565   4.051  15.381  0.00  0.00    +0.000 A 
ATOM     20  C   UNL     1       5.104   3.763  16.666  0.00  0.00    +0.000 A 
ENDBRANCH  12  15
ENDBRANCH   3  10
BRANCH   1  22
ATOM     21  C   UNL     1       0.250   9.495  23.394  0.00  0.00    +0.000 C 
ATOM     22  C   UNL     1      -0.424   8.830  22.207  0.00  0.00    +0.000 C 
ENDBRANCH   1  22
TORSDOF 3
ENDMDL
MODEL 7
REMARK VINA RESULT:      -7.4      2.167      4.637
REMARK  Name = 
REMARK  4 active torsions:
REMARK  status: ('A' for Active; 'I' for Inactive)
REMARK    1  A    between atoms: C_1  and  C_2
REMARK    2  A    between atoms: C_2  and  N_3
REMARK    3  A    between atoms: C_5  and  C_6
REMARK    4  A    between atoms: C_8  and  C_9
REMARK                            x       y       z     vdW  Elec       q    Type
REMARK                         _______ _______ _______ _____ _____    ______ ____
ROOT
ATOM      1  N   UNL     1       0.697   8.147  21.079  0.00  0.00    +0.000 N 
ATOM      2  C   UNL     1       1.203   6.873  21.103  0.00  0.00    +0.000 A 
ATOM      3  C   UNL     1       2.001   6.693  19.986  0.00  0.00    +0.000 A 
ATOM      4  C   UNL     1       1.969   7.930  19.260  0.00  0.00    +0.000 A 
ATOM      5  C   UNL     1       2.539   8.364  18.043  0.00  0.00    +0.000 A 
ATOM      6  C   UNL     1       2.314   9.665  17.587  0.00  0.00    +0.000 A 
ATOM      7  C   UNL     1       1.533  10.543  18.328  0.00  0.00    +0.000 A 
ATOM      8  C   UNL     1       0.947  10.143  19.533  0.00  0.00    +0.000 A 
ATOM      9  C   UNL     1       1.167   8.826  19.975  0.00  0.00    +0.000 A 
ENDROOT
BRANCH   3  10
ATOM     10  C   UNL     1       2.677   5.471  19.620  0.00  0.00    +0.000 C 
ATOM     11  N   UNL     1       3.923   5.246  19.903  0.00  0.00    +0.000 NA
ATOM     12  C   UNL     1       4.226   4.019  19.148  0.00  0.00    +0.000 C 
ATOM     13  C   UNL     1       2.859   3.444  18.801  0.00  0.00    +0.000 C 
ATOM     14  O   UNL     1       1.968   4.548  18.911  0.00  0.00    +0.000 OA
BRANCH  12  15
ATOM     15  C   UNL     1       5.095   4.343  17.944  0.00  0.00    +0.000 A 
ATOM     16  C   UNL     1       4.583   4.193  16.646  0.00  0.00    +0.000 A 
ATOM     17  C   UNL     1       5.388   4.430  15.530  0.00  0.00    +0.000 A 
ATOM     18  C   UNL     1       6.716   4.817  15.695  0.00  0.00    +0.000 A 
ATOM     19  C   UNL     1       7.241   4.972  16.975  0.00  0.00    +0.000 A 
ATOM     20  C   UNL     1       6.437   4.738  18.091  0.00  0.00    +0.000 A 
ENDBRANCH  12  15
ENDBRANCH   3  10
BRANCH   1  22
ATOM     21  C   UNL     1       0.426   9.451  23.159  0.00  0.00    +0.000 C 
ATOM     22  C   UNL     1      -0.252   8.668  22.049  0.00  0.00    +0.000 C 
ENDBRANCH   1  22
TORSDOF 3
ENDMDL
MODEL 8
REMARK VINA RESULT:      -7.3      0.928      2.835
REMARK  Name = 
REMARK  4 active torsions:
REMARK  status: ('A' for Active; 'I' for Inactive)
REMARK    1  A    between atoms: C_1  and  C_2
REMARK    2  A    between atoms: C_2  and  N_3
REMARK    3  A    between atoms: C_5  and  C_6
REMARK    4  A    between atoms: C_8  and  C_9
REMARK                            x       y       z     vdW  Elec       q    Type
REMARK                         _______ _______ _______ _____ _____    ______ ____
ROOT
ATOM      1  N   UNL     1       2.692   3.149  19.127  0.00  0.00    +0.000 N 
ATOM      2  C   UNL     1       3.805   3.126  18.326  0.00  0.00    +0.000 A 
ATOM      3  C   UNL     1       4.273   4.421  18.182  0.00  0.00    +0.000 A 
ATOM      4  C   UNL     1       3.391   5.259  18.940  0.00  0.00    +0.000 A 
ATOM      5  C   UNL     1       3.315   6.653  19.159  0.00  0.00    +0.000 A 
ATOM      6  C   UNL     1       2.307   7.181  19.969  0.00  0.00    +0.000 A 
ATOM      7  C   UNL     1       1.376   6.342  20.570  0.00  0.00    +0.000 A 
ATOM      8  C   UNL     1       1.419   4.959  20.367  0.00  0.00    +0.000 A 
ATOM      9  C   UNL     1       2.428   4.439  19.537  0.00  0.00    +0.000 A 
ENDROOT
BRANCH   3  10
ATOM     10  C   UNL     1       5.401   4.826  17.375  0.00  0.00    +0.000 C 
ATOM     11  N   UNL     1       5.304   5.699  16.421  0.00  0.00    +0.000 NA
ATOM     12  C   UNL     1       6.610   5.615  15.749  0.00  0.00    +0.000 C 
ATOM     13  C   UNL     1       7.502   4.895  16.752  0.00  0.00    +0.000 C 
ATOM     14  O   UNL     1       6.597   4.219  17.617  0.00  0.00    +0.000 OA
BRANCH  12  15
ATOM     15  C   UNL     1       6.469   4.905  14.413  0.00  0.00    +0.000 A 
ATOM     16  C   UNL     1       5.352   4.095  14.160  0.00  0.00    +0.000 A 
ATOM     17  C   UNL     1       5.239   3.389  12.960  0.00  0.00    +0.000 A 
ATOM     18  C   UNL     1       6.243   3.480  11.998  0.00  0.00    +0.000 A 
ATOM     19  C   UNL     1       7.359   4.279  12.231  0.00  0.00    +0.000 A 
ATOM     20  C   UNL     1       7.471   4.986  13.428  0.00  0.00    +0.000 A 
ENDBRANCH  12  15
ENDBRANCH   3  10
BRANCH   1  22
ATOM     21  C   UNL     1       0.535   2.015  18.729  0.00  0.00    +0.000 C 
ATOM     22  C   UNL     1       1.880   1.983  19.431  0.00  0.00    +0.000 C 
ENDBRANCH   1  22
TORSDOF 3
ENDMDL
MODEL 9
REMARK VINA RESULT:      -7.1      3.241      7.105
REMARK  Name = 
REMARK  4 active torsions:
REMARK  status: ('A' for Active; 'I' for Inactive)
REMARK    1  A    between atoms: C_1  and  C_2
REMARK    2  A    between atoms: C_2  and  N_3
REMARK    3  A    between atoms: C_5  and  C_6
REMARK    4  A    between atoms: C_8  and  C_9
REMARK                            x       y       z     vdW  Elec       q    Type
REMARK                         _______ _______ _______ _____ _____    ______ ____
ROOT
ATOM      1  N   UNL     1       4.648   6.303  17.178  0.00  0.00    +0.000 N 
ATOM      2  C   UNL     1       4.096   7.463  17.655  0.00  0.00    +0.000 A 
ATOM      3  C   UNL     1       2.856   7.173  18.199  0.00  0.00    +0.000 A 
ATOM      4  C   UNL     1       2.662   5.761  18.037  0.00  0.00    +0.000 A 
ATOM      5  C   UNL     1       1.604   4.878  18.348  0.00  0.00    +0.000 A 
ATOM      6  C   UNL     1       1.718   3.517  18.055  0.00  0.00    +0.000 A 
ATOM      7  C   UNL     1       2.872   3.020  17.462  0.00  0.00    +0.000 A 
ATOM      8  C   UNL     1       3.934   3.869  17.134  0.00  0.00    +0.000 A 
ATOM      9  C   UNL     1       3.803   5.240  17.419  0.00  0.00    +0.000 A 
ENDROOT
BRANCH   3  10
ATOM     10  C   UNL     1       1.935   8.132  18.763  0.00  0.00    +0.000 C 
ATOM     11  N   UNL     1       1.327   9.026  18.047  0.00  0.00    +0.000 NA
ATOM     12  C   UNL     1       0.700   9.899  19.053  0.00  0.00    +0.000 C 
ATOM     13  C   UNL     1       0.731   9.076  20.334  0.00  0.00    +0.000 C 
ATOM     14  O   UNL     1       1.747   8.104  20.112  0.00  0.00    +0.000 OA
BRANCH  12  15
ATOM     15  C   UNL     1       1.445  11.221  19.139  0.00  0.00    +0.000 A 
ATOM     16  C   UNL     1       1.332  12.018  20.288  0.00  0.00    +0.000 A 
ATOM     17  C   UNL     1       1.962  13.263  20.357  0.00  0.00    +0.000 A 
ATOM     18  C   UNL     1       2.711  13.729  19.278  0.00  0.00    +0.000 A 
ATOM     19  C   UNL     1       2.834  12.951  18.130  0.00  0.00    +0.000 A 
ATOM     20  C   UNL     1       2.207  11.707  18.061  0.00  0.00    +0.000 A 
ENDBRANCH  12  15
ENDBRANCH   3  10
BRANCH   1  22
ATOM     21  C   UNL     1       7.082   6.692  17.309  0.00  0.00    +0.000 C 
ATOM     22  C   UNL     1       5.910   6.233  16.462  0.00  0.00    +0.000 C 
ENDBRANCH   1  22
TORSDOF 3
ENDMDL
