MODEL 1
REMARK VINA RESULT:      -7.3      0.000      0.000
REMARK  Name = 
REMARK  1 active torsions:
REMARK  status: ('A' for Active; 'I' for Inactive)
REMARK    1  A    between atoms: C_13  and  O_14
REMARK                            x       y       z     vdW  Elec       q    Type
REMARK                         _______ _______ _______ _____ _____    ______ ____
ROOT
ATOM      1  O   UNL     1       3.523   1.381  18.923  0.00  0.00    +0.000 OA
ATOM      2  C   UNL     1       3.706   2.511  18.494  0.00  0.00    +0.000 A 
ATOM      3  N   UNL     1       4.459   2.727  17.374  0.00  0.00    +0.000 N 
ATOM      4  C   UNL     1       4.701   3.988  16.843  0.00  0.00    +0.000 A 
ATOM      5  C   UNL     1       5.493   4.073  15.690  0.00  0.00    +0.000 A 
ATOM      6  C   UNL     1       5.764   5.313  15.121  0.00  0.00    +0.000 A 
ATOM      7  C   UNL     1       5.245   6.460  15.705  0.00  0.00    +0.000 A 
ATOM      8  C   UNL     1       4.455   6.369  16.856  0.00  0.00    +0.000 A 
ATOM      9  C   UNL     1       4.163   5.133  17.455  0.00  0.00    +0.000 A 
ATOM     10  N   UNL     1       3.357   4.997  18.635  0.00  0.00    +0.000 N 
ATOM     11  C   UNL     1       2.801   6.087  19.278  0.00  0.00    +0.000 A 
ATOM     12  O   UNL     1       2.870   7.285  19.016  0.00  0.00    +0.000 OA
ATOM     13  C   UNL     1       1.981   5.762  20.495  0.00  0.00    +0.000 A 
ATOM     14  N   UNL     1       1.791   4.573  20.940  0.00  0.00    +0.000 NA
ATOM     15  N   UNL     1       2.388   3.520  20.242  0.00  0.00    +0.000 NA
ATOM     16  C   UNL     1       3.104   3.743  19.180  0.00  0.00    +0.000 A 
ATOM     17  H   UNL     1       4.842   1.895  16.943  0.00  0.00    +0.000 HD
ENDROOT
BRANCH  13  18
ATOM     18  O   UNL     1       1.454   6.846  21.086  0.00  0.00    +0.000 OA
ATOM     19  H   UNL     1       0.668   7.151  20.593  0.00  0.00    +0.000 HD
ENDBRANCH  13  18
TORSDOF 1
ENDMDL
MODEL 2
REMARK VINA RESULT:      -7.2      3.216      4.908
REMARK  Name = 
REMARK  1 active torsions:
REMARK  status: ('A' for Active; 'I' for Inactive)
REMARK    1  A    between atoms: C_13  and  O_14
REMARK                            x       y       z     vdW  Elec       q    Type
REMARK                         _______ _______ _______ _____ _____    ______ ____
ROOT
ATOM      1  O   UNL     1       5.239   4.659  14.318  0.00  0.00    +0.000 OA
ATOM      2  C   UNL     1       5.164   4.446  15.519  0.00  0.00    +0.000 A 
ATOM      3  N   UNL     1       4.273   3.540  16.021  0.00  0.00    +0.000 N 
ATOM      4  C   UNL     1       4.143   3.259  17.376  0.00  0.00    +0.000 A 
ATOM      5  C   UNL     1       3.188   2.308  17.760  0.00  0.00    +0.000 A 
ATOM      6  C   UNL     1       3.020   1.993  19.104  0.00  0.00    +0.000 A 
ATOM      7  C   UNL     1       3.805   2.627  20.057  0.00  0.00    +0.000 A 
ATOM      8  C   UNL     1       4.757   3.575  19.667  0.00  0.00    +0.000 A 
ATOM      9  C   UNL     1       4.951   3.916  18.319  0.00  0.00    +0.000 A 
ATOM     10  N   UNL     1       5.916   4.882  17.879  0.00  0.00    +0.000 N 
ATOM     11  C   UNL     1       6.739   5.559  18.760  0.00  0.00    +0.000 A 
ATOM     12  O   UNL     1       6.815   5.495  19.985  0.00  0.00    +0.000 OA
ATOM     13  C   UNL     1       7.695   6.530  18.128  0.00  0.00    +0.000 A 
ATOM     14  N   UNL     1       7.770   6.749  16.864  0.00  0.00    +0.000 NA
ATOM     15  N   UNL     1       6.904   6.032  16.033  0.00  0.00    +0.000 NA
ATOM     16  C   UNL     1       6.060   5.176  16.527  0.00  0.00    +0.000 A 
ATOM     17  H   UNL     1       3.696   3.074  15.332  0.00  0.00    +0.000 HD
ENDROOT
BRANCH  13  18
ATOM     18  O   UNL     1       8.479   7.161  19.016  0.00  0.00    +0.000 OA
ATOM     19  H   UNL     1       8.803   8.004  18.642  0.00  0.00    +0.000 HD
ENDBRANCH  13  18
TORSDOF 1
ENDMDL
MODEL 3
REMARK VINA RESULT:      -7.1      3.165      5.315
REMARK  Name = 
REMARK  1 active torsions:
REMARK  status: ('A' for Active; 'I' for Inactive)
REMARK    1  A    between atoms: C_13  and  O_14
REMARK                            x       y       z     vdW  Elec       q    Type
REMARK                         _______ _______ _______ _____ _____    ______ ____
ROOT
ATOM      1  O   UNL     1       7.239   5.526  19.983  0.00  0.00    +0.000 OA
ATOM      2  C   UNL     1       6.401   4.976  19.283  0.00  0.00    +0.000 A 
ATOM      3  N   UNL     1       5.356   4.292  19.838  0.00  0.00    +0.000 N 
ATOM      4  C   UNL     1       4.376   3.648  19.092  0.00  0.00    +0.000 A 
ATOM      5  C   UNL     1       3.358   2.980  19.785  0.00  0.00    +0.000 A 
ATOM      6  C   UNL     1       2.355   2.320  19.083  0.00  0.00    +0.000 A 
ATOM      7  C   UNL     1       2.374   2.329  17.695  0.00  0.00    +0.000 A 
ATOM      8  C   UNL     1       3.394   2.997  17.009  0.00  0.00    +0.000 A 
ATOM      9  C   UNL     1       4.421   3.673  17.688  0.00  0.00    +0.000 A 
ATOM     10  N   UNL     1       5.483   4.370  17.021  0.00  0.00    +0.000 N 
ATOM     11  C   UNL     1       5.577   4.430  15.643  0.00  0.00    +0.000 A 
ATOM     12  O   UNL     1       4.854   3.946  14.776  0.00  0.00    +0.000 OA
ATOM     13  C   UNL     1       6.749   5.206  15.114  0.00  0.00    +0.000 A 
ATOM     14  N   UNL     1       7.626   5.783  15.855  0.00  0.00    +0.000 NA
ATOM     15  N   UNL     1       7.470   5.677  17.240  0.00  0.00    +0.000 NA
ATOM     16  C   UNL     1       6.472   5.021  17.752  0.00  0.00    +0.000 A 
ATOM     17  H   UNL     1       5.336   4.281  20.850  0.00  0.00    +0.000 HD
ENDROOT
BRANCH  13  18
ATOM     18  O   UNL     1       6.801   5.245  13.774  0.00  0.00    +0.000 OA
ATOM     19  H   UNL     1       5.902   5.350  13.404  0.00  0.00    +0.000 HD
ENDBRANCH  13  18
TORSDOF 1
ENDMDL
MODEL 4
REMARK VINA RESULT:      -7.1      3.050      5.281
REMARK  Name = 
REMARK  1 active torsions:
REMARK  status: ('A' for Active; 'I' for Inactive)
REMARK    1  A    between atoms: C_13  and  O_14
REMARK                            x       y       z     vdW  Elec       q    Type
REMARK                         _______ _______ _______ _____ _____    ______ ____
ROOT
ATOM      1  O   UNL     1       7.304   5.518  19.853  0.00  0.00    +0.000 OA
ATOM      2  C   UNL     1       6.310   5.198  19.219  0.00  0.00    +0.000 A 
ATOM      3  N   UNL     1       5.086   5.112  19.820  0.00  0.00    +0.000 N 
ATOM      4  C   UNL     1       3.923   4.753  19.148  0.00  0.00    +0.000 A 
ATOM      5  C   UNL     1       2.731   4.700  19.883  0.00  0.00    +0.000 A 
ATOM      6  C   UNL     1       1.541   4.346  19.255  0.00  0.00    +0.000 A 
ATOM      7  C   UNL     1       1.548   4.045  17.900  0.00  0.00    +0.000 A 
ATOM      8  C   UNL     1       2.741   4.100  17.173  0.00  0.00    +0.000 A 
ATOM      9  C   UNL     1       3.959   4.454  17.776  0.00  0.00    +0.000 A 
ATOM     10  N   UNL     1       5.203   4.521  17.064  0.00  0.00    +0.000 N 
ATOM     11  C   UNL     1       5.298   4.239  15.714  0.00  0.00    +0.000 A 
ATOM     12  O   UNL     1       4.434   3.898  14.911  0.00  0.00    +0.000 OA
ATOM     13  C   UNL     1       6.676   4.364  15.129  0.00  0.00    +0.000 A 
ATOM     14  N   UNL     1       7.717   4.702  15.801  0.00  0.00    +0.000 NA
ATOM     15  N   UNL     1       7.547   4.968  17.163  0.00  0.00    +0.000 NA
ATOM     16  C   UNL     1       6.377   4.879  17.720  0.00  0.00    +0.000 A 
ATOM     17  H   UNL     1       5.073   5.329  20.808  0.00  0.00    +0.000 HD
ENDROOT
BRANCH  13  18
ATOM     18  O   UNL     1       6.725   4.088  13.817  0.00  0.00    +0.000 OA
ATOM     19  H   UNL     1       5.842   3.816  13.496  0.00  0.00    +0.000 HD
ENDBRANCH  13  18
TORSDOF 1
ENDMDL
MODEL 5
REMARK VINA RESULT:      -7.0      2.522      5.205
REMARK  Name = 
REMARK  1 active torsions:
REMARK  status: ('A' for Active; 'I' for Inactive)
REMARK    1  A    between atoms: C_13  and  O_14
REMARK                            x       y       z     vdW  Elec       q    Type
REMARK                         _______ _______ _______ _____ _____    ______ ____
ROOT
ATOM      1  O   UNL     1       2.723   8.006  18.453  0.00  0.00    +0.000 OA
ATOM      2  C   UNL     1       2.931   6.822  18.232  0.00  0.00    +0.000 A 
ATOM      3  N   UNL     1       2.074   5.858  18.682  0.00  0.00    +0.000 N 
ATOM      4  C   UNL     1       2.261   4.499  18.462  0.00  0.00    +0.000 A 
ATOM      5  C   UNL     1       1.307   3.613  18.980  0.00  0.00    +0.000 A 
ATOM      6  C   UNL     1       1.450   2.243  18.786  0.00  0.00    +0.000 A 
ATOM      7  C   UNL     1       2.544   1.765  18.078  0.00  0.00    +0.000 A 
ATOM      8  C   UNL     1       3.493   2.655  17.563  0.00  0.00    +0.000 A 
ATOM      9  C   UNL     1       3.377   4.043  17.741  0.00  0.00    +0.000 A 
ATOM     10  N   UNL     1       4.329   4.987  17.229  0.00  0.00    +0.000 N 
ATOM     11  C   UNL     1       5.445   4.597  16.513  0.00  0.00    +0.000 A 
ATOM     12  O   UNL     1       5.832   3.475  16.194  0.00  0.00    +0.000 OA
ATOM     13  C   UNL     1       6.331   5.717  16.047  0.00  0.00    +0.000 A 
ATOM     14  N   UNL     1       6.107   6.960  16.281  0.00  0.00    +0.000 NA
ATOM     15  N   UNL     1       4.961   7.280  17.016  0.00  0.00    +0.000 NA
ATOM     16  C   UNL     1       4.157   6.352  17.440  0.00  0.00    +0.000 A 
ATOM     17  H   UNL     1       1.274   6.199  19.201  0.00  0.00    +0.000 HD
ENDROOT
BRANCH  13  18
ATOM     18  O   UNL     1       7.399   5.297  15.351  0.00  0.00    +0.000 OA
ATOM     19  H   UNL     1       7.827   4.547  15.809  0.00  0.00    +0.000 HD
ENDBRANCH  13  18
TORSDOF 1
ENDMDL
MODEL 6
REMARK VINA RESULT:      -6.9      1.254      3.273
REMARK  Name = 
REMARK  1 active torsions:
REMARK  status: ('A' for Active; 'I' for Inactive)
REMARK    1  A    between atoms: C_13  and  O_14
REMARK                            x       y       z     vdW  Elec       q    Type
REMARK                         _______ _______ _______ _____ _____    ______ ____
ROOT
ATOM      1  O   UNL     1       2.132   8.209  18.953  0.00  0.00    +0.000 OA
ATOM      2  C   UNL     1       2.782   7.240  18.591  0.00  0.00    +0.000 A 
ATOM      3  N   UNL     1       3.584   7.300  17.486  0.00  0.00    +0.000 N 
ATOM      4  C   UNL     1       4.343   6.230  17.028  0.00  0.00    +0.000 A 
ATOM      5  C   UNL     1       5.124   6.423  15.880  0.00  0.00    +0.000 A 
ATOM      6  C   UNL     1       5.900   5.382  15.383  0.00  0.00    +0.000 A 
ATOM      7  C   UNL     1       5.893   4.155  16.032  0.00  0.00    +0.000 A 
ATOM      8  C   UNL     1       5.112   3.968  17.177  0.00  0.00    +0.000 A 
ATOM      9  C   UNL     1       4.317   4.999  17.704  0.00  0.00    +0.000 A 
ATOM     10  N   UNL     1       3.502   4.847  18.876  0.00  0.00    +0.000 N 
ATOM     11  C   UNL     1       3.437   3.661  19.583  0.00  0.00    +0.000 A 
ATOM     12  O   UNL     1       3.998   2.585  19.383  0.00  0.00    +0.000 OA
ATOM     13  C   UNL     1       2.540   3.680  20.787  0.00  0.00    +0.000 A 
ATOM     14  N   UNL     1       1.860   4.703  21.164  0.00  0.00    +0.000 NA
ATOM     15  N   UNL     1       1.971   5.868  20.399  0.00  0.00    +0.000 NA
ATOM     16  C   UNL     1       2.736   5.908  19.349  0.00  0.00    +0.000 A 
ATOM     17  H   UNL     1       3.594   8.192  17.007  0.00  0.00    +0.000 HD
ENDROOT
BRANCH  13  18
ATOM     18  O   UNL     1       2.510   2.512  21.448  0.00  0.00    +0.000 OA
ATOM     19  H   UNL     1       3.232   2.478  22.106  0.00  0.00    +0.000 HD
ENDBRANCH  13  18
TORSDOF 1
ENDMDL
MODEL 7
REMARK VINA RESULT:      -6.8      1.099      1.167
REMARK  Name = 
REMARK  1 active torsions:
REMARK  status: ('A' for Active; 'I' for Inactive)
REMARK    1  A    between atoms: C_13  and  O_14
REMARK                            x       y       z     vdW  Elec       q    Type
REMARK                         _______ _______ _______ _____ _____    ______ ____
ROOT
ATOM      1  O   UNL     1       3.547   2.496  20.082  0.00  0.00    +0.000 OA
ATOM      2  C   UNL     1       3.782   3.375  19.266  0.00  0.00    +0.000 A 
ATOM      3  N   UNL     1       4.579   3.137  18.182  0.00  0.00    +0.000 N 
ATOM      4  C   UNL     1       4.881   4.098  17.225  0.00  0.00    +0.000 A 
ATOM      5  C   UNL     1       5.714   3.725  16.161  0.00  0.00    +0.000 A 
ATOM      6  C   UNL     1       6.045   4.651  15.178  0.00  0.00    +0.000 A 
ATOM      7  C   UNL     1       5.545   5.944  15.261  0.00  0.00    +0.000 A 
ATOM      8  C   UNL     1       4.714   6.310  16.325  0.00  0.00    +0.000 A 
ATOM      9  C   UNL     1       4.361   5.399  17.334  0.00  0.00    +0.000 A 
ATOM     10  N   UNL     1       3.512   5.735  18.441  0.00  0.00    +0.000 N 
ATOM     11  C   UNL     1       2.971   6.998  18.600  0.00  0.00    +0.000 A 
ATOM     12  O   UNL     1       3.089   8.006  17.907  0.00  0.00    +0.000 OA
ATOM     13  C   UNL     1       2.101   7.174  19.811  0.00  0.00    +0.000 A 
ATOM     14  N   UNL     1       1.856   6.246  20.665  0.00  0.00    +0.000 NA
ATOM     15  N   UNL     1       2.441   4.996  20.443  0.00  0.00    +0.000 NA
ATOM     16  C   UNL     1       3.199   4.786  19.409  0.00  0.00    +0.000 A 
ATOM     17  H   UNL     1       4.948   2.197  18.115  0.00  0.00    +0.000 HD
ENDROOT
BRANCH  13  18
ATOM     18  O   UNL     1       1.591   8.410  19.926  0.00  0.00    +0.000 OA
ATOM     19  H   UNL     1       1.498   8.651  20.869  0.00  0.00    +0.000 HD
ENDBRANCH  13  18
TORSDOF 1
ENDMDL
MODEL 8
REMARK VINA RESULT:      -6.8      1.239      3.401
REMARK  Name = 
REMARK  1 active torsions:
REMARK  status: ('A' for Active; 'I' for Inactive)
REMARK    1  A    between atoms: C_13  and  O_14
REMARK                            x       y       z     vdW  Elec       q    Type
REMARK                         _______ _______ _______ _____ _____    ______ ____
ROOT
ATOM      1  O   UNL     1       2.218   7.470  19.423  0.00  0.00    +0.000 OA
ATOM      2  C   UNL     1       2.763   6.610  18.748  0.00  0.00    +0.000 A 
ATOM      3  N   UNL     1       3.758   6.928  17.867  0.00  0.00    +0.000 N 
ATOM      4  C   UNL     1       4.412   5.993  17.075  0.00  0.00    +0.000 A 
ATOM      5  C   UNL     1       5.414   6.451  16.210  0.00  0.00    +0.000 A 
ATOM      6  C   UNL     1       6.097   5.553  15.396  0.00  0.00    +0.000 A 
ATOM      7  C   UNL     1       5.775   4.203  15.449  0.00  0.00    +0.000 A 
ATOM      8  C   UNL     1       4.774   3.752  16.315  0.00  0.00    +0.000 A 
ATOM      9  C   UNL     1       4.066   4.633  17.149  0.00  0.00    +0.000 A 
ATOM     10  N   UNL     1       3.032   4.209  18.050  0.00  0.00    +0.000 N 
ATOM     11  C   UNL     1       2.651   2.885  18.166  0.00  0.00    +0.000 A 
ATOM     12  O   UNL     1       3.063   1.885  17.583  0.00  0.00    +0.000 OA
ATOM     13  C   UNL     1       1.558   2.619  19.162  0.00  0.00    +0.000 A 
ATOM     14  N   UNL     1       0.989   3.527  19.869  0.00  0.00    +0.000 NA
ATOM     15  N   UNL     1       1.422   4.845  19.695  0.00  0.00    +0.000 NA
ATOM     16  C   UNL     1       2.368   5.132  18.851  0.00  0.00    +0.000 A 
ATOM     17  H   UNL     1       3.997   7.911  17.822  0.00  0.00    +0.000 HD
ENDROOT
BRANCH  13  18
ATOM     18  O   UNL     1       1.221   1.322  19.249  0.00  0.00    +0.000 OA
ATOM     19  H   UNL     1       0.496   1.204  19.893  0.00  0.00    +0.000 HD
ENDBRANCH  13  18
TORSDOF 1
ENDMDL
MODEL 9
REMARK VINA RESULT:      -6.8      2.523      4.686
REMARK  Name = 
REMARK  1 active torsions:
REMARK  status: ('A' for Active; 'I' for Inactive)
REMARK    1  A    between atoms: C_13  and  O_14
REMARK                            x       y       z     vdW  Elec       q    Type
REMARK                         _______ _______ _______ _____ _____    ______ ____
ROOT
ATOM      1  O   UNL     1       4.947   3.101  19.647  0.00  0.00    +0.000 OA
ATOM      2  C   UNL     1       4.607   4.139  19.098  0.00  0.00    +0.000 A 
ATOM      3  N   UNL     1       3.681   4.968  19.667  0.00  0.00    +0.000 N 
ATOM      4  C   UNL     1       3.256   6.158  19.089  0.00  0.00    +0.000 A 
ATOM      5  C   UNL     1       2.298   6.916  19.776  0.00  0.00    +0.000 A 
ATOM      6  C   UNL     1       1.841   8.114  19.238  0.00  0.00    +0.000 A 
ATOM      7  C   UNL     1       2.341   8.549  18.018  0.00  0.00    +0.000 A 
ATOM      8  C   UNL     1       3.297   7.788  17.337  0.00  0.00    +0.000 A 
ATOM      9  C   UNL     1       3.779   6.574  17.853  0.00  0.00    +0.000 A 
ATOM     10  N   UNL     1       4.759   5.765  17.186  0.00  0.00    +0.000 N 
ATOM     11  C   UNL     1       5.309   6.124  15.969  0.00  0.00    +0.000 A 
ATOM     12  O   UNL     1       5.100   7.107  15.262  0.00  0.00    +0.000 OA
ATOM     13  C   UNL     1       6.324   5.164  15.417  0.00  0.00    +0.000 A 
ATOM     14  N   UNL     1       6.679   4.075  15.998  0.00  0.00    +0.000 NA
ATOM     15  N   UNL     1       6.077   3.774  17.223  0.00  0.00    +0.000 NA
ATOM     16  C   UNL     1       5.196   4.571  17.750  0.00  0.00    +0.000 A 
ATOM     17  H   UNL     1       3.311   4.657  20.556  0.00  0.00    +0.000 HD
ENDROOT
BRANCH  13  18
ATOM     18  O   UNL     1       6.838   5.552  14.239  0.00  0.00    +0.000 OA
ATOM     19  H   UNL     1       7.662   6.058  14.381  0.00  0.00    +0.000 HD
ENDBRANCH  13  18
TORSDOF 1
ENDMDL
