MODEL 1
REMARK VINA RESULT:      -8.2      0.000      0.000
REMARK  Name = 
REMARK  6 active torsions:
REMARK  status: ('A' for Active; 'I' for Inactive)
REMARK    1  A    between atoms: N_2  and  C_4
REMARK    2  A    between atoms: C_9  and  C_10
REMARK    3  A    between atoms: C_17  and  C_18
REMARK    4  A    between atoms: C_21  and  O_22
REMARK    5  A    between atoms: C_23  and  O_24
REMARK    6  A    between atoms: C_25  and  O_26
REMARK                            x       y       z     vdW  Elec       q    Type
REMARK                         _______ _______ _______ _____ _____    ______ ____
ROOT
ATOM      1  C   UNL     1       3.603   2.918  20.115  0.00  0.00    +0.000 C 
ATOM      2  C   UNL     1       2.408   2.788  20.717  0.00  0.00    +0.000 C 
ATOM      3  N   UNL     1       1.610   3.890  20.947  0.00  0.00    +0.000 N 
ATOM      4  C   UNL     1       1.935   5.112  20.474  0.00  0.00    +0.000 A 
ATOM      5  N   UNL     1       1.279   6.240  20.497  0.00  0.00    +0.000 NA
ATOM      6  C   UNL     1       2.099   7.097  19.792  0.00  0.00    +0.000 A 
ATOM      7  N   UNL     1       3.275   6.568  19.407  0.00  0.00    +0.000 NA
ATOM      8  N   UNL     1       3.134   5.291  19.823  0.00  0.00    +0.000 N 
ATOM      9  C   UNL     1       4.165   4.241  19.667  0.00  0.00    +0.000 C 
ATOM     10  H   UNL     1       0.692   3.744  21.362  0.00  0.00    +0.000 HD
ENDROOT
BRANCH   9  11
ATOM     11  C   UNL     1       4.745   4.261  18.261  0.00  0.00    +0.000 A 
ATOM     12  C   UNL     1       3.893   4.107  17.145  0.00  0.00    +0.000 A 
ATOM     13  C   UNL     1       4.397   4.129  15.838  0.00  0.00    +0.000 A 
ATOM     14  C   UNL     1       5.762   4.293  15.640  0.00  0.00    +0.000 A 
ATOM     15  C   UNL     1       6.611   4.444  16.729  0.00  0.00    +0.000 A 
ATOM     16  C   UNL     1       6.109   4.438  18.026  0.00  0.00    +0.000 A 
BRANCH  14  17
ATOM     17  O   UNL     1       6.316   4.321  14.391  0.00  0.00    +0.000 OA
ATOM     18  H   UNL     1       5.600   4.454  13.745  0.00  0.00    +0.000 HD
ENDBRANCH  14  17
BRANCH  15  19
ATOM     19  O   UNL     1       7.958   4.607  16.544  0.00  0.00    +0.000 OA
ATOM     20  H   UNL     1       8.284   4.906  17.418  0.00  0.00    +0.000 HD
ENDBRANCH  15  19
BRANCH  16  21
ATOM     21  O   UNL     1       6.966   4.618  19.074  0.00  0.00    +0.000 OA
ATOM     22  H   UNL     1       7.037   5.591  19.171  0.00  0.00    +0.000 HD
ENDBRANCH  16  21
ENDBRANCH   9  11
BRANCH   6  23
ATOM     23  C   UNL     1       1.703   8.503  19.477  0.00  0.00    +0.000 A 
ATOM     24  C   UNL     1       1.885   9.142  18.264  0.00  0.00    +0.000 A 
ATOM     25  C   UNL     1       1.365  10.451  18.405  0.00  0.00    +0.000 A 
ATOM     26  C   UNL     1       0.904  10.538  19.696  0.00  0.00    +0.000 A 
ATOM     27  O   UNL     1       1.085   9.361  20.347  0.00  0.00    +0.000 OA
ENDBRANCH   6  23
BRANCH   1  29
ATOM     28  O   UNL     1       5.330   1.586  20.787  0.00  0.00    +0.000 OA
ATOM     29  N   UNL     1       4.429   1.752  19.956  0.00  0.00    +0.000 N 
ATOM     30  O   UNL     1       4.168   0.978  19.027  0.00  0.00    +0.000 OA
ENDBRANCH   1  29
TORSDOF 6
ENDMDL
MODEL 2
REMARK VINA RESULT:      -7.9      0.876      1.092
REMARK  Name = 
REMARK  6 active torsions:
REMARK  status: ('A' for Active; 'I' for Inactive)
REMARK    1  A    between atoms: N_2  and  C_4
REMARK    2  A    between atoms: C_9  and  C_10
REMARK    3  A    between atoms: C_17  and  C_18
REMARK    4  A    between atoms: C_21  and  O_22
REMARK    5  A    between atoms: C_23  and  O_24
REMARK    6  A    between atoms: C_25  and  O_26
REMARK                            x       y       z     vdW  Elec       q    Type
REMARK                         _______ _______ _______ _____ _____    ______ ____
ROOT
ATOM      1  C   UNL     1       3.314   2.841  19.867  0.00  0.00    +0.000 C 
ATOM      2  C   UNL     1       2.060   2.585  20.280  0.00  0.00    +0.000 C 
ATOM      3  N   UNL     1       1.218   3.610  20.658  0.00  0.00    +0.000 N 
ATOM      4  C   UNL     1       1.570   4.905  20.514  0.00  0.00    +0.000 A 
ATOM      5  N   UNL     1       0.892   6.003  20.714  0.00  0.00    +0.000 NA
ATOM      6  C   UNL     1       1.770   6.993  20.321  0.00  0.00    +0.000 A 
ATOM      7  N   UNL     1       2.993   6.557  19.967  0.00  0.00    +0.000 NA
ATOM      8  N   UNL     1       2.832   5.221  20.064  0.00  0.00    +0.000 N 
ATOM      9  C   UNL     1       3.895   4.227  19.797  0.00  0.00    +0.000 C 
ATOM     10  H   UNL     1       0.262   3.379  20.919  0.00  0.00    +0.000 HD
ENDROOT
BRANCH   9  11
ATOM     11  C   UNL     1       4.633   4.561  18.509  0.00  0.00    +0.000 A 
ATOM     12  C   UNL     1       3.998   4.366  17.262  0.00  0.00    +0.000 A 
ATOM     13  C   UNL     1       4.649   4.672  16.061  0.00  0.00    +0.000 A 
ATOM     14  C   UNL     1       5.947   5.165  16.099  0.00  0.00    +0.000 A 
ATOM     15  C   UNL     1       6.583   5.360  17.318  0.00  0.00    +0.000 A 
ATOM     16  C   UNL     1       5.931   5.072  18.512  0.00  0.00    +0.000 A 
BRANCH  14  17
ATOM     17  O   UNL     1       6.636   5.481  14.962  0.00  0.00    +0.000 OA
ATOM     18  H   UNL     1       6.601   6.446  14.843  0.00  0.00    +0.000 HD
ENDBRANCH  14  17
BRANCH  15  19
ATOM     19  O   UNL     1       7.862   5.847  17.365  0.00  0.00    +0.000 OA
ATOM     20  H   UNL     1       8.105   5.971  16.424  0.00  0.00    +0.000 HD
ENDBRANCH  15  19
BRANCH  16  21
ATOM     21  O   UNL     1       6.573   5.302  19.695  0.00  0.00    +0.000 OA
ATOM     22  H   UNL     1       5.944   4.994  20.381  0.00  0.00    +0.000 HD
ENDBRANCH  16  21
ENDBRANCH   9  11
BRANCH   6  23
ATOM     23  C   UNL     1       1.383   8.435  20.287  0.00  0.00    +0.000 A 
ATOM     24  C   UNL     1       0.993   9.195  21.376  0.00  0.00    +0.000 A 
ATOM     25  C   UNL     1       0.722  10.498  20.894  0.00  0.00    +0.000 A 
ATOM     26  C   UNL     1       0.955  10.457  19.541  0.00  0.00    +0.000 A 
ATOM     27  O   UNL     1       1.372   9.221  19.166  0.00  0.00    +0.000 OA
ENDBRANCH   6  23
BRANCH   1  29
ATOM     28  O   UNL     1       5.141   1.542  20.296  0.00  0.00    +0.000 OA
ATOM     29  N   UNL     1       4.176   1.736  19.547  0.00  0.00    +0.000 N 
ATOM     30  O   UNL     1       3.884   1.034  18.570  0.00  0.00    +0.000 OA
ENDBRANCH   1  29
TORSDOF 6
ENDMDL
MODEL 3
REMARK VINA RESULT:      -7.4      3.557      6.889
REMARK  Name = 
REMARK  6 active torsions:
REMARK  status: ('A' for Active; 'I' for Inactive)
REMARK    1  A    between atoms: N_2  and  C_4
REMARK    2  A    between atoms: C_9  and  C_10
REMARK    3  A    between atoms: C_17  and  C_18
REMARK    4  A    between atoms: C_21  and  O_22
REMARK    5  A    between atoms: C_23  and  O_24
REMARK    6  A    between atoms: C_25  and  O_26
REMARK                            x       y       z     vdW  Elec       q    Type
REMARK                         _______ _______ _______ _____ _____    ______ ____
ROOT
ATOM      1  C   UNL     1       6.675   5.403  18.118  0.00  0.00    +0.000 C 
ATOM      2  C   UNL     1       7.374   6.306  17.410  0.00  0.00    +0.000 C 
ATOM      3  N   UNL     1       7.542   6.160  16.048  0.00  0.00    +0.000 N 
ATOM      4  C   UNL     1       6.915   5.183  15.359  0.00  0.00    +0.000 A 
ATOM      5  N   UNL     1       6.863   4.940  14.077  0.00  0.00    +0.000 NA
ATOM      6  C   UNL     1       6.010   3.858  13.995  0.00  0.00    +0.000 A 
ATOM      7  N   UNL     1       5.599   3.370  15.180  0.00  0.00    +0.000 NA
ATOM      8  N   UNL     1       6.161   4.251  16.034  0.00  0.00    +0.000 N 
ATOM      9  C   UNL     1       6.045   4.181  17.507  0.00  0.00    +0.000 C 
ATOM     10  H   UNL     1       8.037   6.890  15.540  0.00  0.00    +0.000 HD
ENDROOT
BRANCH   9  11
ATOM     11  C   UNL     1       4.606   3.912  17.921  0.00  0.00    +0.000 A 
ATOM     12  C   UNL     1       3.544   4.513  17.209  0.00  0.00    +0.000 A 
ATOM     13  C   UNL     1       2.209   4.278  17.562  0.00  0.00    +0.000 A 
ATOM     14  C   UNL     1       1.928   3.448  18.641  0.00  0.00    +0.000 A 
ATOM     15  C   UNL     1       2.963   2.853  19.350  0.00  0.00    +0.000 A 
ATOM     16  C   UNL     1       4.288   3.073  18.990  0.00  0.00    +0.000 A 
BRANCH  14  17
ATOM     17  O   UNL     1       0.648   3.182  19.036  0.00  0.00    +0.000 OA
ATOM     18  H   UNL     1       0.044   3.728  18.501  0.00  0.00    +0.000 HD
ENDBRANCH  14  17
BRANCH  15  19
ATOM     19  O   UNL     1       2.695   2.033  20.414  0.00  0.00    +0.000 OA
ATOM     20  H   UNL     1       1.835   2.356  20.753  0.00  0.00    +0.000 HD
ENDBRANCH  15  19
BRANCH  16  21
ATOM     21  O   UNL     1       5.281   2.450  19.689  0.00  0.00    +0.000 OA
ATOM     22  H   UNL     1       5.198   1.503  19.447  0.00  0.00    +0.000 HD
ENDBRANCH  16  21
ENDBRANCH   9  11
BRANCH   6  23
ATOM     23  C   UNL     1       5.573   3.283  12.687  0.00  0.00    +0.000 A 
ATOM     24  C   UNL     1       4.443   3.651  11.978  0.00  0.00    +0.000 A 
ATOM     25  C   UNL     1       4.417   2.860  10.805  0.00  0.00    +0.000 A 
ATOM     26  C   UNL     1       5.525   2.052  10.868  0.00  0.00    +0.000 A 
ATOM     27  O   UNL     1       6.242   2.311  11.992  0.00  0.00    +0.000 OA
ENDBRANCH   6  23
BRANCH   1  29
ATOM     28  O   UNL     1       5.455   5.736  20.018  0.00  0.00    +0.000 OA
ATOM     29  N   UNL     1       6.584   5.561  19.544  0.00  0.00    +0.000 N 
ATOM     30  O   UNL     1       7.627   5.479  20.206  0.00  0.00    +0.000 OA
ENDBRANCH   1  29
TORSDOF 6
ENDMDL
MODEL 4
REMARK VINA RESULT:      -7.2      1.141      1.908
REMARK  Name = 
REMARK  6 active torsions:
REMARK  status: ('A' for Active; 'I' for Inactive)
REMARK    1  A    between atoms: N_2  and  C_4
REMARK    2  A    between atoms: C_9  and  C_10
REMARK    3  A    between atoms: C_17  and  C_18
REMARK    4  A    between atoms: C_21  and  O_22
REMARK    5  A    between atoms: C_23  and  O_24
REMARK    6  A    between atoms: C_25  and  O_26
REMARK                            x       y       z     vdW  Elec       q    Type
REMARK                         _______ _______ _______ _____ _____    ______ ____
ROOT
ATOM      1  C   UNL     1       3.415   2.759  19.854  0.00  0.00    +0.000 C 
ATOM      2  C   UNL     1       2.118   2.494  20.087  0.00  0.00    +0.000 C 
ATOM      3  N   UNL     1       1.231   3.508  20.385  0.00  0.00    +0.000 N 
ATOM      4  C   UNL     1       1.598   4.807  20.333  0.00  0.00    +0.000 A 
ATOM      5  N   UNL     1       0.898   5.899  20.479  0.00  0.00    +0.000 NA
ATOM      6  C   UNL     1       1.819   6.899  20.241  0.00  0.00    +0.000 A 
ATOM      7  N   UNL     1       3.079   6.472  20.037  0.00  0.00    +0.000 NA
ATOM      8  N   UNL     1       2.908   5.133  20.066  0.00  0.00    +0.000 N 
ATOM      9  C   UNL     1       3.999   4.145  19.909  0.00  0.00    +0.000 C 
ATOM     10  H   UNL     1       0.249   3.273  20.508  0.00  0.00    +0.000 HD
ENDROOT
BRANCH   9  11
ATOM     11  C   UNL     1       4.901   4.521  18.743  0.00  0.00    +0.000 A 
ATOM     12  C   UNL     1       6.170   5.091  18.989  0.00  0.00    +0.000 A 
ATOM     13  C   UNL     1       7.025   5.440  17.936  0.00  0.00    +0.000 A 
ATOM     14  C   UNL     1       6.610   5.232  16.627  0.00  0.00    +0.000 A 
ATOM     15  C   UNL     1       5.364   4.675  16.372  0.00  0.00    +0.000 A 
ATOM     16  C   UNL     1       4.521   4.313  17.417  0.00  0.00    +0.000 A 
BRANCH  14  17
ATOM     17  O   UNL     1       7.396   5.553  15.558  0.00  0.00    +0.000 OA
ATOM     18  H   UNL     1       8.327   5.518  15.842  0.00  0.00    +0.000 HD
ENDBRANCH  14  17
BRANCH  15  19
ATOM     19  O   UNL     1       4.946   4.465  15.084  0.00  0.00    +0.000 OA
ATOM     20  H   UNL     1       4.941   5.360  14.687  0.00  0.00    +0.000 HD
ENDBRANCH  15  19
BRANCH  16  21
ATOM     21  O   UNL     1       3.314   3.740  17.133  0.00  0.00    +0.000 OA
ATOM     22  H   UNL     1       2.713   4.498  16.971  0.00  0.00    +0.000 HD
ENDBRANCH  16  21
ENDBRANCH   9  11
BRANCH   6  23
ATOM     23  C   UNL     1       1.439   8.343  20.204  0.00  0.00    +0.000 A 
ATOM     24  C   UNL     1       1.036   9.101  21.289  0.00  0.00    +0.000 A 
ATOM     25  C   UNL     1       0.777  10.407  20.807  0.00  0.00    +0.000 A 
ATOM     26  C   UNL     1       1.029  10.369  19.457  0.00  0.00    +0.000 A 
ATOM     27  O   UNL     1       1.447   9.132  19.085  0.00  0.00    +0.000 OA
ENDBRANCH   6  23
BRANCH   1  29
ATOM     28  O   UNL     1       4.127   1.000  18.587  0.00  0.00    +0.000 OA
ATOM     29  N   UNL     1       4.314   1.664  19.613  0.00  0.00    +0.000 N 
ATOM     30  O   UNL     1       5.231   1.476  20.423  0.00  0.00    +0.000 OA
ENDBRANCH   1  29
TORSDOF 6
ENDMDL
MODEL 5
REMARK VINA RESULT:      -6.8      3.678      6.949
REMARK  Name = 
REMARK  6 active torsions:
REMARK  status: ('A' for Active; 'I' for Inactive)
REMARK    1  A    between atoms: N_2  and  C_4
REMARK    2  A    between atoms: C_9  and  C_10
REMARK    3  A    between atoms: C_17  and  C_18
REMARK    4  A    between atoms: C_21  and  O_22
REMARK    5  A    between atoms: C_23  and  O_24
REMARK    6  A    between atoms: C_25  and  O_26
REMARK                            x       y       z     vdW  Elec       q    Type
REMARK                         _______ _______ _______ _____ _____    ______ ____
ROOT
ATOM      1  C   UNL     1       6.690   5.385  18.151  0.00  0.00    +0.000 C 
ATOM      2  C   UNL     1       7.329   6.344  17.459  0.00  0.00    +0.000 C 
ATOM      3  N   UNL     1       7.507   6.232  16.096  0.00  0.00    +0.000 N 
ATOM      4  C   UNL     1       6.945   5.228  15.389  0.00  0.00    +0.000 A 
ATOM      5  N   UNL     1       6.911   5.003  14.103  0.00  0.00    +0.000 NA
ATOM      6  C   UNL     1       6.130   3.870  14.001  0.00  0.00    +0.000 A 
ATOM      7  N   UNL     1       5.750   3.336  15.177  0.00  0.00    +0.000 NA
ATOM      8  N   UNL     1       6.253   4.238  16.047  0.00  0.00    +0.000 N 
ATOM      9  C   UNL     1       6.140   4.135  17.519  0.00  0.00    +0.000 C 
ATOM     10  H   UNL     1       7.954   7.001  15.601  0.00  0.00    +0.000 HD
ENDROOT
BRANCH   9  11
ATOM     11  C   UNL     1       4.721   3.767  17.925  0.00  0.00    +0.000 A 
ATOM     12  C   UNL     1       4.479   2.563  18.623  0.00  0.00    +0.000 A 
ATOM     13  C   UNL     1       3.184   2.201  19.017  0.00  0.00    +0.000 A 
ATOM     14  C   UNL     1       2.120   3.037  18.704  0.00  0.00    +0.000 A 
ATOM     15  C   UNL     1       2.345   4.223  18.016  0.00  0.00    +0.000 A 
ATOM     16  C   UNL     1       3.632   4.591  17.639  0.00  0.00    +0.000 A 
BRANCH  14  17
ATOM     17  O   UNL     1       0.835   2.739  19.058  0.00  0.00    +0.000 OA
ATOM     18  H   UNL     1       0.499   2.064  18.444  0.00  0.00    +0.000 HD
ENDBRANCH  14  17
BRANCH  15  19
ATOM     19  O   UNL     1       1.303   5.055  17.704  0.00  0.00    +0.000 OA
ATOM     20  H   UNL     1       0.961   4.699  16.858  0.00  0.00    +0.000 HD
ENDBRANCH  15  19
BRANCH  16  21
ATOM     21  O   UNL     1       3.824   5.777  16.990  0.00  0.00    +0.000 OA
ATOM     22  H   UNL     1       3.825   5.540  16.038  0.00  0.00    +0.000 HD
ENDBRANCH  16  21
ENDBRANCH   9  11
BRANCH   6  23
ATOM     23  C   UNL     1       5.732   3.290  12.683  0.00  0.00    +0.000 A 
ATOM     24  C   UNL     1       4.550   3.544  12.011  0.00  0.00    +0.000 A 
ATOM     25  C   UNL     1       4.588   2.794  10.811  0.00  0.00    +0.000 A 
ATOM     26  C   UNL     1       5.786   2.121  10.823  0.00  0.00    +0.000 A 
ATOM     27  O   UNL     1       6.493   2.427  11.940  0.00  0.00    +0.000 OA
ENDBRANCH   6  23
BRANCH   1  29
ATOM     28  O   UNL     1       5.455   5.680  20.047  0.00  0.00    +0.000 OA
ATOM     29  N   UNL     1       6.587   5.513  19.579  0.00  0.00    +0.000 N 
ATOM     30  O   UNL     1       7.624   5.415  20.248  0.00  0.00    +0.000 OA
ENDBRANCH   1  29
TORSDOF 6
ENDMDL
MODEL 6
REMARK VINA RESULT:      -6.7      2.755      5.971
REMARK  Name = 
REMARK  6 active torsions:
REMARK  status: ('A' for Active; 'I' for Inactive)
REMARK    1  A    between atoms: N_2  and  C_4
REMARK    2  A    between atoms: C_9  and  C_10
REMARK    3  A    between atoms: C_17  and  C_18
REMARK    4  A    between atoms: C_21  and  O_22
REMARK    5  A    between atoms: C_23  and  O_24
REMARK    6  A    between atoms: C_25  and  O_26
REMARK                            x       y       z     vdW  Elec       q    Type
REMARK                         _______ _______ _______ _____ _____    ______ ____
ROOT
ATOM      1  C   UNL     1       2.293   4.410  19.001  0.00  0.00    +0.000 C 
ATOM      2  C   UNL     1       1.807   4.454  20.253  0.00  0.00    +0.000 C 
ATOM      3  N   UNL     1       2.227   3.549  21.206  0.00  0.00    +0.000 N 
ATOM      4  C   UNL     1       3.222   2.671  20.959  0.00  0.00    +0.000 A 
ATOM      5  N   UNL     1       3.823   1.816  21.742  0.00  0.00    +0.000 NA
ATOM      6  C   UNL     1       4.794   1.269  20.929  0.00  0.00    +0.000 A 
ATOM      7  N   UNL     1       4.764   1.689  19.650  0.00  0.00    +0.000 NA
ATOM      8  N   UNL     1       3.776   2.608  19.701  0.00  0.00    +0.000 N 
ATOM      9  C   UNL     1       3.298   3.389  18.539  0.00  0.00    +0.000 C 
ATOM     10  H   UNL     1       1.872   3.645  22.155  0.00  0.00    +0.000 HD
ENDROOT
BRANCH   9  11
ATOM     11  C   UNL     1       4.472   3.942  17.744  0.00  0.00    +0.000 A 
ATOM     12  C   UNL     1       4.574   3.674  16.360  0.00  0.00    +0.000 A 
ATOM     13  C   UNL     1       5.639   4.175  15.601  0.00  0.00    +0.000 A 
ATOM     14  C   UNL     1       6.616   4.940  16.225  0.00  0.00    +0.000 A 
ATOM     15  C   UNL     1       6.529   5.209  17.584  0.00  0.00    +0.000 A 
ATOM     16  C   UNL     1       5.463   4.725  18.335  0.00  0.00    +0.000 A 
BRANCH  14  17
ATOM     17  O   UNL     1       7.680   5.456  15.540  0.00  0.00    +0.000 OA
ATOM     18  H   UNL     1       7.515   5.337  14.588  0.00  0.00    +0.000 HD
ENDBRANCH  14  17
BRANCH  15  19
ATOM     19  O   UNL     1       7.487   5.963  18.208  0.00  0.00    +0.000 OA
ATOM     20  H   UNL     1       7.385   5.740  19.156  0.00  0.00    +0.000 HD
ENDBRANCH  15  19
BRANCH  16  21
ATOM     21  O   UNL     1       5.390   5.031  19.664  0.00  0.00    +0.000 OA
ATOM     22  H   UNL     1       5.633   4.199  20.123  0.00  0.00    +0.000 HD
ENDBRANCH  16  21
ENDBRANCH   9  11
BRANCH   6  23
ATOM     23  C   UNL     1       5.804   0.293  21.436  0.00  0.00    +0.000 A 
ATOM     24  C   UNL     1       6.076  -0.948  20.889  0.00  0.00    +0.000 A 
ATOM     25  C   UNL     1       7.095  -1.533  21.677  0.00  0.00    +0.000 A 
ATOM     26  C   UNL     1       7.382  -0.620  22.663  0.00  0.00    +0.000 A 
ATOM     27  O   UNL     1       6.621   0.495  22.517  0.00  0.00    +0.000 OA
ENDBRANCH   6  23
BRANCH   1  29
ATOM     28  O   UNL     1       2.166   6.502  18.098  0.00  0.00    +0.000 OA
ATOM     29  N   UNL     1       1.777   5.330  18.024  0.00  0.00    +0.000 N 
ATOM     30  O   UNL     1       1.009   4.890  17.160  0.00  0.00    +0.000 OA
ENDBRANCH   1  29
TORSDOF 6
ENDMDL
MODEL 7
REMARK VINA RESULT:      -6.7      2.503      4.818
REMARK  Name = 
REMARK  6 active torsions:
REMARK  status: ('A' for Active; 'I' for Inactive)
REMARK    1  A    between atoms: N_2  and  C_4
REMARK    2  A    between atoms: C_9  and  C_10
REMARK    3  A    between atoms: C_17  and  C_18
REMARK    4  A    between atoms: C_21  and  O_22
REMARK    5  A    between atoms: C_23  and  O_24
REMARK    6  A    between atoms: C_25  and  O_26
REMARK                            x       y       z     vdW  Elec       q    Type
REMARK                         _______ _______ _______ _____ _____    ______ ____
ROOT
ATOM      1  C   UNL     1       4.637   5.522  17.608  0.00  0.00    +0.000 C 
ATOM      2  C   UNL     1       5.419   6.597  17.414  0.00  0.00    +0.000 C 
ATOM      3  N   UNL     1       4.875   7.862  17.332  0.00  0.00    +0.000 N 
ATOM      4  C   UNL     1       3.563   8.084  17.565  0.00  0.00    +0.000 A 
ATOM      5  N   UNL     1       2.884   9.197  17.634  0.00  0.00    +0.000 NA
ATOM      6  C   UNL     1       1.615   8.772  17.971  0.00  0.00    +0.000 A 
ATOM      7  N   UNL     1       1.461   7.436  18.029  0.00  0.00    +0.000 NA
ATOM      8  N   UNL     1       2.725   7.019  17.800  0.00  0.00    +0.000 N 
ATOM      9  C   UNL     1       3.139   5.600  17.735  0.00  0.00    +0.000 C 
ATOM     10  H   UNL     1       5.504   8.655  17.233  0.00  0.00    +0.000 HD
ENDROOT
BRANCH   9  11
ATOM     11  C   UNL     1       2.540   4.811  18.890  0.00  0.00    +0.000 A 
ATOM     12  C   UNL     1       2.996   5.034  20.208  0.00  0.00    +0.000 A 
ATOM     13  C   UNL     1       2.458   4.328  21.291  0.00  0.00    +0.000 A 
ATOM     14  C   UNL     1       1.466   3.384  21.060  0.00  0.00    +0.000 A 
ATOM     15  C   UNL     1       1.010   3.153  19.769  0.00  0.00    +0.000 A 
ATOM     16  C   UNL     1       1.532   3.865  18.695  0.00  0.00    +0.000 A 
BRANCH  14  17
ATOM     17  O   UNL     1       0.903   2.661  22.074  0.00  0.00    +0.000 OA
ATOM     18  H   UNL     1       1.404   2.840  22.890  0.00  0.00    +0.000 HD
ENDBRANCH  14  17
BRANCH  15  19
ATOM     19  O   UNL     1       0.032   2.224  19.532  0.00  0.00    +0.000 OA
ATOM     20  H   UNL     1       0.525   1.392  19.381  0.00  0.00    +0.000 HD
ENDBRANCH  15  19
BRANCH  16  21
ATOM     21  O   UNL     1       1.042   3.636  17.441  0.00  0.00    +0.000 OA
ATOM     22  H   UNL     1       1.009   4.523  17.023  0.00  0.00    +0.000 HD
ENDBRANCH  16  21
ENDBRANCH   9  11
BRANCH   6  23
ATOM     23  C   UNL     1       0.502   9.727  18.256  0.00  0.00    +0.000 A 
ATOM     24  C   UNL     1       0.514  10.719  19.220  0.00  0.00    +0.000 A 
ATOM     25  C   UNL     1      -0.733  11.384  19.144  0.00  0.00    +0.000 A 
ATOM     26  C   UNL     1      -1.436  10.757  18.144  0.00  0.00    +0.000 A 
ATOM     27  O   UNL     1      -0.693   9.767  17.588  0.00  0.00    +0.000 OA
ENDBRANCH   6  23
BRANCH   1  29
ATOM     28  O   UNL     1       4.973   3.466  16.673  0.00  0.00    +0.000 OA
ATOM     29  N   UNL     1       5.242   4.217  17.619  0.00  0.00    +0.000 N 
ATOM     30  O   UNL     1       6.013   3.943  18.547  0.00  0.00    +0.000 OA
ENDBRANCH   1  29
TORSDOF 6
ENDMDL
MODEL 8
REMARK VINA RESULT:      -6.5      3.945      9.147
REMARK  Name = 
REMARK  6 active torsions:
REMARK  status: ('A' for Active; 'I' for Inactive)
REMARK    1  A    between atoms: N_2  and  C_4
REMARK    2  A    between atoms: C_9  and  C_10
REMARK    3  A    between atoms: C_17  and  C_18
REMARK    4  A    between atoms: C_21  and  O_22
REMARK    5  A    between atoms: C_23  and  O_24
REMARK    6  A    between atoms: C_25  and  O_26
REMARK                            x       y       z     vdW  Elec       q    Type
REMARK                         _______ _______ _______ _____ _____    ______ ____
ROOT
ATOM      1  C   UNL     1      -1.092  11.320  22.331  0.00  0.00    +0.000 C 
ATOM      2  C   UNL     1      -0.907  10.376  23.269  0.00  0.00    +0.000 C 
ATOM      3  N   UNL     1      -0.261   9.195  22.966  0.00  0.00    +0.000 N 
ATOM      4  C   UNL     1       0.315   8.993  21.761  0.00  0.00    +0.000 A 
ATOM      5  N   UNL     1       1.046   8.006  21.318  0.00  0.00    +0.000 NA
ATOM      6  C   UNL     1       1.393   8.415  20.047  0.00  0.00    +0.000 A 
ATOM      7  N   UNL     1       0.837   9.577  19.654  0.00  0.00    +0.000 NA
ATOM      8  N   UNL     1       0.182   9.944  20.776  0.00  0.00    +0.000 N 
ATOM      9  C   UNL     1      -0.636  11.170  20.904  0.00  0.00    +0.000 C 
ATOM     10  H   UNL     1      -0.098   8.526  23.715  0.00  0.00    +0.000 HD
ENDROOT
BRANCH   9  11
ATOM     11  C   UNL     1       0.098  12.370  20.324  0.00  0.00    +0.000 A 
ATOM     12  C   UNL     1       1.491  12.502  20.512  0.00  0.00    +0.000 A 
ATOM     13  C   UNL     1       2.195  13.591  19.983  0.00  0.00    +0.000 A 
ATOM     14  C   UNL     1       1.505  14.564  19.271  0.00  0.00    +0.000 A 
ATOM     15  C   UNL     1       0.134  14.447  19.081  0.00  0.00    +0.000 A 
ATOM     16  C   UNL     1      -0.562  13.357  19.592  0.00  0.00    +0.000 A 
BRANCH  14  17
ATOM     17  O   UNL     1       2.134  15.651  18.732  0.00  0.00    +0.000 OA
ATOM     18  H   UNL     1       2.078  15.584  17.763  0.00  0.00    +0.000 HD
ENDBRANCH  14  17
BRANCH  15  19
ATOM     19  O   UNL     1      -0.555  15.401  18.379  0.00  0.00    +0.000 OA
ATOM     20  H   UNL     1      -1.348  15.572  18.928  0.00  0.00    +0.000 HD
ENDBRANCH  15  19
BRANCH  16  21
ATOM     21  O   UNL     1      -1.905  13.257  19.363  0.00  0.00    +0.000 OA
ATOM     22  H   UNL     1      -2.030  13.623  18.461  0.00  0.00    +0.000 HD
ENDBRANCH  16  21
ENDBRANCH   9  11
BRANCH   6  23
ATOM     23  C   UNL     1       2.322   7.629  19.181  0.00  0.00    +0.000 A 
ATOM     24  C   UNL     1       2.845   8.045  17.969  0.00  0.00    +0.000 A 
ATOM     25  C   UNL     1       3.672   6.998  17.496  0.00  0.00    +0.000 A 
ATOM     26  C   UNL     1       3.602   6.004  18.441  0.00  0.00    +0.000 A 
ATOM     27  O   UNL     1       2.804   6.381  19.472  0.00  0.00    +0.000 OA
ENDBRANCH   6  23
BRANCH   1  29
ATOM     28  O   UNL     1      -1.289  13.293  23.461  0.00  0.00    +0.000 OA
ATOM     29  N   UNL     1      -1.830  12.505  22.676  0.00  0.00    +0.000 N 
ATOM     30  O   UNL     1      -2.934  12.677  22.145  0.00  0.00    +0.000 OA
ENDBRANCH   1  29
TORSDOF 6
ENDMDL
MODEL 9
REMARK VINA RESULT:      -6.3     10.073     13.050
REMARK  Name = 
REMARK  6 active torsions:
REMARK  status: ('A' for Active; 'I' for Inactive)
REMARK    1  A    between atoms: N_2  and  C_4
REMARK    2  A    between atoms: C_9  and  C_10
REMARK    3  A    between atoms: C_17  and  C_18
REMARK    4  A    between atoms: C_21  and  O_22
REMARK    5  A    between atoms: C_23  and  O_24
REMARK    6  A    between atoms: C_25  and  O_26
REMARK                            x       y       z     vdW  Elec       q    Type
REMARK                         _______ _______ _______ _____ _____    ______ ____
ROOT
ATOM      1  C   UNL     1      -7.152  12.788  22.309  0.00  0.00    +0.000 C 
ATOM      2  C   UNL     1      -7.913  11.735  21.964  0.00  0.00    +0.000 C 
ATOM      3  N   UNL     1      -7.683  11.053  20.787  0.00  0.00    +0.000 N 
ATOM      4  C   UNL     1      -6.620  11.333  20.003  0.00  0.00    +0.000 A 
ATOM      5  N   UNL     1      -6.178  10.749  18.922  0.00  0.00    +0.000 NA
ATOM      6  C   UNL     1      -5.023  11.449  18.635  0.00  0.00    +0.000 A 
ATOM      7  N   UNL     1      -4.779  12.496  19.444  0.00  0.00    +0.000 NA
ATOM      8  N   UNL     1      -5.791  12.381  20.330  0.00  0.00    +0.000 N 
ATOM      9  C   UNL     1      -6.025  13.308  21.460  0.00  0.00    +0.000 C 
ATOM     10  H   UNL     1      -8.249  10.232  20.584  0.00  0.00    +0.000 HD
ENDROOT
BRANCH   9  11
ATOM     11  C   UNL     1      -4.726  13.592  22.200  0.00  0.00    +0.000 A 
ATOM     12  C   UNL     1      -3.918  12.520  22.641  0.00  0.00    +0.000 A 
ATOM     13  C   UNL     1      -2.714  12.750  23.318  0.00  0.00    +0.000 A 
ATOM     14  C   UNL     1      -2.316  14.057  23.570  0.00  0.00    +0.000 A 
ATOM     15  C   UNL     1      -3.102  15.119  23.144  0.00  0.00    +0.000 A 
ATOM     16  C   UNL     1      -4.289  14.892  22.457  0.00  0.00    +0.000 A 
BRANCH  14  17
ATOM     17  O   UNL     1      -1.154  14.347  24.227  0.00  0.00    +0.000 OA
ATOM     18  H   UNL     1      -1.380  14.693  25.108  0.00  0.00    +0.000 HD
ENDBRANCH  14  17
BRANCH  15  19
ATOM     19  O   UNL     1      -2.717  16.411  23.386  0.00  0.00    +0.000 OA
ATOM     20  H   UNL     1      -2.913  16.879  22.548  0.00  0.00    +0.000 HD
ENDBRANCH  15  19
BRANCH  16  21
ATOM     21  O   UNL     1      -5.026  15.958  22.026  0.00  0.00    +0.000 OA
ATOM     22  H   UNL     1      -5.087  16.548  22.807  0.00  0.00    +0.000 HD
ENDBRANCH  16  21
ENDBRANCH   9  11
BRANCH   6  23
ATOM     23  C   UNL     1      -4.114  11.063  17.514  0.00  0.00    +0.000 A 
ATOM     24  C   UNL     1      -2.975  10.285  17.627  0.00  0.00    +0.000 A 
ATOM     25  C   UNL     1      -2.424  10.170  16.328  0.00  0.00    +0.000 A 
ATOM     26  C   UNL     1      -3.253  10.888  15.500  0.00  0.00    +0.000 A 
ATOM     27  O   UNL     1      -4.287  11.417  16.202  0.00  0.00    +0.000 OA
ENDBRANCH   6  23
BRANCH   1  29
ATOM     28  O   UNL     1      -7.648  14.728  23.405  0.00  0.00    +0.000 OA
ATOM     29  N   UNL     1      -7.472  13.508  23.512  0.00  0.00    +0.000 N 
ATOM     30  O   UNL     1      -7.584  12.864  24.563  0.00  0.00    +0.000 OA
ENDBRANCH   1  29
TORSDOF 6
ENDMDL
