MODEL 1
REMARK VINA RESULT:      -8.5      0.000      0.000
REMARK  Name = 
REMARK  7 active torsions:
REMARK  status: ('A' for Active; 'I' for Inactive)
REMARK    1  A    between atoms: C_1  and  O_2
REMARK    2  A    between atoms: O_2  and  C_3
REMARK    3  A    between atoms: C_6  and  C_7
REMARK    4  A    between atoms: C_8  and  C_9
REMARK    5  A    between atoms: C_9  and  C_11
REMARK    6  A    between atoms: C_24  and  O_25
REMARK    7  A    between atoms: O_25  and  C_26
REMARK                            x       y       z     vdW  Elec       q    Type
REMARK                         _______ _______ _______ _____ _____    ______ ____
ROOT
ATOM      1  C   UNL     1       2.539   7.979  17.992  0.00  0.00    +0.000 C 
ATOM      2  O   UNL     1       3.579   8.535  17.662  0.00  0.00    +0.000 OA
ENDROOT
BRANCH   1   3
ATOM      3  C   UNL     1       2.559   6.717  18.785  0.00  0.00    +0.000 A 
ATOM      4  C   UNL     1       2.090   6.785  20.117  0.00  0.00    +0.000 A 
ATOM      5  C   UNL     1       1.640   5.644  20.803  0.00  0.00    +0.000 A 
ATOM      6  C   UNL     1       1.535   4.489  20.042  0.00  0.00    +0.000 A 
ATOM      7  C   UNL     1       2.120   4.424  18.792  0.00  0.00    +0.000 A 
ATOM      8  C   UNL     1       2.092   3.134  18.309  0.00  0.00    +0.000 A 
ATOM      9  C   UNL     1       3.079   2.697  17.443  0.00  0.00    +0.000 A 
ATOM     10  C   UNL     1       3.951   3.692  16.958  0.00  0.00    +0.000 A 
ATOM     11  C   UNL     1       3.765   5.062  17.249  0.00  0.00    +0.000 A 
ATOM     12  C   UNL     1       2.812   5.450  18.218  0.00  0.00    +0.000 A 
ATOM     13  C   UNL     1       1.064   2.378  19.065  0.00  0.00    +0.000 C 
ATOM     14  C   UNL     1       1.035   3.135  20.422  0.00  0.00    +0.000 C 
ENDBRANCH   1   3
BRANCH   1  16
ATOM     15  C   UNL     1       0.791   9.651  18.596  0.00  0.00    +0.000 C 
ATOM     16  C   UNL     1       1.209   8.637  17.801  0.00  0.00    +0.000 C 
BRANCH  15  20
ATOM     17  C   UNL     1      -3.127  11.455  18.276  0.00  0.00    +0.000 A 
ATOM     18  C   UNL     1      -2.662  10.537  17.324  0.00  0.00    +0.000 A 
ATOM     19  C   UNL     1      -1.374   9.986  17.415  0.00  0.00    +0.000 A 
ATOM     20  C   UNL     1      -0.506  10.356  18.447  0.00  0.00    +0.000 A 
ATOM     21  C   UNL     1      -0.953  11.359  19.325  0.00  0.00    +0.000 A 
ATOM     22  C   UNL     1      -2.243  11.915  19.257  0.00  0.00    +0.000 A 
BRANCH  17  24
ATOM     23  C   UNL     1      -5.053  11.837  16.966  0.00  0.00    +0.000 C 
ATOM     24  O   UNL     1      -4.413  11.923  18.239  0.00  0.00    +0.000 OA
ENDBRANCH  17  24
BRANCH  22  25
ATOM     25  O   UNL     1      -2.444  12.848  20.239  0.00  0.00    +0.000 OA
ATOM     26  C   UNL     1      -2.005  12.576  21.560  0.00  0.00    +0.000 C 
ENDBRANCH  22  25
ENDBRANCH  15  20
ENDBRANCH   1  16
TORSDOF 5
ENDMDL
MODEL 2
REMARK VINA RESULT:      -8.4      1.172      2.214
REMARK  Name = 
REMARK  7 active torsions:
REMARK  status: ('A' for Active; 'I' for Inactive)
REMARK    1  A    between atoms: C_1  and  O_2
REMARK    2  A    between atoms: O_2  and  C_3
REMARK    3  A    between atoms: C_6  and  C_7
REMARK    4  A    between atoms: C_8  and  C_9
REMARK    5  A    between atoms: C_9  and  C_11
REMARK    6  A    between atoms: C_24  and  O_25
REMARK    7  A    between atoms: O_25  and  C_26
REMARK                            x       y       z     vdW  Elec       q    Type
REMARK                         _______ _______ _______ _____ _____    ______ ____
ROOT
ATOM      1  C   UNL     1       2.187   8.350  17.920  0.00  0.00    +0.000 C 
ATOM      2  O   UNL     1       3.126   9.074  17.613  0.00  0.00    +0.000 OA
ENDROOT
BRANCH   1   3
ATOM      3  C   UNL     1       2.398   7.126  18.745  0.00  0.00    +0.000 A 
ATOM      4  C   UNL     1       1.957   7.169  20.088  0.00  0.00    +0.000 A 
ATOM      5  C   UNL     1       1.683   5.998  20.814  0.00  0.00    +0.000 A 
ATOM      6  C   UNL     1       1.718   4.818  20.087  0.00  0.00    +0.000 A 
ATOM      7  C   UNL     1       2.275   4.796  18.823  0.00  0.00    +0.000 A 
ATOM      8  C   UNL     1       2.411   3.500  18.374  0.00  0.00    +0.000 A 
ATOM      9  C   UNL     1       3.427   3.176  17.492  0.00  0.00    +0.000 A 
ATOM     10  C   UNL     1       4.143   4.265  16.958  0.00  0.00    +0.000 A 
ATOM     11  C   UNL     1       3.780   5.605  17.219  0.00  0.00    +0.000 A 
ATOM     12  C   UNL     1       2.807   5.889  18.204  0.00  0.00    +0.000 A 
ATOM     13  C   UNL     1       1.514   2.634  19.178  0.00  0.00    +0.000 C 
ATOM     14  C   UNL     1       1.416   3.420  20.516  0.00  0.00    +0.000 C 
ENDBRANCH   1   3
BRANCH   1  16
ATOM     15  C   UNL     1       0.219   9.838  18.275  0.00  0.00    +0.000 C 
ATOM     16  C   UNL     1       0.771   8.760  17.669  0.00  0.00    +0.000 C 
BRANCH  15  20
ATOM     17  C   UNL     1      -3.718  11.474  17.545  0.00  0.00    +0.000 A 
ATOM     18  C   UNL     1      -3.014  11.757  18.723  0.00  0.00    +0.000 A 
ATOM     19  C   UNL     1      -1.753  11.190  18.969  0.00  0.00    +0.000 A 
ATOM     20  C   UNL     1      -1.172  10.306  18.054  0.00  0.00    +0.000 A 
ATOM     21  C   UNL     1      -1.944   9.952  16.934  0.00  0.00    +0.000 A 
ATOM     22  C   UNL     1      -3.203  10.517  16.665  0.00  0.00    +0.000 A 
BRANCH  17  24
ATOM     23  C   UNL     1      -5.698  12.433  18.402  0.00  0.00    +0.000 C 
ATOM     24  O   UNL     1      -4.905  12.096  17.263  0.00  0.00    +0.000 OA
ENDBRANCH  17  24
BRANCH  22  25
ATOM     25  O   UNL     1      -3.737  10.031  15.501  0.00  0.00    +0.000 OA
ATOM     26  C   UNL     1      -2.955  10.037  14.319  0.00  0.00    +0.000 C 
ENDBRANCH  22  25
ENDBRANCH  15  20
ENDBRANCH   1  16
TORSDOF 5
ENDMDL
MODEL 3
REMARK VINA RESULT:      -8.2      0.910      1.059
REMARK  Name = 
REMARK  7 active torsions:
REMARK  status: ('A' for Active; 'I' for Inactive)
REMARK    1  A    between atoms: C_1  and  O_2
REMARK    2  A    between atoms: O_2  and  C_3
REMARK    3  A    between atoms: C_6  and  C_7
REMARK    4  A    between atoms: C_8  and  C_9
REMARK    5  A    between atoms: C_9  and  C_11
REMARK    6  A    between atoms: C_24  and  O_25
REMARK    7  A    between atoms: O_25  and  C_26
REMARK                            x       y       z     vdW  Elec       q    Type
REMARK                         _______ _______ _______ _____ _____    ______ ____
ROOT
ATOM      1  C   UNL     1       2.561   7.911  18.197  0.00  0.00    +0.000 C 
ATOM      2  O   UNL     1       3.425   8.168  17.367  0.00  0.00    +0.000 OA
ENDROOT
BRANCH   1   3
ATOM      3  C   UNL     1       2.550   6.605  18.918  0.00  0.00    +0.000 A 
ATOM      4  C   UNL     1       2.076   6.608  20.249  0.00  0.00    +0.000 A 
ATOM      5  C   UNL     1       1.598   5.439  20.867  0.00  0.00    +0.000 A 
ATOM      6  C   UNL     1       1.473   4.332  20.041  0.00  0.00    +0.000 A 
ATOM      7  C   UNL     1       2.063   4.326  18.791  0.00  0.00    +0.000 A 
ATOM      8  C   UNL     1       2.010   3.066  18.235  0.00  0.00    +0.000 A 
ATOM      9  C   UNL     1       2.992   2.659  17.349  0.00  0.00    +0.000 A 
ATOM     10  C   UNL     1       3.887   3.661  16.925  0.00  0.00    +0.000 A 
ATOM     11  C   UNL     1       3.728   5.015  17.294  0.00  0.00    +0.000 A 
ATOM     12  C   UNL     1       2.779   5.368  18.280  0.00  0.00    +0.000 A 
ATOM     13  C   UNL     1       0.962   2.290  18.942  0.00  0.00    +0.000 C 
ATOM     14  C   UNL     1       0.942   2.969  20.340  0.00  0.00    +0.000 C 
ENDBRANCH   1   3
BRANCH   1  16
ATOM     15  C   UNL     1       0.520   9.323  17.962  0.00  0.00    +0.000 C 
ATOM     16  C   UNL     1       1.608   8.958  18.681  0.00  0.00    +0.000 C 
BRANCH  15  20
ATOM     17  C   UNL     1      -2.525  12.060  19.357  0.00  0.00    +0.000 A 
ATOM     18  C   UNL     1      -2.718  11.268  18.217  0.00  0.00    +0.000 A 
ATOM     19  C   UNL     1      -1.709  10.411  17.749  0.00  0.00    +0.000 A 
ATOM     20  C   UNL     1      -0.471  10.340  18.395  0.00  0.00    +0.000 A 
ATOM     21  C   UNL     1      -0.261  11.224  19.468  0.00  0.00    +0.000 A 
ATOM     22  C   UNL     1      -1.262  12.081  19.958  0.00  0.00    +0.000 A 
BRANCH  17  24
ATOM     23  C   UNL     1      -4.854  12.418  19.493  0.00  0.00    +0.000 C 
ATOM     24  O   UNL     1      -3.539  12.828  19.866  0.00  0.00    +0.000 OA
ENDBRANCH  17  24
BRANCH  22  25
ATOM     25  O   UNL     1      -0.820  12.817  21.025  0.00  0.00    +0.000 OA
ATOM     26  C   UNL     1       0.559  13.128  21.135  0.00  0.00    +0.000 C 
ENDBRANCH  22  25
ENDBRANCH  15  20
ENDBRANCH   1  16
TORSDOF 5
ENDMDL
MODEL 4
REMARK VINA RESULT:      -8.2      5.788      8.627
REMARK  Name = 
REMARK  7 active torsions:
REMARK  status: ('A' for Active; 'I' for Inactive)
REMARK    1  A    between atoms: C_1  and  O_2
REMARK    2  A    between atoms: O_2  and  C_3
REMARK    3  A    between atoms: C_6  and  C_7
REMARK    4  A    between atoms: C_8  and  C_9
REMARK    5  A    between atoms: C_9  and  C_11
REMARK    6  A    between atoms: C_24  and  O_25
REMARK    7  A    between atoms: O_25  and  C_26
REMARK                            x       y       z     vdW  Elec       q    Type
REMARK                         _______ _______ _______ _____ _____    ______ ____
ROOT
ATOM      1  C   UNL     1       7.501   6.698  18.047  0.00  0.00    +0.000 C 
ATOM      2  O   UNL     1       8.042   6.162  19.006  0.00  0.00    +0.000 OA
ENDROOT
BRANCH   1   3
ATOM      3  C   UNL     1       6.352   6.050  17.351  0.00  0.00    +0.000 A 
ATOM      4  C   UNL     1       6.640   4.932  16.534  0.00  0.00    +0.000 A 
ATOM      5  C   UNL     1       5.657   3.986  16.201  0.00  0.00    +0.000 A 
ATOM      6  C   UNL     1       4.439   4.132  16.850  0.00  0.00    +0.000 A 
ATOM      7  C   UNL     1       4.150   5.298  17.533  0.00  0.00    +0.000 A 
ATOM      8  C   UNL     1       2.824   5.325  17.907  0.00  0.00    +0.000 A 
ATOM      9  C   UNL     1       2.165   6.536  18.033  0.00  0.00    +0.000 A 
ATOM     10  C   UNL     1       2.978   7.685  17.956  0.00  0.00    +0.000 A 
ATOM     11  C   UNL     1       4.385   7.606  17.864  0.00  0.00    +0.000 A 
ATOM     12  C   UNL     1       5.004   6.357  17.632  0.00  0.00    +0.000 A 
ATOM     13  C   UNL     1       2.300   3.939  17.860  0.00  0.00    +0.000 C 
ATOM     14  C   UNL     1       3.215   3.281  16.790  0.00  0.00    +0.000 C 
ENDBRANCH   1   3
BRANCH   1  16
ATOM     15  C   UNL     1       8.568   8.915  18.446  0.00  0.00    +0.000 C 
ATOM     16  C   UNL     1       7.819   8.107  17.659  0.00  0.00    +0.000 C 
BRANCH  15  20
ATOM     17  C   UNL     1       9.503  13.078  17.732  0.00  0.00    +0.000 A 
ATOM     18  C   UNL     1       8.221  12.563  17.498  0.00  0.00    +0.000 A 
ATOM     19  C   UNL     1       7.936  11.203  17.695  0.00  0.00    +0.000 A 
ATOM     20  C   UNL     1       8.933  10.314  18.110  0.00  0.00    +0.000 A 
ATOM     21  C   UNL     1      10.234  10.830  18.231  0.00  0.00    +0.000 A 
ATOM     22  C   UNL     1      10.538  12.191  18.048  0.00  0.00    +0.000 A 
BRANCH  17  24
ATOM     23  C   UNL     1       8.686  15.273  18.023  0.00  0.00    +0.000 C 
ATOM     24  O   UNL     1       9.759  14.419  17.627  0.00  0.00    +0.000 OA
ENDBRANCH  17  24
BRANCH  22  25
ATOM     25  O   UNL     1      11.868  12.445  18.252  0.00  0.00    +0.000 OA
ATOM     26  C   UNL     1      12.326  12.761  19.555  0.00  0.00    +0.000 C 
ENDBRANCH  22  25
ENDBRANCH  15  20
ENDBRANCH   1  16
TORSDOF 5
ENDMDL
MODEL 5
REMARK VINA RESULT:      -8.2      2.129      8.289
REMARK  Name = 
REMARK  7 active torsions:
REMARK  status: ('A' for Active; 'I' for Inactive)
REMARK    1  A    between atoms: C_1  and  O_2
REMARK    2  A    between atoms: O_2  and  C_3
REMARK    3  A    between atoms: C_6  and  C_7
REMARK    4  A    between atoms: C_8  and  C_9
REMARK    5  A    between atoms: C_9  and  C_11
REMARK    6  A    between atoms: C_24  and  O_25
REMARK    7  A    between atoms: O_25  and  C_26
REMARK                            x       y       z     vdW  Elec       q    Type
REMARK                         _______ _______ _______ _____ _____    ______ ____
ROOT
ATOM      1  C   UNL     1       1.754  10.121  18.201  0.00  0.00    +0.000 C 
ATOM      2  O   UNL     1       2.341  11.097  17.748  0.00  0.00    +0.000 OA
ENDROOT
BRANCH   1   3
ATOM      3  C   UNL     1       0.565  10.281  19.086  0.00  0.00    +0.000 A 
ATOM      4  C   UNL     1       0.806  10.398  20.474  0.00  0.00    +0.000 A 
ATOM      5  C   UNL     1      -0.130  10.987  21.340  0.00  0.00    +0.000 A 
ATOM      6  C   UNL     1      -1.223  11.583  20.728  0.00  0.00    +0.000 A 
ATOM      7  C   UNL     1      -1.492  11.339  19.395  0.00  0.00    +0.000 A 
ATOM      8  C   UNL     1      -2.729  11.840  19.050  0.00  0.00    +0.000 A 
ATOM      9  C   UNL     1      -3.463  11.238  18.042  0.00  0.00    +0.000 A 
ATOM     10  C   UNL     1      -2.785  10.253  17.297  0.00  0.00    +0.000 A 
ATOM     11  C   UNL     1      -1.414   9.973  17.493  0.00  0.00    +0.000 A 
ATOM     12  C   UNL     1      -0.735  10.532  18.599  0.00  0.00    +0.000 A 
ATOM     13  C   UNL     1      -3.125  12.842  20.070  0.00  0.00    +0.000 C 
ATOM     14  C   UNL     1      -2.356  12.348  21.327  0.00  0.00    +0.000 C 
ENDBRANCH   1   3
BRANCH   1  16
ATOM     15  C   UNL     1       2.450   7.758  18.578  0.00  0.00    +0.000 C 
ATOM     16  C   UNL     1       2.064   8.737  17.727  0.00  0.00    +0.000 C 
BRANCH  15  20
ATOM     17  C   UNL     1       3.453   3.648  17.676  0.00  0.00    +0.000 A 
ATOM     18  C   UNL     1       4.416   4.665  17.629  0.00  0.00    +0.000 A 
ATOM     19  C   UNL     1       4.073   6.002  17.885  0.00  0.00    +0.000 A 
ATOM     20  C   UNL     1       2.753   6.363  18.173  0.00  0.00    +0.000 A 
ATOM     21  C   UNL     1       1.787   5.344  18.105  0.00  0.00    +0.000 A 
ATOM     22  C   UNL     1       2.111   3.998  17.861  0.00  0.00    +0.000 A 
BRANCH  17  24
ATOM     23  C   UNL     1       3.977   1.601  18.728  0.00  0.00    +0.000 C 
ATOM     24  O   UNL     1       3.802   2.333  17.516  0.00  0.00    +0.000 OA
ENDBRANCH  17  24
BRANCH  22  25
ATOM     25  O   UNL     1       0.999   3.199  17.875  0.00  0.00    +0.000 OA
ATOM     26  C   UNL     1       0.613   2.562  19.081  0.00  0.00    +0.000 C 
ENDBRANCH  22  25
ENDBRANCH  15  20
ENDBRANCH   1  16
TORSDOF 5
ENDMDL
MODEL 6
REMARK VINA RESULT:      -8.1      2.541      4.527
REMARK  Name = 
REMARK  7 active torsions:
REMARK  status: ('A' for Active; 'I' for Inactive)
REMARK    1  A    between atoms: C_1  and  O_2
REMARK    2  A    between atoms: O_2  and  C_3
REMARK    3  A    between atoms: C_6  and  C_7
REMARK    4  A    between atoms: C_8  and  C_9
REMARK    5  A    between atoms: C_9  and  C_11
REMARK    6  A    between atoms: C_24  and  O_25
REMARK    7  A    between atoms: O_25  and  C_26
REMARK                            x       y       z     vdW  Elec       q    Type
REMARK                         _______ _______ _______ _____ _____    ______ ____
ROOT
ATOM      1  C   UNL     1       3.144   4.317  20.148  0.00  0.00    +0.000 C 
ATOM      2  O   UNL     1       2.794   3.444  20.933  0.00  0.00    +0.000 OA
ENDROOT
BRANCH   1   3
ATOM      3  C   UNL     1       3.997   3.996  18.968  0.00  0.00    +0.000 A 
ATOM      4  C   UNL     1       3.508   3.025  18.064  0.00  0.00    +0.000 A 
ATOM      5  C   UNL     1       3.960   2.957  16.736  0.00  0.00    +0.000 A 
ATOM      6  C   UNL     1       4.788   3.994  16.329  0.00  0.00    +0.000 A 
ATOM      7  C   UNL     1       5.347   4.844  17.264  0.00  0.00    +0.000 A 
ATOM      8  C   UNL     1       6.301   5.649  16.679  0.00  0.00    +0.000 A 
ATOM      9  C   UNL     1       7.371   6.110  17.426  0.00  0.00    +0.000 A 
ATOM     10  C   UNL     1       7.295   5.872  18.813  0.00  0.00    +0.000 A 
ATOM     11  C   UNL     1       6.155   5.298  19.416  0.00  0.00    +0.000 A 
ATOM     12  C   UNL     1       5.134   4.748  18.607  0.00  0.00    +0.000 A 
ATOM     13  C   UNL     1       6.072   5.649  15.213  0.00  0.00    +0.000 C 
ATOM     14  C   UNL     1       5.386   4.272  14.991  0.00  0.00    +0.000 C 
ENDBRANCH   1   3
BRANCH   1  16
ATOM     15  C   UNL     1       2.611   6.539  19.151  0.00  0.00    +0.000 C 
ATOM     16  C   UNL     1       2.568   5.696  20.210  0.00  0.00    +0.000 C 
BRANCH  15  20
ATOM     17  C   UNL     1       0.715  10.423  18.973  0.00  0.00    +0.000 A 
ATOM     18  C   UNL     1       1.437   9.909  17.887  0.00  0.00    +0.000 A 
ATOM     19  C   UNL     1       2.082   8.665  17.968  0.00  0.00    +0.000 A 
ATOM     20  C   UNL     1       2.042   7.910  19.144  0.00  0.00    +0.000 A 
ATOM     21  C   UNL     1       1.406   8.495  20.253  0.00  0.00    +0.000 A 
ATOM     22  C   UNL     1       0.745   9.735  20.190  0.00  0.00    +0.000 A 
BRANCH  17  24
ATOM     23  C   UNL     1      -1.345  11.448  18.443  0.00  0.00    +0.000 C 
ATOM     24  O   UNL     1       0.011  11.593  18.865  0.00  0.00    +0.000 OA
ENDBRANCH  17  24
BRANCH  22  25
ATOM     25  O   UNL     1       0.182  10.070  21.392  0.00  0.00    +0.000 OA
ATOM     26  C   UNL     1      -0.281   9.046  22.256  0.00  0.00    +0.000 C 
ENDBRANCH  22  25
ENDBRANCH  15  20
ENDBRANCH   1  16
TORSDOF 5
ENDMDL
MODEL 7
REMARK VINA RESULT:      -8.1      2.060      8.419
REMARK  Name = 
REMARK  7 active torsions:
REMARK  status: ('A' for Active; 'I' for Inactive)
REMARK    1  A    between atoms: C_1  and  O_2
REMARK    2  A    between atoms: O_2  and  C_3
REMARK    3  A    between atoms: C_6  and  C_7
REMARK    4  A    between atoms: C_8  and  C_9
REMARK    5  A    between atoms: C_9  and  C_11
REMARK    6  A    between atoms: C_24  and  O_25
REMARK    7  A    between atoms: O_25  and  C_26
REMARK                            x       y       z     vdW  Elec       q    Type
REMARK                         _______ _______ _______ _____ _____    ______ ____
ROOT
ATOM      1  C   UNL     1       1.725   9.856  18.179  0.00  0.00    +0.000 C 
ATOM      2  O   UNL     1       2.281  10.773  17.587  0.00  0.00    +0.000 OA
ENDROOT
BRANCH   1   3
ATOM      3  C   UNL     1       0.569  10.113  19.085  0.00  0.00    +0.000 A 
ATOM      4  C   UNL     1       0.848  10.235  20.466  0.00  0.00    +0.000 A 
ATOM      5  C   UNL     1      -0.026  10.902  21.341  0.00  0.00    +0.000 A 
ATOM      6  C   UNL     1      -1.087  11.565  20.741  0.00  0.00    +0.000 A 
ATOM      7  C   UNL     1      -1.401  11.319  19.418  0.00  0.00    +0.000 A 
ATOM      8  C   UNL     1      -2.607  11.901  19.090  0.00  0.00    +0.000 A 
ATOM      9  C   UNL     1      -3.403  11.337  18.108  0.00  0.00    +0.000 A 
ATOM     10  C   UNL     1      -2.812  10.294  17.366  0.00  0.00    +0.000 A 
ATOM     11  C   UNL     1      -1.461   9.921  17.538  0.00  0.00    +0.000 A 
ATOM     12  C   UNL     1      -0.720  10.448  18.620  0.00  0.00    +0.000 A 
ATOM     13  C   UNL     1      -2.909  12.944  20.099  0.00  0.00    +0.000 C 
ATOM     14  C   UNL     1      -2.150  12.417  21.349  0.00  0.00    +0.000 C 
ENDBRANCH   1   3
BRANCH   1  16
ATOM     15  C   UNL     1       2.352   7.533  18.831  0.00  0.00    +0.000 C 
ATOM     16  C   UNL     1       2.033   8.426  17.865  0.00  0.00    +0.000 C 
BRANCH  15  20
ATOM     17  C   UNL     1       2.949   3.336  17.971  0.00  0.00    +0.000 A 
ATOM     18  C   UNL     1       2.130   3.759  19.026  0.00  0.00    +0.000 A 
ATOM     19  C   UNL     1       1.973   5.122  19.323  0.00  0.00    +0.000 A 
ATOM     20  C   UNL     1       2.649   6.100  18.586  0.00  0.00    +0.000 A 
ATOM     21  C   UNL     1       3.550   5.647  17.606  0.00  0.00    +0.000 A 
ATOM     22  C   UNL     1       3.713   4.288  17.287  0.00  0.00    +0.000 A 
BRANCH  17  24
ATOM     23  C   UNL     1       3.786   1.198  18.521  0.00  0.00    +0.000 C 
ATOM     24  O   UNL     1       3.032   2.014  17.624  0.00  0.00    +0.000 OA
ENDBRANCH  17  24
BRANCH  22  25
ATOM     25  O   UNL     1       4.624   4.110  16.280  0.00  0.00    +0.000 OA
ATOM     26  C   UNL     1       5.402   5.210  15.841  0.00  0.00    +0.000 C 
ENDBRANCH  22  25
ENDBRANCH  15  20
ENDBRANCH   1  16
TORSDOF 5
ENDMDL
MODEL 8
REMARK VINA RESULT:      -8.1      2.773      8.608
REMARK  Name = 
REMARK  7 active torsions:
REMARK  status: ('A' for Active; 'I' for Inactive)
REMARK    1  A    between atoms: C_1  and  O_2
REMARK    2  A    between atoms: O_2  and  C_3
REMARK    3  A    between atoms: C_6  and  C_7
REMARK    4  A    between atoms: C_8  and  C_9
REMARK    5  A    between atoms: C_9  and  C_11
REMARK    6  A    between atoms: C_24  and  O_25
REMARK    7  A    between atoms: O_25  and  C_26
REMARK                            x       y       z     vdW  Elec       q    Type
REMARK                         _______ _______ _______ _____ _____    ______ ____
ROOT
ATOM      1  C   UNL     1       0.578   9.836  18.126  0.00  0.00    +0.000 C 
ATOM      2  O   UNL     1      -0.525   9.767  17.597  0.00  0.00    +0.000 OA
ENDROOT
BRANCH   1   3
ATOM      3  C   UNL     1       0.802  10.687  19.330  0.00  0.00    +0.000 A 
ATOM      4  C   UNL     1       1.450  11.928  19.131  0.00  0.00    +0.000 A 
ATOM      5  C   UNL     1       1.322  12.984  20.048  0.00  0.00    +0.000 A 
ATOM      6  C   UNL     1       0.401  12.788  21.067  0.00  0.00    +0.000 A 
ATOM      7  C   UNL     1      -0.112  11.527  21.307  0.00  0.00    +0.000 A 
ATOM      8  C   UNL     1      -0.824  11.510  22.486  0.00  0.00    +0.000 A 
ATOM      9  C   UNL     1      -0.905  10.344  23.229  0.00  0.00    +0.000 A 
ATOM     10  C   UNL     1      -0.401   9.186  22.605  0.00  0.00    +0.000 A 
ATOM     11  C   UNL     1       0.058   9.190  21.269  0.00  0.00    +0.000 A 
ATOM     12  C   UNL     1       0.221  10.418  20.587  0.00  0.00    +0.000 A 
ATOM     13  C   UNL     1      -1.175  12.907  22.837  0.00  0.00    +0.000 C 
ATOM     14  C   UNL     1      -0.032  13.711  22.157  0.00  0.00    +0.000 C 
ENDBRANCH   1   3
BRANCH   1  16
ATOM     15  C   UNL     1       1.915   7.745  18.364  0.00  0.00    +0.000 C 
ATOM     16  C   UNL     1       1.691   8.920  17.729  0.00  0.00    +0.000 C 
BRANCH  15  20
ATOM     17  C   UNL     1       5.209   5.061  17.556  0.00  0.00    +0.000 A 
ATOM     18  C   UNL     1       5.241   6.403  17.154  0.00  0.00    +0.000 A 
ATOM     19  C   UNL     1       4.151   7.257  17.386  0.00  0.00    +0.000 A 
ATOM     20  C   UNL     1       2.989   6.786  18.005  0.00  0.00    +0.000 A 
ATOM     21  C   UNL     1       2.937   5.413  18.299  0.00  0.00    +0.000 A 
ATOM     22  C   UNL     1       4.021   4.543  18.084  0.00  0.00    +0.000 A 
BRANCH  17  24
ATOM     23  C   UNL     1       7.201   4.627  16.367  0.00  0.00    +0.000 C 
ATOM     24  O   UNL     1       6.304   4.252  17.411  0.00  0.00    +0.000 OA
ENDBRANCH  17  24
BRANCH  22  25
ATOM     25  O   UNL     1       3.730   3.265  18.479  0.00  0.00    +0.000 OA
ATOM     26  C   UNL     1       4.126   2.825  19.767  0.00  0.00    +0.000 C 
ENDBRANCH  22  25
ENDBRANCH  15  20
ENDBRANCH   1  16
TORSDOF 5
ENDMDL
MODEL 9
REMARK VINA RESULT:      -8.0      2.458      4.265
REMARK  Name = 
REMARK  7 active torsions:
REMARK  status: ('A' for Active; 'I' for Inactive)
REMARK    1  A    between atoms: C_1  and  O_2
REMARK    2  A    between atoms: O_2  and  C_3
REMARK    3  A    between atoms: C_6  and  C_7
REMARK    4  A    between atoms: C_8  and  C_9
REMARK    5  A    between atoms: C_9  and  C_11
REMARK    6  A    between atoms: C_24  and  O_25
REMARK    7  A    between atoms: O_25  and  C_26
REMARK                            x       y       z     vdW  Elec       q    Type
REMARK                         _______ _______ _______ _____ _____    ______ ____
ROOT
ATOM      1  C   UNL     1       2.866   5.081  19.995  0.00  0.00    +0.000 C 
ATOM      2  O   UNL     1       2.424   4.383  20.900  0.00  0.00    +0.000 OA
ENDROOT
BRANCH   1   3
ATOM      3  C   UNL     1       3.727   4.500  18.925  0.00  0.00    +0.000 A 
ATOM      4  C   UNL     1       3.134   3.543  18.070  0.00  0.00    +0.000 A 
ATOM      5  C   UNL     1       3.657   3.265  16.796  0.00  0.00    +0.000 A 
ATOM      6  C   UNL     1       4.684   4.096  16.374  0.00  0.00    +0.000 A 
ATOM      7  C   UNL     1       5.321   4.927  17.275  0.00  0.00    +0.000 A 
ATOM      8  C   UNL     1       6.442   5.493  16.706  0.00  0.00    +0.000 A 
ATOM      9  C   UNL     1       7.524   5.835  17.499  0.00  0.00    +0.000 A 
ATOM     10  C   UNL     1       7.311   5.754  18.890  0.00  0.00    +0.000 A 
ATOM     11  C   UNL     1       6.047   5.450  19.441  0.00  0.00    +0.000 A 
ATOM     12  C   UNL     1       5.003   5.005  18.599  0.00  0.00    +0.000 A 
ATOM     13  C   UNL     1       6.319   5.385  15.232  0.00  0.00    +0.000 C 
ATOM     14  C   UNL     1       5.414   4.131  15.072  0.00  0.00    +0.000 C 
ENDBRANCH   1   3
BRANCH   1  16
ATOM     15  C   UNL     1       1.755   7.173  20.773  0.00  0.00    +0.000 C 
ATOM     16  C   UNL     1       2.400   6.489  19.798  0.00  0.00    +0.000 C 
BRANCH  15  20
ATOM     17  C   UNL     1       0.122  11.149  20.289  0.00  0.00    +0.000 A 
ATOM     18  C   UNL     1       0.665  10.443  19.208  0.00  0.00    +0.000 A 
ATOM     19  C   UNL     1       1.229   9.168  19.382  0.00  0.00    +0.000 A 
ATOM     20  C   UNL     1       1.285   8.575  20.646  0.00  0.00    +0.000 A 
ATOM     21  C   UNL     1       0.837   9.347  21.731  0.00  0.00    +0.000 A 
ATOM     22  C   UNL     1       0.259  10.620  21.577  0.00  0.00    +0.000 A 
BRANCH  17  24
ATOM     23  C   UNL     1      -1.469  12.377  19.051  0.00  0.00    +0.000 C 
ATOM     24  O   UNL     1      -0.507  12.351  20.106  0.00  0.00    +0.000 OA
ENDBRANCH  17  24
BRANCH  22  25
ATOM     25  O   UNL     1      -0.124  11.151  22.780  0.00  0.00    +0.000 OA
ATOM     26  C   UNL     1      -1.499  11.190  23.119  0.00  0.00    +0.000 C 
ENDBRANCH  22  25
ENDBRANCH  15  20
ENDBRANCH   1  16
TORSDOF 5
ENDMDL
