MODEL 1
REMARK VINA RESULT:      -7.7      0.000      0.000
REMARK  Name = 
REMARK  8 active torsions:
REMARK  status: ('A' for Active; 'I' for Inactive)
REMARK    1  A    between atoms: C_1  and  C_2
REMARK    2  A    between atoms: C_2  and  C_3
REMARK    3  A    between atoms: C_3  and  C_4
REMARK    4  A    between atoms: C_3  and  C_5
REMARK    5  A    between atoms: C_5  and  O_6
REMARK    6  A    between atoms: O_6  and  C_7
REMARK    7  A    between atoms: N_14  and  C_15
REMARK    8  A    between atoms: C_17  and  C_18
REMARK                            x       y       z     vdW  Elec       q    Type
REMARK                         _______ _______ _______ _____ _____    ______ ____
ROOT
ATOM      1  C   UNL     1       0.926   9.216  19.883  0.00  0.00    +0.000 C 
ATOM      2  O   UNL     1       0.659   9.551  18.737  0.00  0.00    +0.000 OA
ATOM      3  N   UNL     1       1.623   8.089  20.259  0.00  0.00    +0.000 N 
ATOM      4  C   UNL     1       2.451   7.305  19.495  0.00  0.00    +0.000 A 
ATOM      5  N   UNL     1       2.721   6.121  19.944  0.00  0.00    +0.000 NA
ATOM      6  C   UNL     1       3.458   5.259  19.158  0.00  0.00    +0.000 A 
ATOM      7  O   UNL     1       3.758   4.138  19.559  0.00  0.00    +0.000 OA
ATOM      8  N   UNL     1       3.816   5.666  17.857  0.00  0.00    +0.000 N 
ATOM      9  C   UNL     1       3.654   6.981  17.473  0.00  0.00    +0.000 A 
ATOM     10  C   UNL     1       2.998   7.842  18.240  0.00  0.00    +0.000 A 
ATOM     11  F   UNL     1       2.958   9.155  17.969  0.00  0.00    +0.000 F 
ATOM     12  H   UNL     1       1.492   7.797  21.214  0.00  0.00    +0.000 HD
ENDROOT
BRANCH   8  13
ATOM     13  C   UNL     1       4.517   4.699  17.000  0.00  0.00    +0.000 C 
ATOM     14  O   UNL     1       5.627   4.119  17.728  0.00  0.00    +0.000 OA
ATOM     15  C   UNL     1       6.861   4.669  17.233  0.00  0.00    +0.000 C 
ATOM     16  C   UNL     1       7.643   5.288  18.384  0.00  0.00    +0.000 C 
ATOM     17  C   UNL     1       6.501   5.692  16.161  0.00  0.00    +0.000 C 
ATOM     18  O   UNL     1       7.272   5.528  14.987  0.00  0.00    +0.000 OA
ATOM     19  C   UNL     1       6.608   4.622  14.206  0.00  0.00    +0.000 C 
ATOM     20  O   UNL     1       7.068   4.118  13.197  0.00  0.00    +0.000 OA
ATOM     21  O   UNL     1       5.376   4.342  14.722  0.00  0.00    +0.000 OA
ATOM     22  C   UNL     1       5.126   5.311  15.738  0.00  0.00    +0.000 C 
ENDBRANCH   8  13
BRANCH   1  23
ATOM     23  O   UNL     1       0.538   9.915  20.980  0.00  0.00    +0.000 OA
BRANCH  23  24
ATOM     24  C   UNL     1       0.594  11.339  20.800  0.00  0.00    +0.000 C 
BRANCH  24  25
ATOM     25  C   UNL     1      -0.528  12.143  21.483  0.00  0.00    +0.000 C 
ATOM     26  C   UNL     1       0.048  13.518  21.853  0.00  0.00    +0.000 C 
BRANCH  25  28
ATOM     27  C   UNL     1      -2.423  11.966  23.209  0.00  0.00    +0.000 C 
ATOM     28  C   UNL     1      -1.089  11.412  22.718  0.00  0.00    +0.000 C 
ENDBRANCH  25  28
ENDBRANCH  24  25
ENDBRANCH  23  24
ENDBRANCH   1  23
TORSDOF 5
ENDMDL
MODEL 2
REMARK VINA RESULT:      -7.7      2.820      8.494
REMARK  Name = 
REMARK  8 active torsions:
REMARK  status: ('A' for Active; 'I' for Inactive)
REMARK    1  A    between atoms: C_1  and  C_2
REMARK    2  A    between atoms: C_2  and  C_3
REMARK    3  A    between atoms: C_3  and  C_4
REMARK    4  A    between atoms: C_3  and  C_5
REMARK    5  A    between atoms: C_5  and  O_6
REMARK    6  A    between atoms: O_6  and  C_7
REMARK    7  A    between atoms: N_14  and  C_15
REMARK    8  A    between atoms: C_17  and  C_18
REMARK                            x       y       z     vdW  Elec       q    Type
REMARK                         _______ _______ _______ _____ _____    ______ ____
ROOT
ATOM      1  C   UNL     1       3.914   5.921  18.609  0.00  0.00    +0.000 C 
ATOM      2  O   UNL     1       4.453   6.740  17.877  0.00  0.00    +0.000 OA
ATOM      3  N   UNL     1       2.985   6.193  19.589  0.00  0.00    +0.000 N 
ATOM      4  C   UNL     1       2.213   7.318  19.742  0.00  0.00    +0.000 A 
ATOM      5  N   UNL     1       1.675   7.510  20.904  0.00  0.00    +0.000 NA
ATOM      6  C   UNL     1       0.983   8.681  21.136  0.00  0.00    +0.000 A 
ATOM      7  O   UNL     1       0.436   8.888  22.215  0.00  0.00    +0.000 OA
ATOM      8  N   UNL     1       0.962   9.667  20.130  0.00  0.00    +0.000 N 
ATOM      9  C   UNL     1       1.403   9.368  18.857  0.00  0.00    +0.000 A 
ATOM     10  C   UNL     1       2.020   8.223  18.598  0.00  0.00    +0.000 A 
ATOM     11  F   UNL     1       2.321   7.838  17.349  0.00  0.00    +0.000 F 
ATOM     12  H   UNL     1       2.875   5.481  20.292  0.00  0.00    +0.000 HD
ENDROOT
BRANCH   8  13
ATOM     13  C   UNL     1       0.302  10.946  20.431  0.00  0.00    +0.000 C 
ATOM     14  O   UNL     1      -1.132  10.799  20.288  0.00  0.00    +0.000 OA
ATOM     15  C   UNL     1      -1.560  11.454  19.081  0.00  0.00    +0.000 C 
ATOM     16  C   UNL     1      -2.310  10.464  18.200  0.00  0.00    +0.000 C 
ATOM     17  C   UNL     1      -0.312  12.006  18.399  0.00  0.00    +0.000 C 
ATOM     18  O   UNL     1      -0.476  13.350  17.992  0.00  0.00    +0.000 OA
ATOM     19  C   UNL     1      -0.118  14.128  19.059  0.00  0.00    +0.000 C 
ATOM     20  O   UNL     1      -0.295  15.332  19.120  0.00  0.00    +0.000 OA
ATOM     21  O   UNL     1       0.439  13.373  20.050  0.00  0.00    +0.000 OA
ATOM     22  C   UNL     1       0.696  12.087  19.491  0.00  0.00    +0.000 C 
ENDBRANCH   8  13
BRANCH   1  23
ATOM     23  O   UNL     1       4.179   4.590  18.572  0.00  0.00    +0.000 OA
BRANCH  23  24
ATOM     24  C   UNL     1       3.633   3.867  19.687  0.00  0.00    +0.000 C 
BRANCH  24  25
ATOM     25  C   UNL     1       3.001   2.503  19.353  0.00  0.00    +0.000 C 
ATOM     26  C   UNL     1       3.325   2.191  17.884  0.00  0.00    +0.000 C 
BRANCH  25  28
ATOM     27  C   UNL     1       1.030   3.513  20.655  0.00  0.00    +0.000 C 
ATOM     28  C   UNL     1       1.482   2.495  19.612  0.00  0.00    +0.000 C 
ENDBRANCH  25  28
ENDBRANCH  24  25
ENDBRANCH  23  24
ENDBRANCH   1  23
TORSDOF 5
ENDMDL
MODEL 3
REMARK VINA RESULT:      -7.7      3.385      9.026
REMARK  Name = 
REMARK  8 active torsions:
REMARK  status: ('A' for Active; 'I' for Inactive)
REMARK    1  A    between atoms: C_1  and  C_2
REMARK    2  A    between atoms: C_2  and  C_3
REMARK    3  A    between atoms: C_3  and  C_4
REMARK    4  A    between atoms: C_3  and  C_5
REMARK    5  A    between atoms: C_5  and  O_6
REMARK    6  A    between atoms: O_6  and  C_7
REMARK    7  A    between atoms: N_14  and  C_15
REMARK    8  A    between atoms: C_17  and  C_18
REMARK                            x       y       z     vdW  Elec       q    Type
REMARK                         _______ _______ _______ _____ _____    ______ ____
ROOT
ATOM      1  C   UNL     1       2.857   6.484  19.232  0.00  0.00    +0.000 C 
ATOM      2  O   UNL     1       3.376   7.158  18.353  0.00  0.00    +0.000 OA
ATOM      3  N   UNL     1       2.140   6.962  20.307  0.00  0.00    +0.000 N 
ATOM      4  C   UNL     1       1.557   8.195  20.461  0.00  0.00    +0.000 A 
ATOM      5  N   UNL     1       1.241   8.551  21.665  0.00  0.00    +0.000 NA
ATOM      6  C   UNL     1       0.754   9.825  21.881  0.00  0.00    +0.000 A 
ATOM      7  O   UNL     1       0.418  10.190  23.003  0.00  0.00    +0.000 OA
ATOM      8  N   UNL     1       0.702  10.723  20.797  0.00  0.00    +0.000 N 
ATOM      9  C   UNL     1       0.892  10.267  19.509  0.00  0.00    +0.000 A 
ATOM     10  C   UNL     1       1.304   9.028  19.275  0.00  0.00    +0.000 A 
ATOM     11  F   UNL     1       1.350   8.509  18.039  0.00  0.00    +0.000 F 
ATOM     12  H   UNL     1       2.051   6.329  21.085  0.00  0.00    +0.000 HD
ENDROOT
BRANCH   8  13
ATOM     13  C   UNL     1       0.273  12.103  21.065  0.00  0.00    +0.000 C 
ATOM     14  O   UNL     1      -1.174  12.177  21.030  0.00  0.00    +0.000 OA
ATOM     15  C   UNL     1      -1.588  12.832  19.818  0.00  0.00    +0.000 C 
ATOM     16  C   UNL     1      -2.547  11.931  19.052  0.00  0.00    +0.000 C 
ATOM     17  C   UNL     1      -0.327  13.146  19.019  0.00  0.00    +0.000 C 
ATOM     18  O   UNL     1      -0.313  14.478  18.545  0.00  0.00    +0.000 OA
ATOM     19  C   UNL     1       0.241  15.241  19.535  0.00  0.00    +0.000 C 
ATOM     20  O   UNL     1       0.258  16.460  19.536  0.00  0.00    +0.000 OA
ATOM     21  O   UNL     1       0.751  14.457  20.529  0.00  0.00    +0.000 OA
ATOM     22  C   UNL     1       0.763  13.120  20.033  0.00  0.00    +0.000 C 
ENDBRANCH   8  13
BRANCH   1  23
ATOM     23  O   UNL     1       2.937   5.130  19.287  0.00  0.00    +0.000 OA
BRANCH  23  24
ATOM     24  C   UNL     1       2.004   4.466  18.420  0.00  0.00    +0.000 C 
BRANCH  24  25
ATOM     25  C   UNL     1       1.259   3.265  19.034  0.00  0.00    +0.000 C 
ATOM     26  C   UNL     1       0.921   3.626  20.488  0.00  0.00    +0.000 C 
BRANCH  25  28
ATOM     27  C   UNL     1       3.126   1.974  17.830  0.00  0.00    +0.000 C 
ATOM     28  C   UNL     1       2.089   1.971  18.950  0.00  0.00    +0.000 C 
ENDBRANCH  25  28
ENDBRANCH  24  25
ENDBRANCH  23  24
ENDBRANCH   1  23
TORSDOF 5
ENDMDL
MODEL 4
REMARK VINA RESULT:      -7.6      2.798      8.509
REMARK  Name = 
REMARK  8 active torsions:
REMARK  status: ('A' for Active; 'I' for Inactive)
REMARK    1  A    between atoms: C_1  and  C_2
REMARK    2  A    between atoms: C_2  and  C_3
REMARK    3  A    between atoms: C_3  and  C_4
REMARK    4  A    between atoms: C_3  and  C_5
REMARK    5  A    between atoms: C_5  and  O_6
REMARK    6  A    between atoms: O_6  and  C_7
REMARK    7  A    between atoms: N_14  and  C_15
REMARK    8  A    between atoms: C_17  and  C_18
REMARK                            x       y       z     vdW  Elec       q    Type
REMARK                         _______ _______ _______ _____ _____    ______ ____
ROOT
ATOM      1  C   UNL     1       3.933   5.799  18.967  0.00  0.00    +0.000 C 
ATOM      2  O   UNL     1       4.554   6.566  18.244  0.00  0.00    +0.000 OA
ATOM      3  N   UNL     1       2.906   6.137  19.819  0.00  0.00    +0.000 N 
ATOM      4  C   UNL     1       2.129   7.268  19.810  0.00  0.00    +0.000 A 
ATOM      5  N   UNL     1       1.469   7.539  20.891  0.00  0.00    +0.000 NA
ATOM      6  C   UNL     1       0.763   8.723  20.966  0.00  0.00    +0.000 A 
ATOM      7  O   UNL     1       0.103   9.003  21.962  0.00  0.00    +0.000 OA
ATOM      8  N   UNL     1       0.857   9.637  19.898  0.00  0.00    +0.000 N 
ATOM      9  C   UNL     1       1.433   9.252  18.704  0.00  0.00    +0.000 A 
ATOM     10  C   UNL     1       2.067   8.092  18.593  0.00  0.00    +0.000 A 
ATOM     11  F   UNL     1       2.499   7.623  17.413  0.00  0.00    +0.000 F 
ATOM     12  H   UNL     1       2.715   5.474  20.553  0.00  0.00    +0.000 HD
ENDROOT
BRANCH   8  13
ATOM     13  C   UNL     1       0.177  10.933  20.037  0.00  0.00    +0.000 C 
ATOM     14  O   UNL     1       0.402  11.729  18.848  0.00  0.00    +0.000 OA
ATOM     15  C   UNL     1       1.343  12.776  19.146  0.00  0.00    +0.000 C 
ATOM     16  C   UNL     1       2.518  12.696  18.181  0.00  0.00    +0.000 C 
ATOM     17  C   UNL     1       1.773  12.597  20.598  0.00  0.00    +0.000 C 
ATOM     18  O   UNL     1       1.727  13.811  21.322  0.00  0.00    +0.000 OA
ATOM     19  C   UNL     1       0.456  13.925  21.815  0.00  0.00    +0.000 C 
ATOM     20  O   UNL     1       0.013  14.927  22.346  0.00  0.00    +0.000 OA
ATOM     21  O   UNL     1      -0.252  12.776  21.610  0.00  0.00    +0.000 OA
ATOM     22  C   UNL     1       0.685  11.782  21.204  0.00  0.00    +0.000 C 
ENDBRANCH   8  13
BRANCH   1  23
ATOM     23  O   UNL     1       4.193   4.469  19.051  0.00  0.00    +0.000 OA
BRANCH  23  24
ATOM     24  C   UNL     1       3.229   3.653  18.366  0.00  0.00    +0.000 C 
BRANCH  24  25
ATOM     25  C   UNL     1       2.590   2.530  19.204  0.00  0.00    +0.000 C 
ATOM     26  C   UNL     1       1.072   2.587  18.973  0.00  0.00    +0.000 C 
BRANCH  25  28
ATOM     27  C   UNL     1       1.766   3.082  21.574  0.00  0.00    +0.000 C 
ATOM     28  C   UNL     1       2.941   2.656  20.698  0.00  0.00    +0.000 C 
ENDBRANCH  25  28
ENDBRANCH  24  25
ENDBRANCH  23  24
ENDBRANCH   1  23
TORSDOF 5
ENDMDL
MODEL 5
REMARK VINA RESULT:      -7.5      0.938      1.495
REMARK  Name = 
REMARK  8 active torsions:
REMARK  status: ('A' for Active; 'I' for Inactive)
REMARK    1  A    between atoms: C_1  and  C_2
REMARK    2  A    between atoms: C_2  and  C_3
REMARK    3  A    between atoms: C_3  and  C_4
REMARK    4  A    between atoms: C_3  and  C_5
REMARK    5  A    between atoms: C_5  and  O_6
REMARK    6  A    between atoms: O_6  and  C_7
REMARK    7  A    between atoms: N_14  and  C_15
REMARK    8  A    between atoms: C_17  and  C_18
REMARK                            x       y       z     vdW  Elec       q    Type
REMARK                         _______ _______ _______ _____ _____    ______ ____
ROOT
ATOM      1  C   UNL     1       0.710   9.453  19.648  0.00  0.00    +0.000 C 
ATOM      2  O   UNL     1       0.491   9.705  18.471  0.00  0.00    +0.000 OA
ATOM      3  N   UNL     1       1.402   8.365  20.132  0.00  0.00    +0.000 N 
ATOM      4  C   UNL     1       2.271   7.541  19.461  0.00  0.00    +0.000 A 
ATOM      5  N   UNL     1       2.533   6.394  20.003  0.00  0.00    +0.000 NA
ATOM      6  C   UNL     1       3.313   5.490  19.311  0.00  0.00    +0.000 A 
ATOM      7  O   UNL     1       3.605   4.404  19.802  0.00  0.00    +0.000 OA
ATOM      8  N   UNL     1       3.724   5.811  18.002  0.00  0.00    +0.000 N 
ATOM      9  C   UNL     1       3.566   7.094  17.521  0.00  0.00    +0.000 A 
ATOM     10  C   UNL     1       2.868   7.998  18.197  0.00  0.00    +0.000 A 
ATOM     11  F   UNL     1       2.826   9.288  17.834  0.00  0.00    +0.000 F 
ATOM     12  H   UNL     1       1.231   8.137  21.098  0.00  0.00    +0.000 HD
ENDROOT
BRANCH   8  13
ATOM     13  C   UNL     1       4.472   4.796  17.246  0.00  0.00    +0.000 C 
ATOM     14  O   UNL     1       5.598   4.336  18.033  0.00  0.00    +0.000 OA
ATOM     15  C   UNL     1       6.813   4.887  17.494  0.00  0.00    +0.000 C 
ATOM     16  C   UNL     1       7.558   5.646  18.585  0.00  0.00    +0.000 C 
ATOM     17  C   UNL     1       6.422   5.788  16.326  0.00  0.00    +0.000 C 
ATOM     18  O   UNL     1       7.210   5.544  15.178  0.00  0.00    +0.000 OA
ATOM     19  C   UNL     1       6.592   4.541  14.484  0.00  0.00    +0.000 C 
ATOM     20  O   UNL     1       7.082   3.962  13.530  0.00  0.00    +0.000 OA
ATOM     21  O   UNL     1       5.368   4.260  15.017  0.00  0.00    +0.000 OA
ATOM     22  C   UNL     1       5.068   5.310  15.934  0.00  0.00    +0.000 C 
ENDBRANCH   8  13
BRANCH   1  23
ATOM     23  O   UNL     1       0.267  10.222  20.676  0.00  0.00    +0.000 OA
BRANCH  23  24
ATOM     24  C   UNL     1       0.806  11.553  20.669  0.00  0.00    +0.000 C 
BRANCH  24  25
ATOM     25  C   UNL     1      -0.205  12.681  20.389  0.00  0.00    +0.000 C 
ATOM     26  C   UNL     1      -1.607  12.129  20.687  0.00  0.00    +0.000 C 
BRANCH  25  28
ATOM     27  C   UNL     1      -0.147  14.725  18.834  0.00  0.00    +0.000 C 
ATOM     28  C   UNL     1      -0.097  13.204  18.944  0.00  0.00    +0.000 C 
ENDBRANCH  25  28
ENDBRANCH  24  25
ENDBRANCH  23  24
ENDBRANCH   1  23
TORSDOF 5
ENDMDL
MODEL 6
REMARK VINA RESULT:      -7.5      3.411      9.798
REMARK  Name = 
REMARK  8 active torsions:
REMARK  status: ('A' for Active; 'I' for Inactive)
REMARK    1  A    between atoms: C_1  and  C_2
REMARK    2  A    between atoms: C_2  and  C_3
REMARK    3  A    between atoms: C_3  and  C_4
REMARK    4  A    between atoms: C_3  and  C_5
REMARK    5  A    between atoms: C_5  and  O_6
REMARK    6  A    between atoms: O_6  and  C_7
REMARK    7  A    between atoms: N_14  and  C_15
REMARK    8  A    between atoms: C_17  and  C_18
REMARK                            x       y       z     vdW  Elec       q    Type
REMARK                         _______ _______ _______ _____ _____    ______ ____
ROOT
ATOM      1  C   UNL     1       2.096   8.363  18.340  0.00  0.00    +0.000 C 
ATOM      2  O   UNL     1       2.094   9.396  17.683  0.00  0.00    +0.000 OA
ATOM      3  N   UNL     1       1.708   8.236  19.655  0.00  0.00    +0.000 N 
ATOM      4  C   UNL     1       0.934   9.089  20.402  0.00  0.00    +0.000 A 
ATOM      5  N   UNL     1       0.983   8.955  21.689  0.00  0.00    +0.000 NA
ATOM      6  C   UNL     1       0.309   9.862  22.482  0.00  0.00    +0.000 A 
ATOM      7  O   UNL     1       0.309   9.753  23.704  0.00  0.00    +0.000 OA
ATOM      8  N   UNL     1      -0.336  10.953  21.867  0.00  0.00    +0.000 N 
ATOM      9  C   UNL     1      -0.504  10.976  20.497  0.00  0.00    +0.000 A 
ATOM     10  C   UNL     1       0.088  10.080  19.719  0.00  0.00    +0.000 A 
ATOM     11  F   UNL     1      -0.178   9.982  18.408  0.00  0.00    +0.000 F 
ATOM     12  H   UNL     1       2.054   7.418  20.132  0.00  0.00    +0.000 HD
ENDROOT
BRANCH   8  13
ATOM     13  C   UNL     1      -0.967  11.959  22.733  0.00  0.00    +0.000 C 
ATOM     14  O   UNL     1      -2.399  11.960  22.514  0.00  0.00    +0.000 OA
ATOM     15  C   UNL     1      -2.765  13.130  21.762  0.00  0.00    +0.000 C 
ATOM     16  C   UNL     1      -3.514  12.715  20.503  0.00  0.00    +0.000 C 
ATOM     17  C   UNL     1      -1.478  13.887  21.448  0.00  0.00    +0.000 C 
ATOM     18  O   UNL     1      -1.587  15.268  21.732  0.00  0.00    +0.000 OA
ATOM     19  C   UNL     1      -1.244  15.425  23.047  0.00  0.00    +0.000 C 
ATOM     20  O   UNL     1      -1.386  16.459  23.674  0.00  0.00    +0.000 OA
ATOM     21  O   UNL     1      -0.744  14.265  23.563  0.00  0.00    +0.000 OA
ATOM     22  C   UNL     1      -0.507  13.392  22.461  0.00  0.00    +0.000 C 
ENDBRANCH   8  13
BRANCH   1  23
ATOM     23  O   UNL     1       2.517   7.166  17.857  0.00  0.00    +0.000 OA
BRANCH  23  24
ATOM     24  C   UNL     1       3.214   6.371  18.830  0.00  0.00    +0.000 C 
BRANCH  24  25
ATOM     25  C   UNL     1       2.702   4.928  19.003  0.00  0.00    +0.000 C 
ATOM     26  C   UNL     1       1.769   4.624  17.821  0.00  0.00    +0.000 C 
BRANCH  25  28
ATOM     27  C   UNL     1       0.987   3.579  20.358  0.00  0.00    +0.000 C 
ATOM     28  C   UNL     1       1.988   4.730  20.353  0.00  0.00    +0.000 C 
ENDBRANCH  25  28
ENDBRANCH  24  25
ENDBRANCH  23  24
ENDBRANCH   1  23
TORSDOF 5
ENDMDL
MODEL 7
REMARK VINA RESULT:      -7.5      2.806      9.214
REMARK  Name = 
REMARK  8 active torsions:
REMARK  status: ('A' for Active; 'I' for Inactive)
REMARK    1  A    between atoms: C_1  and  C_2
REMARK    2  A    between atoms: C_2  and  C_3
REMARK    3  A    between atoms: C_3  and  C_4
REMARK    4  A    between atoms: C_3  and  C_5
REMARK    5  A    between atoms: C_5  and  O_6
REMARK    6  A    between atoms: O_6  and  C_7
REMARK    7  A    between atoms: N_14  and  C_15
REMARK    8  A    between atoms: C_17  and  C_18
REMARK                            x       y       z     vdW  Elec       q    Type
REMARK                         _______ _______ _______ _____ _____    ______ ____
ROOT
ATOM      1  C   UNL     1       2.791   6.528  19.206  0.00  0.00    +0.000 C 
ATOM      2  O   UNL     1       3.331   7.206  18.341  0.00  0.00    +0.000 OA
ATOM      3  N   UNL     1       2.075   7.004  20.282  0.00  0.00    +0.000 N 
ATOM      4  C   UNL     1       1.514   8.246  20.450  0.00  0.00    +0.000 A 
ATOM      5  N   UNL     1       1.195   8.589  21.657  0.00  0.00    +0.000 NA
ATOM      6  C   UNL     1       0.731   9.869  21.888  0.00  0.00    +0.000 A 
ATOM      7  O   UNL     1       0.393  10.224  23.013  0.00  0.00    +0.000 OA
ATOM      8  N   UNL     1       0.706  10.785  20.818  0.00  0.00    +0.000 N 
ATOM      9  C   UNL     1       0.899  10.344  19.524  0.00  0.00    +0.000 A 
ATOM     10  C   UNL     1       1.289   9.101  19.275  0.00  0.00    +0.000 A 
ATOM     11  F   UNL     1       1.334   8.601  18.032  0.00  0.00    +0.000 F 
ATOM     12  H   UNL     1       1.966   6.361  21.049  0.00  0.00    +0.000 HD
ENDROOT
BRANCH   8  13
ATOM     13  C   UNL     1       0.302  12.169  21.103  0.00  0.00    +0.000 C 
ATOM     14  O   UNL     1      -1.144  12.259  21.120  0.00  0.00    +0.000 OA
ATOM     15  C   UNL     1      -1.594  12.921  19.924  0.00  0.00    +0.000 C 
ATOM     16  C   UNL     1      -2.589  12.032  19.191  0.00  0.00    +0.000 C 
ATOM     17  C   UNL     1      -0.358  13.223  19.083  0.00  0.00    +0.000 C 
ATOM     18  O   UNL     1      -0.347  14.556  18.611  0.00  0.00    +0.000 OA
ATOM     19  C   UNL     1       0.251  15.311  19.582  0.00  0.00    +0.000 C 
ATOM     20  O   UNL     1       0.280  16.529  19.585  0.00  0.00    +0.000 OA
ATOM     21  O   UNL     1       0.787  14.519  20.556  0.00  0.00    +0.000 OA
ATOM     22  C   UNL     1       0.766  13.183  20.057  0.00  0.00    +0.000 C 
ENDBRANCH   8  13
BRANCH   1  23
ATOM     23  O   UNL     1       2.844   5.172  19.241  0.00  0.00    +0.000 OA
BRANCH  23  24
ATOM     24  C   UNL     1       2.089   4.543  18.193  0.00  0.00    +0.000 C 
BRANCH  24  25
ATOM     25  C   UNL     1       2.873   3.560  17.304  0.00  0.00    +0.000 C 
ATOM     26  C   UNL     1       2.475   2.137  17.727  0.00  0.00    +0.000 C 
BRANCH  25  28
ATOM     27  C   UNL     1       5.022   4.356  16.143  0.00  0.00    +0.000 C 
ATOM     28  C   UNL     1       4.394   3.778  17.408  0.00  0.00    +0.000 C 
ENDBRANCH  25  28
ENDBRANCH  24  25
ENDBRANCH  23  24
ENDBRANCH   1  23
TORSDOF 5
ENDMDL
MODEL 8
REMARK VINA RESULT:      -7.5      2.086      2.970
REMARK  Name = 
REMARK  8 active torsions:
REMARK  status: ('A' for Active; 'I' for Inactive)
REMARK    1  A    between atoms: C_1  and  C_2
REMARK    2  A    between atoms: C_2  and  C_3
REMARK    3  A    between atoms: C_3  and  C_4
REMARK    4  A    between atoms: C_3  and  C_5
REMARK    5  A    between atoms: C_5  and  O_6
REMARK    6  A    between atoms: O_6  and  C_7
REMARK    7  A    between atoms: N_14  and  C_15
REMARK    8  A    between atoms: C_17  and  C_18
REMARK                            x       y       z     vdW  Elec       q    Type
REMARK                         _______ _______ _______ _____ _____    ______ ____
ROOT
ATOM      1  C   UNL     1       0.770   9.826  21.906  0.00  0.00    +0.000 C 
ATOM      2  O   UNL     1       1.409   9.196  22.738  0.00  0.00    +0.000 OA
ATOM      3  N   UNL     1       0.925   9.755  20.539  0.00  0.00    +0.000 N 
ATOM      4  C   UNL     1       1.532   8.771  19.800  0.00  0.00    +0.000 A 
ATOM      5  N   UNL     1       1.869   9.069  18.586  0.00  0.00    +0.000 NA
ATOM      6  C   UNL     1       2.580   8.148  17.844  0.00  0.00    +0.000 A 
ATOM      7  O   UNL     1       2.894   8.382  16.680  0.00  0.00    +0.000 OA
ATOM      8  N   UNL     1       2.993   6.951  18.463  0.00  0.00    +0.000 N 
ATOM      9  C   UNL     1       2.483   6.597  19.695  0.00  0.00    +0.000 A 
ATOM     10  C   UNL     1       1.749   7.446  20.402  0.00  0.00    +0.000 A 
ATOM     11  F   UNL     1       1.115   7.081  21.526  0.00  0.00    +0.000 F 
ATOM     12  H   UNL     1       0.560  10.538  20.020  0.00  0.00    +0.000 HD
ENDROOT
BRANCH   8  13
ATOM     13  C   UNL     1       3.831   6.026  17.686  0.00  0.00    +0.000 C 
ATOM     14  O   UNL     1       3.377   4.666  17.896  0.00  0.00    +0.000 OA
ATOM     15  C   UNL     1       4.309   3.978  18.748  0.00  0.00    +0.000 C 
ATOM     16  C   UNL     1       3.578   3.418  19.960  0.00  0.00    +0.000 C 
ATOM     17  C   UNL     1       5.391   4.981  19.137  0.00  0.00    +0.000 C 
ATOM     18  O   UNL     1       6.692   4.451  18.976  0.00  0.00    +0.000 OA
ATOM     19  C   UNL     1       7.061   4.702  17.684  0.00  0.00    +0.000 C 
ATOM     20  O   UNL     1       8.054   4.239  17.150  0.00  0.00    +0.000 OA
ATOM     21  O   UNL     1       6.159   5.520  17.068  0.00  0.00    +0.000 OA
ATOM     22  C   UNL     1       5.307   6.035  18.089  0.00  0.00    +0.000 C 
ENDBRANCH   8  13
BRANCH   1  23
ATOM     23  O   UNL     1      -0.194  10.728  22.222  0.00  0.00    +0.000 OA
BRANCH  23  24
ATOM     24  C   UNL     1      -0.767  11.377  21.077  0.00  0.00    +0.000 C 
BRANCH  24  25
ATOM     25  C   UNL     1      -1.025  12.889  21.226  0.00  0.00    +0.000 C 
ATOM     26  C   UNL     1       0.336  13.572  21.424  0.00  0.00    +0.000 C 
BRANCH  25  28
ATOM     27  C   UNL     1      -1.333  13.928  23.555  0.00  0.00    +0.000 C 
ATOM     28  C   UNL     1      -1.988  13.195  22.388  0.00  0.00    +0.000 C 
ENDBRANCH  25  28
ENDBRANCH  24  25
ENDBRANCH  23  24
ENDBRANCH   1  23
TORSDOF 5
ENDMDL
MODEL 9
REMARK VINA RESULT:      -7.5      3.508      8.988
REMARK  Name = 
REMARK  8 active torsions:
REMARK  status: ('A' for Active; 'I' for Inactive)
REMARK    1  A    between atoms: C_1  and  C_2
REMARK    2  A    between atoms: C_2  and  C_3
REMARK    3  A    between atoms: C_3  and  C_4
REMARK    4  A    between atoms: C_3  and  C_5
REMARK    5  A    between atoms: C_5  and  O_6
REMARK    6  A    between atoms: O_6  and  C_7
REMARK    7  A    between atoms: N_14  and  C_15
REMARK    8  A    between atoms: C_17  and  C_18
REMARK                            x       y       z     vdW  Elec       q    Type
REMARK                         _______ _______ _______ _____ _____    ______ ____
ROOT
ATOM      1  C   UNL     1       2.687   6.641  19.085  0.00  0.00    +0.000 C 
ATOM      2  O   UNL     1       3.209   7.374  18.256  0.00  0.00    +0.000 OA
ATOM      3  N   UNL     1       2.000   7.044  20.208  0.00  0.00    +0.000 N 
ATOM      4  C   UNL     1       1.449   8.273  20.475  0.00  0.00    +0.000 A 
ATOM      5  N   UNL     1       1.161   8.534  21.710  0.00  0.00    +0.000 NA
ATOM      6  C   UNL     1       0.709   9.796  22.040  0.00  0.00    +0.000 A 
ATOM      7  O   UNL     1       0.400  10.074  23.194  0.00  0.00    +0.000 OA
ATOM      8  N   UNL     1       0.663  10.783  21.035  0.00  0.00    +0.000 N 
ATOM      9  C   UNL     1       0.821  10.432  19.711  0.00  0.00    +0.000 A 
ATOM     10  C   UNL     1       1.199   9.208  19.367  0.00  0.00    +0.000 A 
ATOM     11  F   UNL     1       1.212   8.794  18.092  0.00  0.00    +0.000 F 
ATOM     12  H   UNL     1       1.907   6.350  20.932  0.00  0.00    +0.000 HD
ENDROOT
BRANCH   8  13
ATOM     13  C   UNL     1       0.271  12.146  21.425  0.00  0.00    +0.000 C 
ATOM     14  O   UNL     1      -0.784  12.616  20.552  0.00  0.00    +0.000 OA
ATOM     15  C   UNL     1      -0.248  13.588  19.637  0.00  0.00    +0.000 C 
ATOM     16  C   UNL     1      -0.534  13.154  18.205  0.00  0.00    +0.000 C 
ATOM     17  C   UNL     1       1.247  13.700  19.920  0.00  0.00    +0.000 C 
ATOM     18  O   UNL     1       1.672  15.044  20.021  0.00  0.00    +0.000 OA
ATOM     19  C   UNL     1       1.496  15.413  21.326  0.00  0.00    +0.000 C 
ATOM     20  O   UNL     1       1.602  16.555  21.737  0.00  0.00    +0.000 OA
ATOM     21  O   UNL     1       1.165  14.338  22.098  0.00  0.00    +0.000 OA
ATOM     22  C   UNL     1       1.396  13.176  21.305  0.00  0.00    +0.000 C 
ENDBRANCH   8  13
BRANCH   1  23
ATOM     23  O   UNL     1       2.735   5.285  19.026  0.00  0.00    +0.000 OA
BRANCH  23  24
ATOM     24  C   UNL     1       2.505   4.650  20.294  0.00  0.00    +0.000 C 
BRANCH  24  25
ATOM     25  C   UNL     1       1.291   3.704  20.356  0.00  0.00    +0.000 C 
ATOM     26  C   UNL     1       1.508   2.751  21.541  0.00  0.00    +0.000 C 
BRANCH  25  28
ATOM     27  C   UNL     1       2.175   1.889  18.767  0.00  0.00    +0.000 C 
ATOM     28  C   UNL     1       1.095   2.933  19.037  0.00  0.00    +0.000 C 
ENDBRANCH  25  28
ENDBRANCH  24  25
ENDBRANCH  23  24
ENDBRANCH   1  23
TORSDOF 5
ENDMDL
