MODEL 1
REMARK VINA RESULT:      -9.6      0.000      0.000
REMARK  Name = 
REMARK  5 active torsions:
REMARK  status: ('A' for Active; 'I' for Inactive)
REMARK    1  A    between atoms: C_2  and  C_12
REMARK    2  A    between atoms: N_3  and  C_4
REMARK    3  A    between atoms: C_4  and  C_5
REMARK    4  A    between atoms: C_5  and  C_6
REMARK    5  A    between atoms: C_30  and  C_31
REMARK                            x       y       z     vdW  Elec       q    Type
REMARK                         _______ _______ _______ _____ _____    ______ ____
ROOT
ATOM      1  C   UNL     1       3.102   6.676  18.296  0.00  0.00    +0.000 A 
ATOM      2  C   UNL     1       3.167   7.943  17.667  0.00  0.00    +0.000 A 
ATOM      3  N   UNL     1       2.363   8.852  18.213  0.00  0.00    +0.000 NA
ATOM      4  N   UNL     1       1.868   8.233  19.326  0.00  0.00    +0.000 N 
ATOM      5  C   UNL     1       1.101   8.958  20.312  0.00  0.00    +0.000 A 
ATOM      6  N   UNL     1       0.690   8.275  21.398  0.00  0.00    +0.000 NA
ATOM      7  C   UNL     1      -0.025   8.937  22.312  0.00  0.00    +0.000 A 
ATOM      8  C   UNL     1      -0.402  10.255  22.163  0.00  0.00    +0.000 A 
ATOM      9  C   UNL     1       0.029  10.882  21.014  0.00  0.00    +0.000 A 
ATOM     10  N   UNL     1       0.815  10.258  20.102  0.00  0.00    +0.000 NA
ATOM     11  C   UNL     1      -0.423  12.256  20.707  0.00  0.00    +0.000 A 
ATOM     12  C   UNL     1      -0.089  12.902  19.502  0.00  0.00    +0.000 A 
ATOM     13  C   UNL     1      -0.544  14.195  19.215  0.00  0.00    +0.000 A 
ATOM     14  C   UNL     1      -1.344  14.874  20.127  0.00  0.00    +0.000 A 
ATOM     15  C   UNL     1      -1.696  14.256  21.321  0.00  0.00    +0.000 A 
ATOM     16  C   UNL     1      -1.247  12.954  21.616  0.00  0.00    +0.000 A 
ATOM     17  C   UNL     1      -1.674  12.351  22.928  0.00  0.00    +0.000 C 
ATOM     18  C   UNL     1      -1.230  10.915  23.211  0.00  0.00    +0.000 C 
ATOM     19  C   UNL     1       2.247   6.880  19.375  0.00  0.00    +0.000 A 
ENDROOT
BRANCH   1  21
ATOM     20  O   UNL     1       3.116   4.519  17.371  0.00  0.00    +0.000 OA
ATOM     21  C   UNL     1       3.766   5.487  17.803  0.00  0.00    +0.000 C 
ATOM     22  N   UNL     1       5.122   5.446  17.935  0.00  0.00    +0.000 N 
ATOM     23  H   UNL     1       5.575   6.279  18.254  0.00  0.00    +0.000 HD
BRANCH  22  24
ATOM     24  C   UNL     1       5.930   4.320  17.495  0.00  0.00    +0.000 C 
BRANCH  24  25
ATOM     25  C   UNL     1       7.199   4.729  16.739  0.00  0.00    +0.000 C 
BRANCH  25  26
ATOM     26  C   UNL     1       7.048   4.582  15.245  0.00  0.00    +0.000 A 
ATOM     27  C   UNL     1       6.067   3.747  14.708  0.00  0.00    +0.000 A 
ATOM     28  C   UNL     1       5.933   3.662  13.325  0.00  0.00    +0.000 A 
ATOM     29  C   UNL     1       6.777   4.403  12.510  0.00  0.00    +0.000 A 
ATOM     30  C   UNL     1       7.723   5.207  13.119  0.00  0.00    +0.000 A 
ATOM     31  N   UNL     1       7.877   5.311  14.459  0.00  0.00    +0.000 NA
ENDBRANCH  25  26
ENDBRANCH  24  25
ENDBRANCH  22  24
ENDBRANCH   1  21
BRANCH  19  32
ATOM     32  C   UNL     1       1.750   5.912  20.453  0.00  0.00    +0.000 C 
ATOM     33  C   UNL     1       1.172   4.544  20.213  0.00  0.00    +0.000 C 
ATOM     34  C   UNL     1       2.538   4.667  20.782  0.00  0.00    +0.000 C 
ENDBRANCH  19  32
TORSDOF 5
ENDMDL
MODEL 2
REMARK VINA RESULT:      -9.6      3.560     10.759
REMARK  Name = 
REMARK  5 active torsions:
REMARK  status: ('A' for Active; 'I' for Inactive)
REMARK    1  A    between atoms: C_2  and  C_12
REMARK    2  A    between atoms: N_3  and  C_4
REMARK    3  A    between atoms: C_4  and  C_5
REMARK    4  A    between atoms: C_5  and  C_6
REMARK    5  A    between atoms: C_30  and  C_31
REMARK                            x       y       z     vdW  Elec       q    Type
REMARK                         _______ _______ _______ _____ _____    ______ ____
ROOT
ATOM      1  C   UNL     1      -0.918  10.961  22.483  0.00  0.00    +0.000 A 
ATOM      2  C   UNL     1      -0.662   9.800  23.252  0.00  0.00    +0.000 A 
ATOM      3  N   UNL     1      -0.063   8.828  22.569  0.00  0.00    +0.000 NA
ATOM      4  N   UNL     1       0.233   9.402  21.365  0.00  0.00    +0.000 N 
ATOM      5  C   UNL     1       1.071   8.732  20.398  0.00  0.00    +0.000 A 
ATOM      6  N   UNL     1       1.344   9.393  19.255  0.00  0.00    +0.000 NA
ATOM      7  C   UNL     1       2.114   8.778  18.354  0.00  0.00    +0.000 A 
ATOM      8  C   UNL     1       2.586   7.493  18.517  0.00  0.00    +0.000 A 
ATOM      9  C   UNL     1       2.243   6.867  19.697  0.00  0.00    +0.000 A 
ATOM     10  N   UNL     1       1.523   7.490  20.661  0.00  0.00    +0.000 NA
ATOM     11  C   UNL     1       2.600   5.449  19.912  0.00  0.00    +0.000 A 
ATOM     12  C   UNL     1       2.189   4.739  21.056  0.00  0.00    +0.000 A 
ATOM     13  C   UNL     1       2.515   3.389  21.236  0.00  0.00    +0.000 A 
ATOM     14  C   UNL     1       3.260   2.716  20.275  0.00  0.00    +0.000 A 
ATOM     15  C   UNL     1       3.671   3.390  19.132  0.00  0.00    +0.000 A 
ATOM     16  C   UNL     1       3.344   4.747  18.940  0.00  0.00    +0.000 A 
ATOM     17  C   UNL     1       3.822   5.406  17.674  0.00  0.00    +0.000 C 
ATOM     18  C   UNL     1       3.411   6.862  17.448  0.00  0.00    +0.000 C 
ATOM     19  C   UNL     1      -0.332  10.685  21.253  0.00  0.00    +0.000 A 
ENDROOT
BRANCH   1  21
ATOM     20  O   UNL     1      -1.138  13.182  23.212  0.00  0.00    +0.000 OA
ATOM     21  C   UNL     1      -1.686  12.096  22.953  0.00  0.00    +0.000 C 
ATOM     22  N   UNL     1      -3.010  11.880  23.193  0.00  0.00    +0.000 N 
ATOM     23  H   UNL     1      -3.384  10.992  22.921  0.00  0.00    +0.000 HD
BRANCH  22  24
ATOM     24  C   UNL     1      -3.911  12.915  23.673  0.00  0.00    +0.000 C 
BRANCH  24  25
ATOM     25  C   UNL     1      -4.584  13.715  22.552  0.00  0.00    +0.000 C 
BRANCH  25  26
ATOM     26  C   UNL     1      -5.494  12.860  21.705  0.00  0.00    +0.000 A 
ATOM     27  C   UNL     1      -5.203  12.627  20.360  0.00  0.00    +0.000 A 
ATOM     28  C   UNL     1      -6.046  11.804  19.617  0.00  0.00    +0.000 A 
ATOM     29  C   UNL     1      -7.156  11.237  20.225  0.00  0.00    +0.000 A 
ATOM     30  C   UNL     1      -7.376  11.515  21.562  0.00  0.00    +0.000 A 
ATOM     31  N   UNL     1      -6.576  12.310  22.310  0.00  0.00    +0.000 NA
ENDBRANCH  25  26
ENDBRANCH  24  25
ENDBRANCH  22  24
ENDBRANCH   1  21
BRANCH  19  32
ATOM     32  C   UNL     1      -0.255  11.522  19.972  0.00  0.00    +0.000 C 
ATOM     33  C   UNL     1      -1.013  12.793  19.700  0.00  0.00    +0.000 C 
ATOM     34  C   UNL     1       0.444  12.860  19.975  0.00  0.00    +0.000 C 
ENDBRANCH  19  32
TORSDOF 5
ENDMDL
MODEL 3
REMARK VINA RESULT:      -9.5      1.232      2.094
REMARK  Name = 
REMARK  5 active torsions:
REMARK  status: ('A' for Active; 'I' for Inactive)
REMARK    1  A    between atoms: C_2  and  C_12
REMARK    2  A    between atoms: N_3  and  C_4
REMARK    3  A    between atoms: C_4  and  C_5
REMARK    4  A    between atoms: C_5  and  C_6
REMARK    5  A    between atoms: C_30  and  C_31
REMARK                            x       y       z     vdW  Elec       q    Type
REMARK                         _______ _______ _______ _____ _____    ______ ____
ROOT
ATOM      1  C   UNL     1       3.165   6.359  18.480  0.00  0.00    +0.000 A 
ATOM      2  C   UNL     1       3.306   7.607  17.826  0.00  0.00    +0.000 A 
ATOM      3  N   UNL     1       2.516   8.559  18.316  0.00  0.00    +0.000 NA
ATOM      4  N   UNL     1       1.950   7.987  19.419  0.00  0.00    +0.000 N 
ATOM      5  C   UNL     1       1.171   8.764  20.354  0.00  0.00    +0.000 A 
ATOM      6  N   UNL     1       0.686   8.123  21.436  0.00  0.00    +0.000 NA
ATOM      7  C   UNL     1      -0.040   8.834  22.302  0.00  0.00    +0.000 A 
ATOM      8  C   UNL     1      -0.358  10.162  22.108  0.00  0.00    +0.000 A 
ATOM      9  C   UNL     1       0.147  10.744  20.965  0.00  0.00    +0.000 A 
ATOM     10  N   UNL     1       0.945  10.069  20.103  0.00  0.00    +0.000 NA
ATOM     11  C   UNL     1      -0.238  12.126  20.609  0.00  0.00    +0.000 A 
ATOM     12  C   UNL     1       0.173  12.731  19.405  0.00  0.00    +0.000 A 
ATOM     13  C   UNL     1      -0.217  14.033  19.070  0.00  0.00    +0.000 A 
ATOM     14  C   UNL     1      -1.028  14.763  19.930  0.00  0.00    +0.000 A 
ATOM     15  C   UNL     1      -1.455  14.188  21.121  0.00  0.00    +0.000 A 
ATOM     16  C   UNL     1      -1.071  12.877  21.464  0.00  0.00    +0.000 A 
ATOM     17  C   UNL     1      -1.579  12.323  22.769  0.00  0.00    +0.000 C 
ATOM     18  C   UNL     1      -1.204  10.878  23.104  0.00  0.00    +0.000 C 
ATOM     19  C   UNL     1       2.273   6.621  19.515  0.00  0.00    +0.000 A 
ENDROOT
BRANCH   1  21
ATOM     20  O   UNL     1       4.028   4.205  18.839  0.00  0.00    +0.000 OA
ATOM     21  C   UNL     1       3.801   5.133  18.043  0.00  0.00    +0.000 C 
ATOM     22  N   UNL     1       4.228   5.095  16.749  0.00  0.00    +0.000 N 
ATOM     23  H   UNL     1       3.972   5.864  16.161  0.00  0.00    +0.000 HD
BRANCH  22  24
ATOM     24  C   UNL     1       4.890   3.940  16.164  0.00  0.00    +0.000 C 
BRANCH  24  25
ATOM     25  C   UNL     1       6.403   4.120  15.988  0.00  0.00    +0.000 C 
BRANCH  25  26
ATOM     26  C   UNL     1       6.966   5.172  16.911  0.00  0.00    +0.000 A 
ATOM     27  C   UNL     1       7.514   4.816  18.145  0.00  0.00    +0.000 A 
ATOM     28  C   UNL     1       8.056   5.810  18.957  0.00  0.00    +0.000 A 
ATOM     29  C   UNL     1       8.038   7.129  18.527  0.00  0.00    +0.000 A 
ATOM     30  C   UNL     1       7.478   7.400  17.292  0.00  0.00    +0.000 A 
ATOM     31  N   UNL     1       6.944   6.457  16.480  0.00  0.00    +0.000 NA
ENDBRANCH  25  26
ENDBRANCH  24  25
ENDBRANCH  22  24
ENDBRANCH   1  21
BRANCH  19  32
ATOM     32  C   UNL     1       1.692   5.699  20.591  0.00  0.00    +0.000 C 
ATOM     33  C   UNL     1       1.129   4.322  20.365  0.00  0.00    +0.000 C 
ATOM     34  C   UNL     1       2.448   4.468  21.031  0.00  0.00    +0.000 C 
ENDBRANCH  19  32
TORSDOF 5
ENDMDL
MODEL 4
REMARK VINA RESULT:      -9.3      3.406     11.080
REMARK  Name = 
REMARK  5 active torsions:
REMARK  status: ('A' for Active; 'I' for Inactive)
REMARK    1  A    between atoms: C_2  and  C_12
REMARK    2  A    between atoms: N_3  and  C_4
REMARK    3  A    between atoms: C_4  and  C_5
REMARK    4  A    between atoms: C_5  and  C_6
REMARK    5  A    between atoms: C_30  and  C_31
REMARK                            x       y       z     vdW  Elec       q    Type
REMARK                         _______ _______ _______ _____ _____    ______ ____
ROOT
ATOM      1  C   UNL     1      -0.327  11.102  21.819  0.00  0.00    +0.000 A 
ATOM      2  C   UNL     1      -0.232  10.006  22.711  0.00  0.00    +0.000 A 
ATOM      3  N   UNL     1       0.282   8.911  22.158  0.00  0.00    +0.000 NA
ATOM      4  N   UNL     1       0.687   9.321  20.920  0.00  0.00    +0.000 N 
ATOM      5  C   UNL     1       1.483   8.470  20.068  0.00  0.00    +0.000 A 
ATOM      6  N   UNL     1       1.873   8.976  18.881  0.00  0.00    +0.000 NA
ATOM      7  C   UNL     1       2.605   8.192  18.085  0.00  0.00    +0.000 A 
ATOM      8  C   UNL     1       2.924   6.887  18.398  0.00  0.00    +0.000 A 
ATOM      9  C   UNL     1       2.468   6.428  19.615  0.00  0.00    +0.000 A 
ATOM     10  N   UNL     1       1.783   7.221  20.476  0.00  0.00    +0.000 NA
ATOM     11  C   UNL     1       2.656   5.010  19.987  0.00  0.00    +0.000 A 
ATOM     12  C   UNL     1       2.124   4.470  21.174  0.00  0.00    +0.000 A 
ATOM     13  C   UNL     1       2.291   3.120  21.503  0.00  0.00    +0.000 A 
ATOM     14  C   UNL     1       2.994   2.275  20.653  0.00  0.00    +0.000 A 
ATOM     15  C   UNL     1       3.522   2.779  19.471  0.00  0.00    +0.000 A 
ATOM     16  C   UNL     1       3.356   4.135  19.130  0.00  0.00    +0.000 A 
ATOM     17  C   UNL     1       3.953   4.604  17.830  0.00  0.00    +0.000 C 
ATOM     18  C   UNL     1       3.716   6.065  17.441  0.00  0.00    +0.000 C 
ATOM     19  C   UNL     1       0.273  10.639  20.653  0.00  0.00    +0.000 A 
ENDROOT
BRANCH   1  21
ATOM     20  O   UNL     1      -0.343  13.320  22.590  0.00  0.00    +0.000 OA
ATOM     21  C   UNL     1      -0.982  12.355  22.134  0.00  0.00    +0.000 C 
ATOM     22  N   UNL     1      -2.339  12.384  22.004  0.00  0.00    +0.000 N 
ATOM     23  H   UNL     1      -2.775  11.582  21.594  0.00  0.00    +0.000 HD
BRANCH  22  24
ATOM     24  C   UNL     1      -3.140  13.564  22.289  0.00  0.00    +0.000 C 
BRANCH  24  25
ATOM     25  C   UNL     1      -4.092  13.391  23.477  0.00  0.00    +0.000 C 
BRANCH  25  26
ATOM     26  C   UNL     1      -5.448  12.881  23.055  0.00  0.00    +0.000 A 
ATOM     27  C   UNL     1      -6.522  12.892  23.948  0.00  0.00    +0.000 A 
ATOM     28  C   UNL     1      -7.768  12.446  23.514  0.00  0.00    +0.000 A 
ATOM     29  C   UNL     1      -7.917  11.998  22.209  0.00  0.00    +0.000 A 
ATOM     30  C   UNL     1      -6.805  12.019  21.387  0.00  0.00    +0.000 A 
ATOM     31  N   UNL     1      -5.582  12.446  21.778  0.00  0.00    +0.000 NA
ENDBRANCH  25  26
ENDBRANCH  24  25
ENDBRANCH  22  24
ENDBRANCH   1  21
BRANCH  19  32
ATOM     32  C   UNL     1       0.493  11.325  19.301  0.00  0.00    +0.000 C 
ATOM     33  C   UNL     1       0.093  12.732  18.949  0.00  0.00    +0.000 C 
ATOM     34  C   UNL     1       1.528  12.415  19.158  0.00  0.00    +0.000 C 
ENDBRANCH  19  32
TORSDOF 5
ENDMDL
MODEL 5
REMARK VINA RESULT:      -9.3      2.763     10.530
REMARK  Name = 
REMARK  5 active torsions:
REMARK  status: ('A' for Active; 'I' for Inactive)
REMARK    1  A    between atoms: C_2  and  C_12
REMARK    2  A    between atoms: N_3  and  C_4
REMARK    3  A    between atoms: C_4  and  C_5
REMARK    4  A    between atoms: C_5  and  C_6
REMARK    5  A    between atoms: C_30  and  C_31
REMARK                            x       y       z     vdW  Elec       q    Type
REMARK                         _______ _______ _______ _____ _____    ______ ____
ROOT
ATOM      1  C   UNL     1       0.686  10.822  19.745  0.00  0.00    +0.000 A 
ATOM      2  C   UNL     1       1.272  10.852  18.456  0.00  0.00    +0.000 A 
ATOM      3  N   UNL     1       1.994   9.771  18.172  0.00  0.00    +0.000 NA
ATOM      4  N   UNL     1       1.760   8.930  19.223  0.00  0.00    +0.000 N 
ATOM      5  C   UNL     1       2.209   7.557  19.203  0.00  0.00    +0.000 A 
ATOM      6  N   UNL     1       1.896   6.790  20.266  0.00  0.00    +0.000 NA
ATOM      7  C   UNL     1       2.313   5.521  20.257  0.00  0.00    +0.000 A 
ATOM      8  C   UNL     1       3.086   4.988  19.247  0.00  0.00    +0.000 A 
ATOM      9  C   UNL     1       3.392   5.840  18.206  0.00  0.00    +0.000 A 
ATOM     10  N   UNL     1       2.926   7.111  18.152  0.00  0.00    +0.000 NA
ATOM     11  C   UNL     1       4.313   5.399  17.138  0.00  0.00    +0.000 A 
ATOM     12  C   UNL     1       4.732   6.261  16.107  0.00  0.00    +0.000 A 
ATOM     13  C   UNL     1       5.624   5.837  15.114  0.00  0.00    +0.000 A 
ATOM     14  C   UNL     1       6.118   4.538  15.128  0.00  0.00    +0.000 A 
ATOM     15  C   UNL     1       5.728   3.668  16.139  0.00  0.00    +0.000 A 
ATOM     16  C   UNL     1       4.836   4.088  17.144  0.00  0.00    +0.000 A 
ATOM     17  C   UNL     1       4.465   3.088  18.207  0.00  0.00    +0.000 C 
ATOM     18  C   UNL     1       3.541   3.572  19.327  0.00  0.00    +0.000 C 
ATOM     19  C   UNL     1       1.017   9.563  20.235  0.00  0.00    +0.000 A 
ENDROOT
BRANCH   1  21
ATOM     20  O   UNL     1       0.521  12.660  21.197  0.00  0.00    +0.000 OA
ATOM     21  C   UNL     1      -0.021  11.935  20.344  0.00  0.00    +0.000 C 
ATOM     22  N   UNL     1      -1.333  12.080  20.003  0.00  0.00    +0.000 N 
ATOM     23  H   UNL     1      -1.685  11.483  19.280  0.00  0.00    +0.000 HD
BRANCH  22  24
ATOM     24  C   UNL     1      -2.178  13.142  20.524  0.00  0.00    +0.000 C 
BRANCH  24  25
ATOM     25  C   UNL     1      -3.667  12.782  20.565  0.00  0.00    +0.000 C 
BRANCH  25  26
ATOM     26  C   UNL     1      -4.192  12.676  21.976  0.00  0.00    +0.000 A 
ATOM     27  C   UNL     1      -3.314  12.542  23.053  0.00  0.00    +0.000 A 
ATOM     28  C   UNL     1      -3.831  12.482  24.345  0.00  0.00    +0.000 A 
ATOM     29  C   UNL     1      -5.204  12.553  24.534  0.00  0.00    +0.000 A 
ATOM     30  C   UNL     1      -6.007  12.685  23.416  0.00  0.00    +0.000 A 
ATOM     31  N   UNL     1      -5.534  12.747  22.150  0.00  0.00    +0.000 NA
ENDBRANCH  25  26
ENDBRANCH  24  25
ENDBRANCH  22  24
ENDBRANCH   1  21
BRANCH  19  32
ATOM     32  C   UNL     1       0.698   8.898  21.578  0.00  0.00    +0.000 C 
ATOM     33  C   UNL     1       0.013   9.552  22.747  0.00  0.00    +0.000 C 
ATOM     34  C   UNL     1      -0.726   8.551  21.938  0.00  0.00    +0.000 C 
ENDBRANCH  19  32
TORSDOF 5
ENDMDL
MODEL 6
REMARK VINA RESULT:      -9.2      2.945     10.622
REMARK  Name = 
REMARK  5 active torsions:
REMARK  status: ('A' for Active; 'I' for Inactive)
REMARK    1  A    between atoms: C_2  and  C_12
REMARK    2  A    between atoms: N_3  and  C_4
REMARK    3  A    between atoms: C_4  and  C_5
REMARK    4  A    between atoms: C_5  and  C_6
REMARK    5  A    between atoms: C_30  and  C_31
REMARK                            x       y       z     vdW  Elec       q    Type
REMARK                         _______ _______ _______ _____ _____    ______ ____
ROOT
ATOM      1  C   UNL     1       0.698  10.802  19.965  0.00  0.00    +0.000 A 
ATOM      2  C   UNL     1       1.273  10.861  18.672  0.00  0.00    +0.000 A 
ATOM      3  N   UNL     1       1.983   9.781  18.354  0.00  0.00    +0.000 NA
ATOM      4  N   UNL     1       1.751   8.915  19.384  0.00  0.00    +0.000 N 
ATOM      5  C   UNL     1       2.188   7.540  19.323  0.00  0.00    +0.000 A 
ATOM      6  N   UNL     1       1.877   6.747  20.368  0.00  0.00    +0.000 NA
ATOM      7  C   UNL     1       2.282   5.475  20.322  0.00  0.00    +0.000 A 
ATOM      8  C   UNL     1       3.043   4.963  19.292  0.00  0.00    +0.000 A 
ATOM      9  C   UNL     1       3.347   5.839  18.271  0.00  0.00    +0.000 A 
ATOM     10  N   UNL     1       2.892   7.115  18.255  0.00  0.00    +0.000 NA
ATOM     11  C   UNL     1       4.256   5.419  17.184  0.00  0.00    +0.000 A 
ATOM     12  C   UNL     1       4.674   6.305  16.173  0.00  0.00    +0.000 A 
ATOM     13  C   UNL     1       5.553   5.899  15.162  0.00  0.00    +0.000 A 
ATOM     14  C   UNL     1       6.036   4.596  15.136  0.00  0.00    +0.000 A 
ATOM     15  C   UNL     1       5.647   3.703  16.127  0.00  0.00    +0.000 A 
ATOM     16  C   UNL     1       4.767   4.104  17.151  0.00  0.00    +0.000 A 
ATOM     17  C   UNL     1       4.396   3.079  18.190  0.00  0.00    +0.000 C 
ATOM     18  C   UNL     1       3.486   3.542  19.330  0.00  0.00    +0.000 C 
ATOM     19  C   UNL     1       1.022   9.528  20.419  0.00  0.00    +0.000 A 
ENDROOT
BRANCH   1  21
ATOM     20  O   UNL     1       0.631  12.817  21.168  0.00  0.00    +0.000 OA
ATOM     21  C   UNL     1       0.006  11.905  20.599  0.00  0.00    +0.000 C 
ATOM     22  N   UNL     1      -1.355  11.836  20.628  0.00  0.00    +0.000 N 
ATOM     23  H   UNL     1      -1.785  11.092  20.114  0.00  0.00    +0.000 HD
BRANCH  22  24
ATOM     24  C   UNL     1      -2.191  12.859  21.234  0.00  0.00    +0.000 C 
BRANCH  24  25
ATOM     25  C   UNL     1      -2.682  12.502  22.642  0.00  0.00    +0.000 C 
BRANCH  25  26
ATOM     26  C   UNL     1      -4.181  12.619  22.772  0.00  0.00    +0.000 A 
ATOM     27  C   UNL     1      -4.983  12.773  21.640  0.00  0.00    +0.000 A 
ATOM     28  C   UNL     1      -6.366  12.843  21.795  0.00  0.00    +0.000 A 
ATOM     29  C   UNL     1      -6.916  12.763  23.066  0.00  0.00    +0.000 A 
ATOM     30  C   UNL     1      -6.053  12.610  24.136  0.00  0.00    +0.000 A 
ATOM     31  N   UNL     1      -4.707  12.538  24.019  0.00  0.00    +0.000 NA
ENDBRANCH  25  26
ENDBRANCH  24  25
ENDBRANCH  22  24
ENDBRANCH   1  21
BRANCH  19  32
ATOM     32  C   UNL     1       0.709   8.830  21.745  0.00  0.00    +0.000 C 
ATOM     33  C   UNL     1       0.161   9.489  22.982  0.00  0.00    +0.000 C 
ATOM     34  C   UNL     1      -0.723   8.613  22.174  0.00  0.00    +0.000 C 
ENDBRANCH  19  32
TORSDOF 5
ENDMDL
MODEL 7
REMARK VINA RESULT:      -9.2      3.452     10.396
REMARK  Name = 
REMARK  5 active torsions:
REMARK  status: ('A' for Active; 'I' for Inactive)
REMARK    1  A    between atoms: C_2  and  C_12
REMARK    2  A    between atoms: N_3  and  C_4
REMARK    3  A    between atoms: C_4  and  C_5
REMARK    4  A    between atoms: C_5  and  C_6
REMARK    5  A    between atoms: C_30  and  C_31
REMARK                            x       y       z     vdW  Elec       q    Type
REMARK                         _______ _______ _______ _____ _____    ______ ____
ROOT
ATOM      1  C   UNL     1      -0.804  11.317  21.568  0.00  0.00    +0.000 A 
ATOM      2  C   UNL     1      -0.664  10.234  22.470  0.00  0.00    +0.000 A 
ATOM      3  N   UNL     1      -0.059   9.174  21.941  0.00  0.00    +0.000 NA
ATOM      4  N   UNL     1       0.357   9.605  20.714  0.00  0.00    +0.000 N 
ATOM      5  C   UNL     1       1.237   8.806  19.893  0.00  0.00    +0.000 A 
ATOM      6  N   UNL     1       1.629   9.332  18.715  0.00  0.00    +0.000 NA
ATOM      7  C   UNL     1       2.438   8.596  17.948  0.00  0.00    +0.000 A 
ATOM      8  C   UNL     1       2.835   7.318  18.280  0.00  0.00    +0.000 A 
ATOM      9  C   UNL     1       2.372   6.834  19.485  0.00  0.00    +0.000 A 
ATOM     10  N   UNL     1       1.608   7.582  20.318  0.00  0.00    +0.000 NA
ATOM     11  C   UNL     1       2.644   5.434  19.873  0.00  0.00    +0.000 A 
ATOM     12  C   UNL     1       2.113   4.865  21.045  0.00  0.00    +0.000 A 
ATOM     13  C   UNL     1       2.360   3.530  21.389  0.00  0.00    +0.000 A 
ATOM     14  C   UNL     1       3.146   2.731  20.567  0.00  0.00    +0.000 A 
ATOM     15  C   UNL     1       3.676   3.265  19.398  0.00  0.00    +0.000 A 
ATOM     16  C   UNL     1       3.429   4.605  19.043  0.00  0.00    +0.000 A 
ATOM     17  C   UNL     1       4.035   5.108  17.760  0.00  0.00    +0.000 C 
ATOM     18  C   UNL     1       3.711   6.547  17.354  0.00  0.00    +0.000 C 
ATOM     19  C   UNL     1      -0.137  10.890  20.424  0.00  0.00    +0.000 A 
ENDROOT
BRANCH   1  21
ATOM     20  O   UNL     1      -1.034  13.475  22.464  0.00  0.00    +0.000 OA
ATOM     21  C   UNL     1      -1.553  12.523  21.854  0.00  0.00    +0.000 C 
ATOM     22  N   UNL     1      -2.873  12.518  21.514  0.00  0.00    +0.000 N 
ATOM     23  H   UNL     1      -3.205  11.732  20.990  0.00  0.00    +0.000 HD
BRANCH  22  24
ATOM     24  C   UNL     1      -3.757  13.648  21.742  0.00  0.00    +0.000 C 
BRANCH  24  25
ATOM     25  C   UNL     1      -4.696  13.945  20.567  0.00  0.00    +0.000 C 
BRANCH  25  26
ATOM     26  C   UNL     1      -5.347  12.696  20.025  0.00  0.00    +0.000 A 
ATOM     27  C   UNL     1      -6.460  12.141  20.660  0.00  0.00    +0.000 A 
ATOM     28  C   UNL     1      -7.057  11.008  20.113  0.00  0.00    +0.000 A 
ATOM     29  C   UNL     1      -6.534  10.453  18.953  0.00  0.00    +0.000 A 
ATOM     30  C   UNL     1      -5.430  11.062  18.384  0.00  0.00    +0.000 A 
ATOM     31  N   UNL     1      -4.829  12.163  18.892  0.00  0.00    +0.000 NA
ENDBRANCH  25  26
ENDBRANCH  24  25
ENDBRANCH  22  24
ENDBRANCH   1  21
BRANCH  19  32
ATOM     32  C   UNL     1       0.079  11.583  19.076  0.00  0.00    +0.000 C 
ATOM     33  C   UNL     1      -0.638  12.814  18.590  0.00  0.00    +0.000 C 
ATOM     34  C   UNL     1       0.783  12.918  19.008  0.00  0.00    +0.000 C 
ENDBRANCH  19  32
TORSDOF 5
ENDMDL
MODEL 8
REMARK VINA RESULT:      -9.1      3.105     10.005
REMARK  Name = 
REMARK  5 active torsions:
REMARK  status: ('A' for Active; 'I' for Inactive)
REMARK    1  A    between atoms: C_2  and  C_12
REMARK    2  A    between atoms: N_3  and  C_4
REMARK    3  A    between atoms: C_4  and  C_5
REMARK    4  A    between atoms: C_5  and  C_6
REMARK    5  A    between atoms: C_30  and  C_31
REMARK                            x       y       z     vdW  Elec       q    Type
REMARK                         _______ _______ _______ _____ _____    ______ ____
ROOT
ATOM      1  C   UNL     1       0.666  10.887  19.654  0.00  0.00    +0.000 A 
ATOM      2  C   UNL     1       1.248  10.897  18.362  0.00  0.00    +0.000 A 
ATOM      3  N   UNL     1       1.975   9.815  18.096  0.00  0.00    +0.000 NA
ATOM      4  N   UNL     1       1.750   8.992  19.162  0.00  0.00    +0.000 N 
ATOM      5  C   UNL     1       2.206   7.622  19.164  0.00  0.00    +0.000 A 
ATOM      6  N   UNL     1       1.901   6.871  20.242  0.00  0.00    +0.000 NA
ATOM      7  C   UNL     1       2.325   5.605  20.254  0.00  0.00    +0.000 A 
ATOM      8  C   UNL     1       3.099   5.059  19.251  0.00  0.00    +0.000 A 
ATOM      9  C   UNL     1       3.396   5.894  18.194  0.00  0.00    +0.000 A 
ATOM     10  N   UNL     1       2.922   7.161  18.120  0.00  0.00    +0.000 NA
ATOM     11  C   UNL     1       4.317   5.439  17.131  0.00  0.00    +0.000 A 
ATOM     12  C   UNL     1       4.728   6.286  16.084  0.00  0.00    +0.000 A 
ATOM     13  C   UNL     1       5.619   5.850  15.096  0.00  0.00    +0.000 A 
ATOM     14  C   UNL     1       6.121   4.554  15.131  0.00  0.00    +0.000 A 
ATOM     15  C   UNL     1       5.739   3.700  16.158  0.00  0.00    +0.000 A 
ATOM     16  C   UNL     1       4.847   4.132  17.158  0.00  0.00    +0.000 A 
ATOM     17  C   UNL     1       4.485   3.149  18.240  0.00  0.00    +0.000 C 
ATOM     18  C   UNL     1       3.562   3.647  19.354  0.00  0.00    +0.000 C 
ATOM     19  C   UNL     1       1.005   9.639  20.165  0.00  0.00    +0.000 A 
ENDROOT
BRANCH   1  21
ATOM     20  O   UNL     1       0.495  12.749  21.073  0.00  0.00    +0.000 OA
ATOM     21  C   UNL     1      -0.046  12.006  20.235  0.00  0.00    +0.000 C 
ATOM     22  N   UNL     1      -1.360  12.136  19.897  0.00  0.00    +0.000 N 
ATOM     23  H   UNL     1      -1.711  11.524  19.187  0.00  0.00    +0.000 HD
BRANCH  22  24
ATOM     24  C   UNL     1      -2.210  13.202  20.402  0.00  0.00    +0.000 C 
BRANCH  24  25
ATOM     25  C   UNL     1      -3.530  12.707  21.003  0.00  0.00    +0.000 C 
BRANCH  25  26
ATOM     26  C   UNL     1      -4.534  12.325  19.942  0.00  0.00    +0.000 A 
ATOM     27  C   UNL     1      -5.903  12.372  20.210  0.00  0.00    +0.000 A 
ATOM     28  C   UNL     1      -6.803  12.046  19.197  0.00  0.00    +0.000 A 
ATOM     29  C   UNL     1      -6.321  11.681  17.948  0.00  0.00    +0.000 A 
ATOM     30  C   UNL     1      -4.951  11.660  17.763  0.00  0.00    +0.000 A 
ATOM     31  N   UNL     1      -4.053  11.971  18.726  0.00  0.00    +0.000 NA
ENDBRANCH  25  26
ENDBRANCH  24  25
ENDBRANCH  22  24
ENDBRANCH   1  21
BRANCH  19  32
ATOM     32  C   UNL     1       0.695   8.995  21.520  0.00  0.00    +0.000 C 
ATOM     33  C   UNL     1      -0.093   9.625  22.637  0.00  0.00    +0.000 C 
ATOM     34  C   UNL     1      -0.706   8.532  21.841  0.00  0.00    +0.000 C 
ENDBRANCH  19  32
TORSDOF 5
ENDMDL
MODEL 9
REMARK VINA RESULT:      -9.0      2.660     10.595
REMARK  Name = 
REMARK  5 active torsions:
REMARK  status: ('A' for Active; 'I' for Inactive)
REMARK    1  A    between atoms: C_2  and  C_12
REMARK    2  A    between atoms: N_3  and  C_4
REMARK    3  A    between atoms: C_4  and  C_5
REMARK    4  A    between atoms: C_5  and  C_6
REMARK    5  A    between atoms: C_30  and  C_31
REMARK                            x       y       z     vdW  Elec       q    Type
REMARK                         _______ _______ _______ _____ _____    ______ ____
ROOT
ATOM      1  C   UNL     1       0.799  10.847  19.966  0.00  0.00    +0.000 A 
ATOM      2  C   UNL     1       1.389  10.919  18.681  0.00  0.00    +0.000 A 
ATOM      3  N   UNL     1       2.078   9.831  18.348  0.00  0.00    +0.000 NA
ATOM      4  N   UNL     1       1.817   8.949  19.358  0.00  0.00    +0.000 N 
ATOM      5  C   UNL     1       2.223   7.566  19.274  0.00  0.00    +0.000 A 
ATOM      6  N   UNL     1       1.884   6.760  20.299  0.00  0.00    +0.000 NA
ATOM      7  C   UNL     1       2.262   5.480  20.232  0.00  0.00    +0.000 A 
ATOM      8  C   UNL     1       3.022   4.973  19.199  0.00  0.00    +0.000 A 
ATOM      9  C   UNL     1       3.357   5.862  18.200  0.00  0.00    +0.000 A 
ATOM     10  N   UNL     1       2.929   7.148  18.205  0.00  0.00    +0.000 NA
ATOM     11  C   UNL     1       4.267   5.443  17.113  0.00  0.00    +0.000 A 
ATOM     12  C   UNL     1       4.715   6.340  16.125  0.00  0.00    +0.000 A 
ATOM     13  C   UNL     1       5.596   5.936  15.115  0.00  0.00    +0.000 A 
ATOM     14  C   UNL     1       6.051   4.623  15.068  0.00  0.00    +0.000 A 
ATOM     15  C   UNL     1       5.632   3.719  16.036  0.00  0.00    +0.000 A 
ATOM     16  C   UNL     1       4.750   4.118  17.058  0.00  0.00    +0.000 A 
ATOM     17  C   UNL     1       4.345   3.082  18.073  0.00  0.00    +0.000 C 
ATOM     18  C   UNL     1       3.434   3.541  19.213  0.00  0.00    +0.000 C 
ATOM     19  C   UNL     1       1.090   9.557  20.398  0.00  0.00    +0.000 A 
ENDROOT
BRANCH   1  21
ATOM     20  O   UNL     1       0.731  12.712  21.391  0.00  0.00    +0.000 OA
ATOM     21  C   UNL     1       0.124  11.952  20.616  0.00  0.00    +0.000 C 
ATOM     22  N   UNL     1      -1.221  12.049  20.415  0.00  0.00    +0.000 N 
ATOM     23  H   UNL     1      -1.628  11.426  19.746  0.00  0.00    +0.000 HD
BRANCH  22  24
ATOM     24  C   UNL     1      -2.039  13.097  21.003  0.00  0.00    +0.000 C 
BRANCH  24  25
ATOM     25  C   UNL     1      -2.680  12.703  22.338  0.00  0.00    +0.000 C 
BRANCH  25  26
ATOM     26  C   UNL     1      -2.522  13.775  23.388  0.00  0.00    +0.000 A 
ATOM     27  C   UNL     1      -3.638  14.300  24.042  0.00  0.00    +0.000 A 
ATOM     28  C   UNL     1      -3.453  15.264  25.031  0.00  0.00    +0.000 A 
ATOM     29  C   UNL     1      -2.168  15.684  25.342  0.00  0.00    +0.000 A 
ATOM     30  C   UNL     1      -1.115  15.115  24.649  0.00  0.00    +0.000 A 
ATOM     31  N   UNL     1      -1.262  14.177  23.685  0.00  0.00    +0.000 NA
ENDBRANCH  25  26
ENDBRANCH  24  25
ENDBRANCH  22  24
ENDBRANCH   1  21
BRANCH  19  32
ATOM     32  C   UNL     1       0.747   8.840  21.707  0.00  0.00    +0.000 C 
ATOM     33  C   UNL     1       0.072   9.457  22.902  0.00  0.00    +0.000 C 
ATOM     34  C   UNL     1      -0.688   8.513  22.045  0.00  0.00    +0.000 C 
ENDBRANCH  19  32
TORSDOF 5
ENDMDL
