MODEL 1
REMARK VINA RESULT:      -7.0      0.000      0.000
REMARK  Name = 
REMARK  4 active torsions:
REMARK  status: ('A' for Active; 'I' for Inactive)
REMARK    1  A    between atoms: C_1  and  O_2
REMARK    2  A    between atoms: O_2  and  C_3
REMARK    3  A    between atoms: C_6  and  C_7
REMARK    4  A    between atoms: C_8  and  C_9
REMARK                            x       y       z     vdW  Elec       q    Type
REMARK                         _______ _______ _______ _____ _____    ______ ____
ROOT
ATOM      1  C   UNL     1       2.593   6.678  18.969  0.00  0.00    +0.000 A 
ATOM      2  C   UNL     1       2.257   7.954  18.650  0.00  0.00    +0.000 A 
ATOM      3  C   UNL     1       2.836   8.793  17.538  0.00  0.00    +0.000 C 
ATOM      4  C   UNL     1       1.298   8.660  19.518  0.00  0.00    +0.000 A 
ATOM      5  C   UNL     1       0.477   9.710  19.097  0.00  0.00    +0.000 A 
ATOM      6  C   UNL     1      -0.319  10.401  20.018  0.00  0.00    +0.000 A 
ATOM      7  C   UNL     1      -0.276  10.063  21.371  0.00  0.00    +0.000 A 
ATOM      8  C   UNL     1       0.502   8.987  21.791  0.00  0.00    +0.000 A 
ATOM      9  C   UNL     1       1.242   8.276  20.854  0.00  0.00    +0.000 A 
ATOM     10  O   UNL     1       1.884   7.106  21.272  0.00  0.00    +0.000 OA
ATOM     11  C   UNL     1       2.019   6.163  20.264  0.00  0.00    +0.000 A 
ATOM     12  S   UNL     1       1.607   4.605  20.715  0.00  0.00    +0.000 S 
ENDROOT
BRANCH   1  16
ATOM     13  C   UNL     1       5.166   4.229  16.462  0.00  0.00    +0.000 A 
ATOM     14  C   UNL     1       5.641   5.406  17.036  0.00  0.00    +0.000 A 
ATOM     15  C   UNL     1       4.812   6.203  17.841  0.00  0.00    +0.000 A 
ATOM     16  C   UNL     1       3.490   5.826  18.123  0.00  0.00    +0.000 A 
ATOM     17  C   UNL     1       3.053   4.602  17.583  0.00  0.00    +0.000 A 
ATOM     18  C   UNL     1       3.862   3.832  16.735  0.00  0.00    +0.000 A 
BRANCH  13  20
ATOM     19  C   UNL     1       6.135   4.024  14.304  0.00  0.00    +0.000 C 
ATOM     20  O   UNL     1       6.052   3.578  15.653  0.00  0.00    +0.000 OA
ENDBRANCH  13  20
ENDBRANCH   1  16
TORSDOF 2
ENDMDL
MODEL 2
REMARK VINA RESULT:      -6.9      0.171      1.082
REMARK  Name = 
REMARK  4 active torsions:
REMARK  status: ('A' for Active; 'I' for Inactive)
REMARK    1  A    between atoms: C_1  and  O_2
REMARK    2  A    between atoms: O_2  and  C_3
REMARK    3  A    between atoms: C_6  and  C_7
REMARK    4  A    between atoms: C_8  and  C_9
REMARK                            x       y       z     vdW  Elec       q    Type
REMARK                         _______ _______ _______ _____ _____    ______ ____
ROOT
ATOM      1  C   UNL     1       2.557   6.813  18.955  0.00  0.00    +0.000 A 
ATOM      2  C   UNL     1       2.166   8.079  18.660  0.00  0.00    +0.000 A 
ATOM      3  C   UNL     1       2.676   8.947  17.536  0.00  0.00    +0.000 C 
ATOM      4  C   UNL     1       1.214   8.744  19.568  0.00  0.00    +0.000 A 
ATOM      5  C   UNL     1       0.343   9.769  19.186  0.00  0.00    +0.000 A 
ATOM      6  C   UNL     1      -0.442  10.424  20.141  0.00  0.00    +0.000 A 
ATOM      7  C   UNL     1      -0.340  10.077  21.489  0.00  0.00    +0.000 A 
ATOM      8  C   UNL     1       0.490   9.025  21.871  0.00  0.00    +0.000 A 
ATOM      9  C   UNL     1       1.220   8.348  20.902  0.00  0.00    +0.000 A 
ATOM     10  O   UNL     1       1.916   7.198  21.286  0.00  0.00    +0.000 OA
ATOM     11  C   UNL     1       2.047   6.268  20.265  0.00  0.00    +0.000 A 
ATOM     12  S   UNL     1       1.705   4.693  20.716  0.00  0.00    +0.000 S 
ENDROOT
BRANCH   1  16
ATOM     13  C   UNL     1       5.186   4.433  16.441  0.00  0.00    +0.000 A 
ATOM     14  C   UNL     1       3.909   3.980  16.767  0.00  0.00    +0.000 A 
ATOM     15  C   UNL     1       3.060   4.743  17.583  0.00  0.00    +0.000 A 
ATOM     16  C   UNL     1       3.451   5.999  18.070  0.00  0.00    +0.000 A 
ATOM     17  C   UNL     1       4.720   6.462  17.676  0.00  0.00    +0.000 A 
ATOM     18  C   UNL     1       5.592   5.679  16.905  0.00  0.00    +0.000 A 
BRANCH  13  20
ATOM     19  C   UNL     1       6.172   3.940  14.337  0.00  0.00    +0.000 C 
ATOM     20  O   UNL     1       5.934   3.572  15.691  0.00  0.00    +0.000 OA
ENDBRANCH  13  20
ENDBRANCH   1  16
TORSDOF 2
ENDMDL
MODEL 3
REMARK VINA RESULT:      -6.9      3.401      4.799
REMARK  Name = 
REMARK  4 active torsions:
REMARK  status: ('A' for Active; 'I' for Inactive)
REMARK    1  A    between atoms: C_1  and  O_2
REMARK    2  A    between atoms: O_2  and  C_3
REMARK    3  A    between atoms: C_6  and  C_7
REMARK    4  A    between atoms: C_8  and  C_9
REMARK                            x       y       z     vdW  Elec       q    Type
REMARK                         _______ _______ _______ _____ _____    ______ ____
ROOT
ATOM      1  C   UNL     1       4.107   4.434  17.486  0.00  0.00    +0.000 A 
ATOM      2  C   UNL     1       3.947   3.293  18.202  0.00  0.00    +0.000 A 
ATOM      3  C   UNL     1       4.493   1.927  17.865  0.00  0.00    +0.000 C 
ATOM      4  C   UNL     1       3.075   3.330  19.390  0.00  0.00    +0.000 A 
ATOM      5  C   UNL     1       3.192   2.467  20.483  0.00  0.00    +0.000 A 
ATOM      6  C   UNL     1       2.246   2.497  21.514  0.00  0.00    +0.000 A 
ATOM      7  C   UNL     1       1.162   3.373  21.443  0.00  0.00    +0.000 A 
ATOM      8  C   UNL     1       1.064   4.269  20.382  0.00  0.00    +0.000 A 
ATOM      9  C   UNL     1       2.043   4.264  19.395  0.00  0.00    +0.000 A 
ATOM     10  O   UNL     1       2.012   5.276  18.432  0.00  0.00    +0.000 OA
ATOM     11  C   UNL     1       3.265   5.603  17.935  0.00  0.00    +0.000 A 
ATOM     12  S   UNL     1       3.566   7.245  17.840  0.00  0.00    +0.000 S 
ENDROOT
BRANCH   1  16
ATOM     13  C   UNL     1       6.811   4.709  14.094  0.00  0.00    +0.000 A 
ATOM     14  C   UNL     1       5.489   4.305  13.921  0.00  0.00    +0.000 A 
ATOM     15  C   UNL     1       4.615   4.209  15.014  0.00  0.00    +0.000 A 
ATOM     16  C   UNL     1       5.029   4.549  16.311  0.00  0.00    +0.000 A 
ATOM     17  C   UNL     1       6.350   5.012  16.451  0.00  0.00    +0.000 A 
ATOM     18  C   UNL     1       7.242   5.058  15.369  0.00  0.00    +0.000 A 
BRANCH  13  20
ATOM     19  C   UNL     1       7.105   3.909  11.877  0.00  0.00    +0.000 C 
ATOM     20  O   UNL     1       7.574   4.703  12.961  0.00  0.00    +0.000 OA
ENDBRANCH  13  20
ENDBRANCH   1  16
TORSDOF 2
ENDMDL
MODEL 4
REMARK VINA RESULT:      -6.8      2.301      7.240
REMARK  Name = 
REMARK  4 active torsions:
REMARK  status: ('A' for Active; 'I' for Inactive)
REMARK    1  A    between atoms: C_1  and  O_2
REMARK    2  A    between atoms: O_2  and  C_3
REMARK    3  A    between atoms: C_6  and  C_7
REMARK    4  A    between atoms: C_8  and  C_9
REMARK                            x       y       z     vdW  Elec       q    Type
REMARK                         _______ _______ _______ _____ _____    ______ ____
ROOT
ATOM      1  C   UNL     1       2.007   7.114  19.795  0.00  0.00    +0.000 A 
ATOM      2  C   UNL     1       2.226   5.778  19.901  0.00  0.00    +0.000 A 
ATOM      3  C   UNL     1       1.996   4.916  21.118  0.00  0.00    +0.000 C 
ATOM      4  C   UNL     1       2.842   5.079  18.759  0.00  0.00    +0.000 A 
ATOM      5  C   UNL     1       2.675   3.719  18.482  0.00  0.00    +0.000 A 
ATOM      6  C   UNL     1       3.393   3.114  17.445  0.00  0.00    +0.000 A 
ATOM      7  C   UNL     1       4.304   3.860  16.696  0.00  0.00    +0.000 A 
ATOM      8  C   UNL     1       4.441   5.225  16.934  0.00  0.00    +0.000 A 
ATOM      9  C   UNL     1       3.678   5.822  17.931  0.00  0.00    +0.000 A 
ATOM     10  O   UNL     1       3.713   7.215  18.041  0.00  0.00    +0.000 OA
ATOM     11  C   UNL     1       2.536   7.757  18.537  0.00  0.00    +0.000 A 
ATOM     12  S   UNL     1       1.980   9.091  17.695  0.00  0.00    +0.000 S 
ENDROOT
BRANCH   1  16
ATOM     13  C   UNL     1       0.004   9.513  22.816  0.00  0.00    +0.000 A 
ATOM     14  C   UNL     1      -0.729   8.739  21.919  0.00  0.00    +0.000 A 
ATOM     15  C   UNL     1      -0.086   7.968  20.939  0.00  0.00    +0.000 A 
ATOM     16  C   UNL     1       1.314   7.922  20.848  0.00  0.00    +0.000 A 
ATOM     17  C   UNL     1       2.033   8.664  21.804  0.00  0.00    +0.000 A 
ATOM     18  C   UNL     1       1.392   9.477  22.751  0.00  0.00    +0.000 A 
BRANCH  13  20
ATOM     19  C   UNL     1      -1.520  11.310  23.113  0.00  0.00    +0.000 C 
ATOM     20  O   UNL     1      -0.741  10.263  23.681  0.00  0.00    +0.000 OA
ENDBRANCH  13  20
ENDBRANCH   1  16
TORSDOF 2
ENDMDL
MODEL 5
REMARK VINA RESULT:      -6.8      3.422      4.713
REMARK  Name = 
REMARK  4 active torsions:
REMARK  status: ('A' for Active; 'I' for Inactive)
REMARK    1  A    between atoms: C_1  and  O_2
REMARK    2  A    between atoms: O_2  and  C_3
REMARK    3  A    between atoms: C_6  and  C_7
REMARK    4  A    between atoms: C_8  and  C_9
REMARK                            x       y       z     vdW  Elec       q    Type
REMARK                         _______ _______ _______ _____ _____    ______ ____
ROOT
ATOM      1  C   UNL     1       4.106   4.398  17.518  0.00  0.00    +0.000 A 
ATOM      2  C   UNL     1       3.948   3.263  18.246  0.00  0.00    +0.000 A 
ATOM      3  C   UNL     1       4.521   1.902  17.939  0.00  0.00    +0.000 C 
ATOM      4  C   UNL     1       3.051   3.304  19.415  0.00  0.00    +0.000 A 
ATOM      5  C   UNL     1       3.159   2.456  20.523  0.00  0.00    +0.000 A 
ATOM      6  C   UNL     1       2.192   2.486  21.533  0.00  0.00    +0.000 A 
ATOM      7  C   UNL     1       1.097   3.344  21.429  0.00  0.00    +0.000 A 
ATOM      8  C   UNL     1       1.008   4.225  20.354  0.00  0.00    +0.000 A 
ATOM      9  C   UNL     1       2.006   4.222  19.388  0.00  0.00    +0.000 A 
ATOM     10  O   UNL     1       1.979   5.221  18.410  0.00  0.00    +0.000 OA
ATOM     11  C   UNL     1       3.238   5.559  17.935  0.00  0.00    +0.000 A 
ATOM     12  S   UNL     1       3.516   7.205  17.824  0.00  0.00    +0.000 S 
ENDROOT
BRANCH   1  16
ATOM     13  C   UNL     1       6.816   4.780  14.141  0.00  0.00    +0.000 A 
ATOM     14  C   UNL     1       7.226   5.124  15.428  0.00  0.00    +0.000 A 
ATOM     15  C   UNL     1       6.352   5.009  16.519  0.00  0.00    +0.000 A 
ATOM     16  C   UNL     1       5.050   4.511  16.361  0.00  0.00    +0.000 A 
ATOM     17  C   UNL     1       4.680   4.111  15.063  0.00  0.00    +0.000 A 
ATOM     18  C   UNL     1       5.533   4.276  13.962  0.00  0.00    +0.000 A 
BRANCH  13  20
ATOM     19  C   UNL     1       7.391   4.572  11.846  0.00  0.00    +0.000 C 
ATOM     20  O   UNL     1       7.740   4.996  13.159  0.00  0.00    +0.000 OA
ENDBRANCH  13  20
ENDBRANCH   1  16
TORSDOF 2
ENDMDL
MODEL 6
REMARK VINA RESULT:      -6.7      3.737      4.680
REMARK  Name = 
REMARK  4 active torsions:
REMARK  status: ('A' for Active; 'I' for Inactive)
REMARK    1  A    between atoms: C_1  and  O_2
REMARK    2  A    between atoms: O_2  and  C_3
REMARK    3  A    between atoms: C_6  and  C_7
REMARK    4  A    between atoms: C_8  and  C_9
REMARK                            x       y       z     vdW  Elec       q    Type
REMARK                         _______ _______ _______ _____ _____    ______ ____
ROOT
ATOM      1  C   UNL     1       4.466   4.366  17.687  0.00  0.00    +0.000 A 
ATOM      2  C   UNL     1       3.332   3.634  17.829  0.00  0.00    +0.000 A 
ATOM      3  C   UNL     1       2.496   3.034  16.725  0.00  0.00    +0.000 C 
ATOM      4  C   UNL     1       2.775   3.466  19.183  0.00  0.00    +0.000 A 
ATOM      5  C   UNL     1       1.976   2.390  19.581  0.00  0.00    +0.000 A 
ATOM      6  C   UNL     1       1.393   2.372  20.852  0.00  0.00    +0.000 A 
ATOM      7  C   UNL     1       1.582   3.445  21.724  0.00  0.00    +0.000 A 
ATOM      8  C   UNL     1       2.415   4.498  21.354  0.00  0.00    +0.000 A 
ATOM      9  C   UNL     1       3.032   4.472  20.109  0.00  0.00    +0.000 A 
ATOM     10  O   UNL     1       3.987   5.454  19.827  0.00  0.00    +0.000 OA
ATOM     11  C   UNL     1       4.969   5.029  18.945  0.00  0.00    +0.000 A 
ATOM     12  S   UNL     1       6.529   5.423  19.404  0.00  0.00    +0.000 S 
ENDROOT
BRANCH   1  16
ATOM     13  C   UNL     1       6.582   4.890  13.926  0.00  0.00    +0.000 A 
ATOM     14  C   UNL     1       6.379   3.618  14.459  0.00  0.00    +0.000 A 
ATOM     15  C   UNL     1       5.703   3.445  15.676  0.00  0.00    +0.000 A 
ATOM     16  C   UNL     1       5.177   4.540  16.380  0.00  0.00    +0.000 A 
ATOM     17  C   UNL     1       5.340   5.807  15.791  0.00  0.00    +0.000 A 
ATOM     18  C   UNL     1       6.063   5.988  14.602  0.00  0.00    +0.000 A 
BRANCH  13  20
ATOM     19  C   UNL     1       7.106   3.856  11.853  0.00  0.00    +0.000 C 
ATOM     20  O   UNL     1       7.307   4.926  12.769  0.00  0.00    +0.000 OA
ENDBRANCH  13  20
ENDBRANCH   1  16
TORSDOF 2
ENDMDL
MODEL 7
REMARK VINA RESULT:      -6.6      1.871      6.844
REMARK  Name = 
REMARK  4 active torsions:
REMARK  status: ('A' for Active; 'I' for Inactive)
REMARK    1  A    between atoms: C_1  and  O_2
REMARK    2  A    between atoms: O_2  and  C_3
REMARK    3  A    between atoms: C_6  and  C_7
REMARK    4  A    between atoms: C_8  and  C_9
REMARK                            x       y       z     vdW  Elec       q    Type
REMARK                         _______ _______ _______ _____ _____    ______ ____
ROOT
ATOM      1  C   UNL     1       2.096   6.761  19.800  0.00  0.00    +0.000 A 
ATOM      2  C   UNL     1       2.693   7.236  18.677  0.00  0.00    +0.000 A 
ATOM      3  C   UNL     1       2.562   8.623  18.098  0.00  0.00    +0.000 C 
ATOM      4  C   UNL     1       3.485   6.300  17.858  0.00  0.00    +0.000 A 
ATOM      5  C   UNL     1       4.537   6.680  17.019  0.00  0.00    +0.000 A 
ATOM      6  C   UNL     1       5.155   5.739  16.189  0.00  0.00    +0.000 A 
ATOM      7  C   UNL     1       4.706   4.418  16.172  0.00  0.00    +0.000 A 
ATOM      8  C   UNL     1       3.691   4.021  17.039  0.00  0.00    +0.000 A 
ATOM      9  C   UNL     1       3.126   4.956  17.898  0.00  0.00    +0.000 A 
ATOM     10  O   UNL     1       2.228   4.501  18.868  0.00  0.00    +0.000 OA
ATOM     11  C   UNL     1       2.223   5.274  20.020  0.00  0.00    +0.000 A 
ATOM     12  S   UNL     1       2.261   4.396  21.443  0.00  0.00    +0.000 S 
ENDROOT
BRANCH   1  16
ATOM     13  C   UNL     1      -0.100   9.321  22.541  0.00  0.00    +0.000 A 
ATOM     14  C   UNL     1      -0.769   8.410  21.726  0.00  0.00    +0.000 A 
ATOM     15  C   UNL     1      -0.064   7.587  20.835  0.00  0.00    +0.000 A 
ATOM     16  C   UNL     1       1.337   7.626  20.759  0.00  0.00    +0.000 A 
ATOM     17  C   UNL     1       1.993   8.509  21.636  0.00  0.00    +0.000 A 
ATOM     18  C   UNL     1       1.288   9.372  22.489  0.00  0.00    +0.000 A 
BRANCH  13  20
ATOM     19  C   UNL     1      -1.108  11.445  22.882  0.00  0.00    +0.000 C 
ATOM     20  O   UNL     1      -0.905  10.105  23.318  0.00  0.00    +0.000 OA
ENDBRANCH  13  20
ENDBRANCH   1  16
TORSDOF 2
ENDMDL
MODEL 8
REMARK VINA RESULT:      -6.4      3.729      4.622
REMARK  Name = 
REMARK  4 active torsions:
REMARK  status: ('A' for Active; 'I' for Inactive)
REMARK    1  A    between atoms: C_1  and  O_2
REMARK    2  A    between atoms: O_2  and  C_3
REMARK    3  A    between atoms: C_6  and  C_7
REMARK    4  A    between atoms: C_8  and  C_9
REMARK                            x       y       z     vdW  Elec       q    Type
REMARK                         _______ _______ _______ _____ _____    ______ ____
ROOT
ATOM      1  C   UNL     1       4.537   4.353  17.702  0.00  0.00    +0.000 A 
ATOM      2  C   UNL     1       3.401   3.621  17.824  0.00  0.00    +0.000 A 
ATOM      3  C   UNL     1       2.595   3.003  16.708  0.00  0.00    +0.000 C 
ATOM      4  C   UNL     1       2.808   3.472  19.166  0.00  0.00    +0.000 A 
ATOM      5  C   UNL     1       2.001   2.400  19.558  0.00  0.00    +0.000 A 
ATOM      6  C   UNL     1       1.385   2.400  20.814  0.00  0.00    +0.000 A 
ATOM      7  C   UNL     1       1.549   3.487  21.674  0.00  0.00    +0.000 A 
ATOM      8  C   UNL     1       2.390   4.536  21.311  0.00  0.00    +0.000 A 
ATOM      9  C   UNL     1       3.040   4.493  20.083  0.00  0.00    +0.000 A 
ATOM     10  O   UNL     1       3.999   5.472  19.811  0.00  0.00    +0.000 OA
ATOM     11  C   UNL     1       5.006   5.036  18.962  0.00  0.00    +0.000 A 
ATOM     12  S   UNL     1       6.552   5.441  19.457  0.00  0.00    +0.000 S 
ENDROOT
BRANCH   1  16
ATOM     13  C   UNL     1       6.645   4.788  13.925  0.00  0.00    +0.000 A 
ATOM     14  C   UNL     1       6.157   5.904  14.602  0.00  0.00    +0.000 A 
ATOM     15  C   UNL     1       5.471   5.767  15.818  0.00  0.00    +0.000 A 
ATOM     16  C   UNL     1       5.282   4.510  16.411  0.00  0.00    +0.000 A 
ATOM     17  C   UNL     1       5.837   3.405  15.740  0.00  0.00    +0.000 A 
ATOM     18  C   UNL     1       6.476   3.533  14.498  0.00  0.00    +0.000 A 
BRANCH  13  20
ATOM     19  C   UNL     1       7.151   4.037  11.729  0.00  0.00    +0.000 C 
ATOM     20  O   UNL     1       7.240   5.051  12.724  0.00  0.00    +0.000 OA
ENDBRANCH  13  20
ENDBRANCH   1  16
TORSDOF 2
ENDMDL
MODEL 9
REMARK VINA RESULT:      -6.3      2.216      7.203
REMARK  Name = 
REMARK  4 active torsions:
REMARK  status: ('A' for Active; 'I' for Inactive)
REMARK    1  A    between atoms: C_1  and  O_2
REMARK    2  A    between atoms: O_2  and  C_3
REMARK    3  A    between atoms: C_6  and  C_7
REMARK    4  A    between atoms: C_8  and  C_9
REMARK                            x       y       z     vdW  Elec       q    Type
REMARK                         _______ _______ _______ _____ _____    ______ ____
ROOT
ATOM      1  C   UNL     1       1.966   7.473  19.590  0.00  0.00    +0.000 A 
ATOM      2  C   UNL     1       2.021   6.123  19.727  0.00  0.00    +0.000 A 
ATOM      3  C   UNL     1       1.594   5.315  20.927  0.00  0.00    +0.000 C 
ATOM      4  C   UNL     1       2.645   5.338  18.647  0.00  0.00    +0.000 A 
ATOM      5  C   UNL     1       2.347   4.000  18.369  0.00  0.00    +0.000 A 
ATOM      6  C   UNL     1       3.074   3.298  17.402  0.00  0.00    +0.000 A 
ATOM      7  C   UNL     1       4.123   3.922  16.725  0.00  0.00    +0.000 A 
ATOM      8  C   UNL     1       4.395   5.268  16.961  0.00  0.00    +0.000 A 
ATOM      9  C   UNL     1       3.626   5.965  17.885  0.00  0.00    +0.000 A 
ATOM     10  O   UNL     1       3.811   7.347  17.985  0.00  0.00    +0.000 OA
ATOM     11  C   UNL     1       2.667   8.028  18.376  0.00  0.00    +0.000 A 
ATOM     12  S   UNL     1       2.338   9.400  17.477  0.00  0.00    +0.000 S 
ENDROOT
BRANCH   1  16
ATOM     13  C   UNL     1      -0.056  10.043  22.454  0.00  0.00    +0.000 A 
ATOM     14  C   UNL     1       1.077   9.320  22.820  0.00  0.00    +0.000 A 
ATOM     15  C   UNL     1       1.729   8.484  21.901  0.00  0.00    +0.000 A 
ATOM     16  C   UNL     1       1.285   8.374  20.574  0.00  0.00    +0.000 A 
ATOM     17  C   UNL     1       0.176   9.160  20.211  0.00  0.00    +0.000 A 
ATOM     18  C   UNL     1      -0.509   9.955  21.142  0.00  0.00    +0.000 A 
BRANCH  13  20
ATOM     19  C   UNL     1      -1.674  11.664  23.083  0.00  0.00    +0.000 C 
ATOM     20  O   UNL     1      -0.632  10.770  23.456  0.00  0.00    +0.000 OA
ENDBRANCH  13  20
ENDBRANCH   1  16
TORSDOF 2
ENDMDL
