MODEL 1
REMARK VINA RESULT:      -6.5      0.000      0.000
REMARK  Name = 
REMARK  6 active torsions:
REMARK  status: ('A' for Active; 'I' for Inactive)
REMARK    1  A    between atoms: C_1  and  C_2
REMARK    2  A    between atoms: C_4  and  C_5
REMARK    3  A    between atoms: N_7  and  C_17
REMARK    4  A    between atoms: N_10  and  C_11
REMARK    5  A    between atoms: C_23  and  C_24
REMARK    6  A    between atoms: N_25  and  C_26
REMARK                            x       y       z     vdW  Elec       q    Type
REMARK                         _______ _______ _______ _____ _____    ______ ____
ROOT
ATOM      1  C   UNL     1      -0.366  14.576  19.534  0.00  0.00    +0.000 C 
ATOM      2  O   UNL     1      -0.451  15.358  18.587  0.00  0.00    +0.000 OA
ATOM      3  N   UNL     1      -0.228  15.033  20.868  0.00  0.00    +0.000 N 
ATOM      4  C   UNL     1      -0.871  14.385  21.946  0.00  0.00    +0.000 C 
ATOM      5  O   UNL     1      -0.923  13.172  22.112  0.00  0.00    +0.000 OA
ATOM      6  N   UNL     1      -1.298  15.240  22.955  0.00  0.00    +0.000 N 
ATOM      7  H   UNL     1      -1.590  16.163  22.676  0.00  0.00    +0.000 HD
ENDROOT
BRANCH   1  11
ATOM      8  C   UNL     1      -1.946  10.003  17.936  0.00  0.00    +0.000 C 
ATOM      9  C   UNL     1      -1.076  11.102  18.438  0.00  0.00    +0.000 A 
ATOM     10  C   UNL     1      -1.464  12.415  18.625  0.00  0.00    +0.000 A 
ATOM     11  C   UNL     1      -0.415  13.131  19.243  0.00  0.00    +0.000 A 
ATOM     12  C   UNL     1       0.657  12.233  19.340  0.00  0.00    +0.000 A 
ATOM     13  C   UNL     1       2.073  12.519  19.721  0.00  0.00    +0.000 C 
ATOM     14  N   UNL     1       0.222  10.960  18.916  0.00  0.00    +0.000 N 
BRANCH  14  15
ATOM     15  C   UNL     1       0.998   9.752  18.955  0.00  0.00    +0.000 A 
ATOM     16  C   UNL     1       1.698   9.321  17.817  0.00  0.00    +0.000 A 
ATOM     17  C   UNL     1       2.443   8.137  17.847  0.00  0.00    +0.000 A 
ATOM     18  C   UNL     1       2.501   7.390  19.017  0.00  0.00    +0.000 A 
ATOM     19  F   UNL     1       3.217   6.258  19.043  0.00  0.00    +0.000 F 
ATOM     20  C   UNL     1       1.823   7.802  20.155  0.00  0.00    +0.000 A 
ATOM     21  C   UNL     1       1.067   8.980  20.125  0.00  0.00    +0.000 A 
ENDBRANCH  14  15
ENDBRANCH   1  11
BRANCH   6  22
ATOM     22  C   UNL     1      -1.681  14.807  24.297  0.00  0.00    +0.000 C 
ATOM     23  C   UNL     1      -1.295  15.860  25.356  0.00  0.00    +0.000 C 
ATOM     24  C   UNL     1      -2.095  17.156  25.228  0.00  0.00    +0.000 C 
ATOM     25  C   UNL     1      -3.599  16.899  25.185  0.00  0.00    +0.000 C 
ATOM     26  C   UNL     1      -3.982  15.834  24.159  0.00  0.00    +0.000 C 
ATOM     27  C   UNL     1      -3.187  14.545  24.353  0.00  0.00    +0.000 C 
ENDBRANCH   6  22
BRANCH   3  28
ATOM     28  C   UNL     1       0.358  16.395  21.113  0.00  0.00    +0.000 C 
ATOM     29  C   UNL     1       1.303  16.348  22.347  0.00  0.00    +0.000 C 
ATOM     30  C   UNL     1       2.465  15.395  22.069  0.00  0.00    +0.000 C 
ATOM     31  C   UNL     1       3.323  15.973  20.961  0.00  0.00    +0.000 C 
ATOM     32  C   UNL     1       2.513  16.302  19.711  0.00  0.00    +0.000 C 
ATOM     33  C   UNL     1       1.214  17.056  20.005  0.00  0.00    +0.000 C 
ENDBRANCH   3  28
TORSDOF 4
ENDMDL
MODEL 2
REMARK VINA RESULT:      -6.4      6.032      9.490
REMARK  Name = 
REMARK  6 active torsions:
REMARK  status: ('A' for Active; 'I' for Inactive)
REMARK    1  A    between atoms: C_1  and  C_2
REMARK    2  A    between atoms: C_4  and  C_5
REMARK    3  A    between atoms: N_7  and  C_17
REMARK    4  A    between atoms: N_10  and  C_11
REMARK    5  A    between atoms: C_23  and  C_24
REMARK    6  A    between atoms: N_25  and  C_26
REMARK                            x       y       z     vdW  Elec       q    Type
REMARK                         _______ _______ _______ _____ _____    ______ ____
ROOT
ATOM      1  C   UNL     1       6.750  16.064  20.334  0.00  0.00    +0.000 C 
ATOM      2  O   UNL     1       6.818  16.521  21.476  0.00  0.00    +0.000 OA
ATOM      3  N   UNL     1       7.896  15.575  19.658  0.00  0.00    +0.000 N 
ATOM      4  C   UNL     1       7.838  14.434  18.828  0.00  0.00    +0.000 C 
ATOM      5  O   UNL     1       6.958  14.201  18.008  0.00  0.00    +0.000 OA
ATOM      6  N   UNL     1       8.983  13.648  18.856  0.00  0.00    +0.000 N 
ATOM      7  H   UNL     1       9.490  13.612  19.727  0.00  0.00    +0.000 HD
ENDROOT
BRANCH   1  11
ATOM      8  C   UNL     1       2.959  16.885  17.032  0.00  0.00    +0.000 C 
ATOM      9  C   UNL     1       3.761  16.318  18.151  0.00  0.00    +0.000 A 
ATOM     10  C   UNL     1       5.051  16.683  18.482  0.00  0.00    +0.000 A 
ATOM     11  C   UNL     1       5.430  16.036  19.679  0.00  0.00    +0.000 A 
ATOM     12  C   UNL     1       4.361  15.193  20.013  0.00  0.00    +0.000 A 
ATOM     13  C   UNL     1       4.312  14.130  21.063  0.00  0.00    +0.000 C 
ATOM     14  N   UNL     1       3.300  15.427  19.114  0.00  0.00    +0.000 N 
BRANCH  14  15
ATOM     15  C   UNL     1       1.996  14.829  19.180  0.00  0.00    +0.000 A 
ATOM     16  C   UNL     1       1.741  13.609  18.535  0.00  0.00    +0.000 A 
ATOM     17  C   UNL     1       0.467  13.031  18.585  0.00  0.00    +0.000 A 
ATOM     18  C   UNL     1      -0.548  13.664  19.290  0.00  0.00    +0.000 A 
ATOM     19  F   UNL     1      -1.766  13.107  19.339  0.00  0.00    +0.000 F 
ATOM     20  C   UNL     1      -0.315  14.867  19.942  0.00  0.00    +0.000 A 
ATOM     21  C   UNL     1       0.954  15.454  19.883  0.00  0.00    +0.000 A 
ENDBRANCH  14  15
ENDBRANCH   1  11
BRANCH   6  22
ATOM     22  C   UNL     1       9.306  12.623  17.866  0.00  0.00    +0.000 C 
ATOM     23  C   UNL     1      10.638  12.933  17.152  0.00  0.00    +0.000 C 
ATOM     24  C   UNL     1      11.849  12.833  18.081  0.00  0.00    +0.000 C 
ATOM     25  C   UNL     1      11.887  11.505  18.832  0.00  0.00    +0.000 C 
ATOM     26  C   UNL     1      10.559  11.179  19.514  0.00  0.00    +0.000 C 
ATOM     27  C   UNL     1       9.386  11.252  18.538  0.00  0.00    +0.000 C 
ENDBRANCH   6  22
BRANCH   3  28
ATOM     28  C   UNL     1       9.251  16.087  20.061  0.00  0.00    +0.000 C 
ATOM     29  C   UNL     1      10.184  16.141  18.819  0.00  0.00    +0.000 C 
ATOM     30  C   UNL     1       9.615  17.118  17.791  0.00  0.00    +0.000 C 
ATOM     31  C   UNL     1       9.668  18.521  18.362  0.00  0.00    +0.000 C 
ATOM     32  C   UNL     1       8.982  18.622  19.719  0.00  0.00    +0.000 C 
ATOM     33  C   UNL     1       9.367  17.498  20.685  0.00  0.00    +0.000 C 
ENDBRANCH   3  28
TORSDOF 4
ENDMDL
MODEL 3
REMARK VINA RESULT:      -6.3      1.079      1.660
REMARK  Name = 
REMARK  6 active torsions:
REMARK  status: ('A' for Active; 'I' for Inactive)
REMARK    1  A    between atoms: C_1  and  C_2
REMARK    2  A    between atoms: C_4  and  C_5
REMARK    3  A    between atoms: N_7  and  C_17
REMARK    4  A    between atoms: N_10  and  C_11
REMARK    5  A    between atoms: C_23  and  C_24
REMARK    6  A    between atoms: N_25  and  C_26
REMARK                            x       y       z     vdW  Elec       q    Type
REMARK                         _______ _______ _______ _____ _____    ______ ____
ROOT
ATOM      1  C   UNL     1      -0.811  14.504  19.337  0.00  0.00    +0.000 C 
ATOM      2  O   UNL     1      -0.401  15.297  18.489  0.00  0.00    +0.000 OA
ATOM      3  N   UNL     1      -1.346  14.946  20.573  0.00  0.00    +0.000 N 
ATOM      4  C   UNL     1      -2.451  14.305  21.176  0.00  0.00    +0.000 C 
ATOM      5  O   UNL     1      -2.599  13.092  21.270  0.00  0.00    +0.000 OA
ATOM      6  N   UNL     1      -3.308  15.162  21.856  0.00  0.00    +0.000 N 
ATOM      7  H   UNL     1      -3.407  16.094  21.488  0.00  0.00    +0.000 HD
ENDROOT
BRANCH   1  11
ATOM      8  C   UNL     1      -1.763   9.914  17.342  0.00  0.00    +0.000 C 
ATOM      9  C   UNL     1      -1.093  11.030  18.065  0.00  0.00    +0.000 A 
ATOM     10  C   UNL     1      -1.559  12.327  18.153  0.00  0.00    +0.000 A 
ATOM     11  C   UNL     1      -0.734  13.064  19.032  0.00  0.00    +0.000 A 
ATOM     12  C   UNL     1       0.304  12.196  19.400  0.00  0.00    +0.000 A 
ATOM     13  C   UNL     1       1.561  12.518  20.142  0.00  0.00    +0.000 C 
ATOM     14  N   UNL     1       0.038  10.919  18.866  0.00  0.00    +0.000 N 
BRANCH  14  15
ATOM     15  C   UNL     1       0.816   9.734  19.097  0.00  0.00    +0.000 A 
ATOM     16  C   UNL     1       0.774   9.089  20.343  0.00  0.00    +0.000 A 
ATOM     17  C   UNL     1       1.542   7.942  20.576  0.00  0.00    +0.000 A 
ATOM     18  C   UNL     1       2.341   7.431  19.561  0.00  0.00    +0.000 A 
ATOM     19  F   UNL     1       3.074   6.332  19.786  0.00  0.00    +0.000 F 
ATOM     20  C   UNL     1       2.392   8.049  18.319  0.00  0.00    +0.000 A 
ATOM     21  C   UNL     1       1.634   9.203  18.087  0.00  0.00    +0.000 A 
ENDBRANCH  14  15
ENDBRANCH   1  11
BRANCH   6  22
ATOM     22  C   UNL     1      -4.315  14.727  22.823  0.00  0.00    +0.000 C 
ATOM     23  C   UNL     1      -3.687  14.469  24.208  0.00  0.00    +0.000 C 
ATOM     24  C   UNL     1      -3.173  15.744  24.876  0.00  0.00    +0.000 C 
ATOM     25  C   UNL     1      -4.235  16.840  24.914  0.00  0.00    +0.000 C 
ATOM     26  C   UNL     1      -4.881  17.076  23.550  0.00  0.00    +0.000 C 
ATOM     27  C   UNL     1      -5.416  15.781  22.941  0.00  0.00    +0.000 C 
ENDBRANCH   6  22
BRANCH   3  28
ATOM     28  C   UNL     1      -0.935  16.291  21.103  0.00  0.00    +0.000 C 
ATOM     29  C   UNL     1      -0.550  16.170  22.605  0.00  0.00    +0.000 C 
ATOM     30  C   UNL     1       0.649  15.235  22.755  0.00  0.00    +0.000 C 
ATOM     31  C   UNL     1       1.859  15.878  22.107  0.00  0.00    +0.000 C 
ATOM     32  C   UNL     1       1.599  16.282  20.660  0.00  0.00    +0.000 C 
ATOM     33  C   UNL     1       0.271  17.017  20.460  0.00  0.00    +0.000 C 
ENDBRANCH   3  28
TORSDOF 4
ENDMDL
MODEL 4
REMARK VINA RESULT:      -5.9      5.918      9.942
REMARK  Name = 
REMARK  6 active torsions:
REMARK  status: ('A' for Active; 'I' for Inactive)
REMARK    1  A    between atoms: C_1  and  C_2
REMARK    2  A    between atoms: C_4  and  C_5
REMARK    3  A    between atoms: N_7  and  C_17
REMARK    4  A    between atoms: N_10  and  C_11
REMARK    5  A    between atoms: C_23  and  C_24
REMARK    6  A    between atoms: N_25  and  C_26
REMARK                            x       y       z     vdW  Elec       q    Type
REMARK                         _______ _______ _______ _____ _____    ______ ____
ROOT
ATOM      1  C   UNL     1       4.138   4.826  19.785  0.00  0.00    +0.000 C 
ATOM      2  O   UNL     1       4.597   3.970  20.542  0.00  0.00    +0.000 OA
ATOM      3  N   UNL     1       2.872   5.421  20.013  0.00  0.00    +0.000 N 
ATOM      4  C   UNL     1       2.638   6.790  19.758  0.00  0.00    +0.000 C 
ATOM      5  O   UNL     1       3.012   7.397  18.761  0.00  0.00    +0.000 OA
ATOM      6  N   UNL     1       1.757   7.395  20.646  0.00  0.00    +0.000 N 
ATOM      7  H   UNL     1       1.760   7.054  21.594  0.00  0.00    +0.000 HD
ENDROOT
BRANCH   1  11
ATOM      8  C   UNL     1       7.537   7.210  16.831  0.00  0.00    +0.000 C 
ATOM      9  C   UNL     1       6.538   6.220  17.323  0.00  0.00    +0.000 A 
ATOM     10  C   UNL     1       5.938   6.232  18.566  0.00  0.00    +0.000 A 
ATOM     11  C   UNL     1       4.949   5.225  18.620  0.00  0.00    +0.000 A 
ATOM     12  C   UNL     1       5.035   4.539  17.400  0.00  0.00    +0.000 A 
ATOM     13  C   UNL     1       4.369   3.259  17.009  0.00  0.00    +0.000 C 
ATOM     14  N   UNL     1       5.961   5.203  16.570  0.00  0.00    +0.000 N 
BRANCH  14  15
ATOM     15  C   UNL     1       6.259   4.866  15.207  0.00  0.00    +0.000 A 
ATOM     16  C   UNL     1       5.332   4.150  14.434  0.00  0.00    +0.000 A 
ATOM     17  C   UNL     1       5.626   3.806  13.109  0.00  0.00    +0.000 A 
ATOM     18  C   UNL     1       6.839   4.190  12.552  0.00  0.00    +0.000 A 
ATOM     19  F   UNL     1       7.117   3.862  11.283  0.00  0.00    +0.000 F 
ATOM     20  C   UNL     1       7.766   4.905  13.296  0.00  0.00    +0.000 A 
ATOM     21  C   UNL     1       7.481   5.239  14.625  0.00  0.00    +0.000 A 
ENDBRANCH  14  15
ENDBRANCH   1  11
BRANCH   6  22
ATOM     22  C   UNL     1       1.103   8.681  20.414  0.00  0.00    +0.000 C 
ATOM     23  C   UNL     1      -0.403   8.611  20.744  0.00  0.00    +0.000 C 
ATOM     24  C   UNL     1      -0.678   8.409  22.234  0.00  0.00    +0.000 C 
ATOM     25  C   UNL     1       0.060   9.430  23.096  0.00  0.00    +0.000 C 
ATOM     26  C   UNL     1       1.545   9.525  22.750  0.00  0.00    +0.000 C 
ATOM     27  C   UNL     1       1.768   9.768  21.259  0.00  0.00    +0.000 C 
ENDBRANCH   6  22
BRANCH   3  28
ATOM     28  C   UNL     1       1.851   4.669  20.820  0.00  0.00    +0.000 C 
ATOM     29  C   UNL     1       0.605   4.366  19.941  0.00  0.00    +0.000 C 
ATOM     30  C   UNL     1       1.007   3.473  18.768  0.00  0.00    +0.000 C 
ATOM     31  C   UNL     1       1.429   2.118  19.302  0.00  0.00    +0.000 C 
ATOM     32  C   UNL     1       2.515   2.225  20.367  0.00  0.00    +0.000 C 
ATOM     33  C   UNL     1       2.232   3.296  21.424  0.00  0.00    +0.000 C 
ENDBRANCH   3  28
TORSDOF 4
ENDMDL
MODEL 5
REMARK VINA RESULT:      -5.8      3.193      5.605
REMARK  Name = 
REMARK  6 active torsions:
REMARK  status: ('A' for Active; 'I' for Inactive)
REMARK    1  A    between atoms: C_1  and  C_2
REMARK    2  A    between atoms: C_4  and  C_5
REMARK    3  A    between atoms: N_7  and  C_17
REMARK    4  A    between atoms: N_10  and  C_11
REMARK    5  A    between atoms: C_23  and  C_24
REMARK    6  A    between atoms: N_25  and  C_26
REMARK                            x       y       z     vdW  Elec       q    Type
REMARK                         _______ _______ _______ _____ _____    ______ ____
ROOT
ATOM      1  C   UNL     1       1.004  15.691  21.313  0.00  0.00    +0.000 C 
ATOM      2  O   UNL     1       0.400  16.728  21.587  0.00  0.00    +0.000 OA
ATOM      3  N   UNL     1       2.407  15.677  21.111  0.00  0.00    +0.000 N 
ATOM      4  C   UNL     1       3.212  14.607  21.561  0.00  0.00    +0.000 C 
ATOM      5  O   UNL     1       2.940  13.419  21.439  0.00  0.00    +0.000 OA
ATOM      6  N   UNL     1       4.475  14.987  21.999  0.00  0.00    +0.000 N 
ATOM      7  H   UNL     1       4.553  15.893  22.434  0.00  0.00    +0.000 HD
ENDROOT
BRANCH   1  11
ATOM      8  C   UNL     1      -1.742  11.568  22.501  0.00  0.00    +0.000 C 
ATOM      9  C   UNL     1      -1.090  12.655  21.721  0.00  0.00    +0.000 A 
ATOM     10  C   UNL     1      -0.350  13.694  22.251  0.00  0.00    +0.000 A 
ATOM     11  C   UNL     1       0.223  14.446  21.201  0.00  0.00    +0.000 A 
ATOM     12  C   UNL     1      -0.270  13.885  20.015  0.00  0.00    +0.000 A 
ATOM     13  C   UNL     1      -0.155  14.415  18.622  0.00  0.00    +0.000 C 
ATOM     14  N   UNL     1      -1.017  12.732  20.334  0.00  0.00    +0.000 N 
BRANCH  14  15
ATOM     15  C   UNL     1      -1.608  11.826  19.390  0.00  0.00    +0.000 A 
ATOM     16  C   UNL     1      -2.959  11.955  19.032  0.00  0.00    +0.000 A 
ATOM     17  C   UNL     1      -3.542  11.064  18.122  0.00  0.00    +0.000 A 
ATOM     18  C   UNL     1      -2.772  10.055  17.560  0.00  0.00    +0.000 A 
ATOM     19  F   UNL     1      -3.331   9.205  16.687  0.00  0.00    +0.000 F 
ATOM     20  C   UNL     1      -1.432   9.914  17.893  0.00  0.00    +0.000 A 
ATOM     21  C   UNL     1      -0.850  10.796  18.812  0.00  0.00    +0.000 A 
ENDBRANCH  14  15
ENDBRANCH   1  11
BRANCH   6  22
ATOM     22  C   UNL     1       5.592  14.066  22.196  0.00  0.00    +0.000 C 
ATOM     23  C   UNL     1       6.842  14.527  21.418  0.00  0.00    +0.000 C 
ATOM     24  C   UNL     1       7.436  15.827  21.960  0.00  0.00    +0.000 C 
ATOM     25  C   UNL     1       7.680  15.760  23.466  0.00  0.00    +0.000 C 
ATOM     26  C   UNL     1       6.454  15.273  24.237  0.00  0.00    +0.000 C 
ATOM     27  C   UNL     1       5.922  13.953  23.684  0.00  0.00    +0.000 C 
ENDBRANCH   6  22
BRANCH   3  28
ATOM     28  C   UNL     1       3.093  16.946  20.686  0.00  0.00    +0.000 C 
ATOM     29  C   UNL     1       4.216  16.620  19.662  0.00  0.00    +0.000 C 
ATOM     30  C   UNL     1       3.605  15.991  18.411  0.00  0.00    +0.000 C 
ATOM     31  C   UNL     1       2.746  17.024  17.709  0.00  0.00    +0.000 C 
ATOM     32  C   UNL     1       1.702  17.637  18.636  0.00  0.00    +0.000 C 
ATOM     33  C   UNL     1       2.262  18.055  19.997  0.00  0.00    +0.000 C 
ENDBRANCH   3  28
TORSDOF 4
ENDMDL
MODEL 6
REMARK VINA RESULT:      -5.7      6.349      9.770
REMARK  Name = 
REMARK  6 active torsions:
REMARK  status: ('A' for Active; 'I' for Inactive)
REMARK    1  A    between atoms: C_1  and  C_2
REMARK    2  A    between atoms: C_4  and  C_5
REMARK    3  A    between atoms: N_7  and  C_17
REMARK    4  A    between atoms: N_10  and  C_11
REMARK    5  A    between atoms: C_23  and  C_24
REMARK    6  A    between atoms: N_25  and  C_26
REMARK                            x       y       z     vdW  Elec       q    Type
REMARK                         _______ _______ _______ _____ _____    ______ ____
ROOT
ATOM      1  C   UNL     1       7.463  16.470  20.542  0.00  0.00    +0.000 C 
ATOM      2  O   UNL     1       7.647  17.331  21.403  0.00  0.00    +0.000 OA
ATOM      3  N   UNL     1       8.535  15.721  19.995  0.00  0.00    +0.000 N 
ATOM      4  C   UNL     1       8.401  14.350  19.683  0.00  0.00    +0.000 C 
ATOM      5  O   UNL     1       7.440  13.847  19.113  0.00  0.00    +0.000 OA
ATOM      6  N   UNL     1       9.550  13.600  19.897  0.00  0.00    +0.000 N 
ATOM      7  H   UNL     1      10.147  13.887  20.657  0.00  0.00    +0.000 HD
ENDROOT
BRANCH   1  11
ATOM      8  C   UNL     1       3.232  16.434  17.704  0.00  0.00    +0.000 C 
ATOM      9  C   UNL     1       4.217  16.127  18.778  0.00  0.00    +0.000 A 
ATOM     10  C   UNL     1       5.498  16.637  18.866  0.00  0.00    +0.000 A 
ATOM     11  C   UNL     1       6.081  16.233  20.087  0.00  0.00    +0.000 A 
ATOM     12  C   UNL     1       5.146  15.383  20.695  0.00  0.00    +0.000 A 
ATOM     13  C   UNL     1       5.330  14.514  21.898  0.00  0.00    +0.000 C 
ATOM     14  N   UNL     1       3.966  15.382  19.925  0.00  0.00    +0.000 N 
BRANCH  14  15
ATOM     15  C   UNL     1       2.743  14.709  20.264  0.00  0.00    +0.000 A 
ATOM     16  C   UNL     1       2.479  13.423  19.768  0.00  0.00    +0.000 A 
ATOM     17  C   UNL     1       1.282  12.771  20.085  0.00  0.00    +0.000 A 
ATOM     18  C   UNL     1       0.354  13.397  20.908  0.00  0.00    +0.000 A 
ATOM     19  F   UNL     1      -0.790  12.769  21.211  0.00  0.00    +0.000 F 
ATOM     20  C   UNL     1       0.599  14.665  21.415  0.00  0.00    +0.000 A 
ATOM     21  C   UNL     1       1.789  15.325  21.090  0.00  0.00    +0.000 A 
ENDBRANCH  14  15
ENDBRANCH   1  11
BRANCH   6  22
ATOM     22  C   UNL     1       9.776  12.262  19.354  0.00  0.00    +0.000 C 
ATOM     23  C   UNL     1       9.737  12.269  17.812  0.00  0.00    +0.000 C 
ATOM     24  C   UNL     1      10.903  13.037  17.190  0.00  0.00    +0.000 C 
ATOM     25  C   UNL     1      12.251  12.572  17.736  0.00  0.00    +0.000 C 
ATOM     26  C   UNL     1      12.283  12.534  19.262  0.00  0.00    +0.000 C 
ATOM     27  C   UNL     1      11.123  11.722  19.835  0.00  0.00    +0.000 C 
ENDBRANCH   6  22
BRANCH   3  28
ATOM     28  C   UNL     1       9.920  16.305  20.028  0.00  0.00    +0.000 C 
ATOM     29  C   UNL     1      10.662  15.974  18.702  0.00  0.00    +0.000 C 
ATOM     30  C   UNL     1       9.926  16.614  17.527  0.00  0.00    +0.000 C 
ATOM     31  C   UNL     1      10.023  18.122  17.645  0.00  0.00    +0.000 C 
ATOM     32  C   UNL     1       9.538  18.631  18.998  0.00  0.00    +0.000 C 
ATOM     33  C   UNL     1      10.088  17.835  20.184  0.00  0.00    +0.000 C 
ENDBRANCH   3  28
TORSDOF 4
ENDMDL
MODEL 7
REMARK VINA RESULT:      -5.7      5.761      9.696
REMARK  Name = 
REMARK  6 active torsions:
REMARK  status: ('A' for Active; 'I' for Inactive)
REMARK    1  A    between atoms: C_1  and  C_2
REMARK    2  A    between atoms: C_4  and  C_5
REMARK    3  A    between atoms: N_7  and  C_17
REMARK    4  A    between atoms: N_10  and  C_11
REMARK    5  A    between atoms: C_23  and  C_24
REMARK    6  A    between atoms: N_25  and  C_26
REMARK                            x       y       z     vdW  Elec       q    Type
REMARK                         _______ _______ _______ _____ _____    ______ ____
ROOT
ATOM      1  C   UNL     1       5.627  14.018  22.333  0.00  0.00    +0.000 C 
ATOM      2  O   UNL     1       5.177  13.141  23.070  0.00  0.00    +0.000 OA
ATOM      3  N   UNL     1       6.968  13.990  21.874  0.00  0.00    +0.000 N 
ATOM      4  C   UNL     1       7.314  14.392  20.565  0.00  0.00    +0.000 C 
ATOM      5  O   UNL     1       6.886  15.389  19.996  0.00  0.00    +0.000 OA
ATOM      6  N   UNL     1       8.357  13.667  20.001  0.00  0.00    +0.000 N 
ATOM      7  H   UNL     1       8.435  12.698  20.267  0.00  0.00    +0.000 HD
ENDROOT
BRANCH   1  11
ATOM      8  C   UNL     1       3.517  18.630  21.853  0.00  0.00    +0.000 C 
ATOM      9  C   UNL     1       3.838  17.193  21.634  0.00  0.00    +0.000 A 
ATOM     10  C   UNL     1       4.806  16.473  22.308  0.00  0.00    +0.000 A 
ATOM     11  C   UNL     1       4.726  15.114  21.931  0.00  0.00    +0.000 A 
ATOM     12  C   UNL     1       3.740  15.049  20.937  0.00  0.00    +0.000 A 
ATOM     13  C   UNL     1       3.396  13.898  20.048  0.00  0.00    +0.000 C 
ATOM     14  N   UNL     1       3.139  16.318  20.811  0.00  0.00    +0.000 N 
BRANCH  14  15
ATOM     15  C   UNL     1       2.024  16.638  19.965  0.00  0.00    +0.000 A 
ATOM     16  C   UNL     1       2.234  17.167  18.682  0.00  0.00    +0.000 A 
ATOM     17  C   UNL     1       1.149  17.494  17.860  0.00  0.00    +0.000 A 
ATOM     18  C   UNL     1      -0.146  17.279  18.314  0.00  0.00    +0.000 A 
ATOM     19  F   UNL     1      -1.183  17.591  17.525  0.00  0.00    +0.000 F 
ATOM     20  C   UNL     1      -0.377  16.750  19.576  0.00  0.00    +0.000 A 
ATOM     21  C   UNL     1       0.706  16.434  20.405  0.00  0.00    +0.000 A 
ENDBRANCH  14  15
ENDBRANCH   1  11
BRANCH   6  22
ATOM     22  C   UNL     1       9.111  14.087  18.822  0.00  0.00    +0.000 C 
ATOM     23  C   UNL     1      10.598  14.317  19.161  0.00  0.00    +0.000 C 
ATOM     24  C   UNL     1      11.331  13.028  19.533  0.00  0.00    +0.000 C 
ATOM     25  C   UNL     1      11.136  11.935  18.485  0.00  0.00    +0.000 C 
ATOM     26  C   UNL     1       9.666  11.726  18.124  0.00  0.00    +0.000 C 
ATOM     27  C   UNL     1       8.989  13.034  17.720  0.00  0.00    +0.000 C 
ENDBRANCH   6  22
BRANCH   3  28
ATOM     28  C   UNL     1       7.995  13.242  22.677  0.00  0.00    +0.000 C 
ATOM     29  C   UNL     1       9.361  13.982  22.605  0.00  0.00    +0.000 C 
ATOM     30  C   UNL     1       9.225  15.373  23.221  0.00  0.00    +0.000 C 
ATOM     31  C   UNL     1       8.953  15.231  24.706  0.00  0.00    +0.000 C 
ATOM     32  C   UNL     1       7.754  14.335  24.993  0.00  0.00    +0.000 C 
ATOM     33  C   UNL     1       7.758  13.031  24.192  0.00  0.00    +0.000 C 
ENDBRANCH   3  28
TORSDOF 4
ENDMDL
MODEL 8
REMARK VINA RESULT:      -5.7      4.331      7.282
REMARK  Name = 
REMARK  6 active torsions:
REMARK  status: ('A' for Active; 'I' for Inactive)
REMARK    1  A    between atoms: C_1  and  C_2
REMARK    2  A    between atoms: C_4  and  C_5
REMARK    3  A    between atoms: N_7  and  C_17
REMARK    4  A    between atoms: N_10  and  C_11
REMARK    5  A    between atoms: C_23  and  C_24
REMARK    6  A    between atoms: N_25  and  C_26
REMARK                            x       y       z     vdW  Elec       q    Type
REMARK                         _______ _______ _______ _____ _____    ______ ____
ROOT
ATOM      1  C   UNL     1       3.424  16.423  18.446  0.00  0.00    +0.000 C 
ATOM      2  O   UNL     1       3.309  17.048  17.391  0.00  0.00    +0.000 OA
ATOM      3  N   UNL     1       2.350  15.674  18.988  0.00  0.00    +0.000 N 
ATOM      4  C   UNL     1       2.558  14.430  19.625  0.00  0.00    +0.000 C 
ATOM      5  O   UNL     1       3.450  14.189  20.430  0.00  0.00    +0.000 OA
ATOM      6  N   UNL     1       1.538  13.508  19.425  0.00  0.00    +0.000 N 
ATOM      7  H   UNL     1       1.056  13.546  18.541  0.00  0.00    +0.000 HD
ENDROOT
BRANCH   1  11
ATOM      8  C   UNL     1       7.075  17.496  21.832  0.00  0.00    +0.000 C 
ATOM      9  C   UNL     1       6.333  16.866  20.706  0.00  0.00    +0.000 A 
ATOM     10  C   UNL     1       5.038  17.163  20.329  0.00  0.00    +0.000 A 
ATOM     11  C   UNL     1       4.724  16.470  19.139  0.00  0.00    +0.000 A 
ATOM     12  C   UNL     1       5.839  15.669  18.857  0.00  0.00    +0.000 A 
ATOM     13  C   UNL     1       5.966  14.584  17.837  0.00  0.00    +0.000 C 
ATOM     14  N   UNL     1       6.861  15.973  19.780  0.00  0.00    +0.000 N 
BRANCH  14  15
ATOM     15  C   UNL     1       8.192  15.434  19.767  0.00  0.00    +0.000 A 
ATOM     16  C   UNL     1       8.508  14.304  20.537  0.00  0.00    +0.000 A 
ATOM     17  C   UNL     1       9.807  13.784  20.538  0.00  0.00    +0.000 A 
ATOM     18  C   UNL     1      10.788  14.384  19.759  0.00  0.00    +0.000 A 
ATOM     19  F   UNL     1      12.031  13.883  19.759  0.00  0.00    +0.000 F 
ATOM     20  C   UNL     1      10.496  15.497  18.983  0.00  0.00    +0.000 A 
ATOM     21  C   UNL     1       9.200  16.026  18.990  0.00  0.00    +0.000 A 
ENDBRANCH  14  15
ENDBRANCH   1  11
BRANCH   6  22
ATOM     22  C   UNL     1       1.351  12.298  20.224  0.00  0.00    +0.000 C 
ATOM     23  C   UNL     1       0.229  12.483  21.266  0.00  0.00    +0.000 C 
ATOM     24  C   UNL     1      -1.154  12.632  20.633  0.00  0.00    +0.000 C 
ATOM     25  C   UNL     1      -1.457  11.507  19.646  0.00  0.00    +0.000 C 
ATOM     26  C   UNL     1      -0.333  11.300  18.632  0.00  0.00    +0.000 C 
ATOM     27  C   UNL     1       1.021  11.115  19.313  0.00  0.00    +0.000 C 
ENDBRANCH   6  22
BRANCH   3  28
ATOM     28  C   UNL     1       0.942  16.051  18.620  0.00  0.00    +0.000 C 
ATOM     29  C   UNL     1       0.024  15.943  19.871  0.00  0.00    +0.000 C 
ATOM     30  C   UNL     1       0.495  16.928  20.941  0.00  0.00    +0.000 C 
ATOM     31  C   UNL     1       0.281  18.342  20.438  0.00  0.00    +0.000 C 
ATOM     32  C   UNL     1       0.935  18.582  19.082  0.00  0.00    +0.000 C 
ATOM     33  C   UNL     1       0.663  17.469  18.067  0.00  0.00    +0.000 C 
ENDBRANCH   3  28
TORSDOF 4
ENDMDL
MODEL 9
REMARK VINA RESULT:      -5.5      4.019      7.005
REMARK  Name = 
REMARK  6 active torsions:
REMARK  status: ('A' for Active; 'I' for Inactive)
REMARK    1  A    between atoms: C_1  and  C_2
REMARK    2  A    between atoms: C_4  and  C_5
REMARK    3  A    between atoms: N_7  and  C_17
REMARK    4  A    between atoms: N_10  and  C_11
REMARK    5  A    between atoms: C_23  and  C_24
REMARK    6  A    between atoms: N_25  and  C_26
REMARK                            x       y       z     vdW  Elec       q    Type
REMARK                         _______ _______ _______ _____ _____    ______ ____
ROOT
ATOM      1  C   UNL     1       3.029  15.922  18.117  0.00  0.00    +0.000 C 
ATOM      2  O   UNL     1       2.913  16.771  17.233  0.00  0.00    +0.000 OA
ATOM      3  N   UNL     1       1.899  15.349  18.753  0.00  0.00    +0.000 N 
ATOM      4  C   UNL     1       1.861  13.984  19.112  0.00  0.00    +0.000 C 
ATOM      5  O   UNL     1       2.776  13.369  19.648  0.00  0.00    +0.000 OA
ATOM      6  N   UNL     1       0.608  13.396  18.994  0.00  0.00    +0.000 N 
ATOM      7  H   UNL     1       0.012  13.738  18.258  0.00  0.00    +0.000 HD
ENDROOT
BRANCH   1  11
ATOM      8  C   UNL     1       7.737  13.983  17.946  0.00  0.00    +0.000 C 
ATOM      9  C   UNL     1       6.532  14.731  18.399  0.00  0.00    +0.000 A 
ATOM     10  C   UNL     1       5.345  14.844  17.701  0.00  0.00    +0.000 A 
ATOM     11  C   UNL     1       4.390  15.508  18.503  0.00  0.00    +0.000 A 
ATOM     12  C   UNL     1       5.065  15.878  19.674  0.00  0.00    +0.000 A 
ATOM     13  C   UNL     1       4.594  16.782  20.768  0.00  0.00    +0.000 C 
ATOM     14  N   UNL     1       6.364  15.330  19.642  0.00  0.00    +0.000 N 
BRANCH  14  15
ATOM     15  C   UNL     1       7.333  15.405  20.699  0.00  0.00    +0.000 A 
ATOM     16  C   UNL     1       7.356  14.433  21.711  0.00  0.00    +0.000 A 
ATOM     17  C   UNL     1       8.290  14.511  22.751  0.00  0.00    +0.000 A 
ATOM     18  C   UNL     1       9.209  15.551  22.773  0.00  0.00    +0.000 A 
ATOM     19  F   UNL     1      10.104  15.622  23.768  0.00  0.00    +0.000 F 
ATOM     20  C   UNL     1       9.209  16.519  21.778  0.00  0.00    +0.000 A 
ATOM     21  C   UNL     1       8.268  16.450  20.744  0.00  0.00    +0.000 A 
ENDBRANCH  14  15
ENDBRANCH   1  11
BRANCH   6  22
ATOM     22  C   UNL     1       0.234  12.121  19.603  0.00  0.00    +0.000 C 
ATOM     23  C   UNL     1      -0.789  12.322  20.740  0.00  0.00    +0.000 C 
ATOM     24  C   UNL     1      -2.146  12.817  20.241  0.00  0.00    +0.000 C 
ATOM     25  C   UNL     1      -2.694  11.946  19.113  0.00  0.00    +0.000 C 
ATOM     26  C   UNL     1      -1.673  11.719  18.000  0.00  0.00    +0.000 C 
ATOM     27  C   UNL     1      -0.349  11.185  18.543  0.00  0.00    +0.000 C 
ENDBRANCH   6  22
BRANCH   3  28
ATOM     28  C   UNL     1       0.608  16.120  18.774  0.00  0.00    +0.000 C 
ATOM     29  C   UNL     1      -0.093  15.933  20.149  0.00  0.00    +0.000 C 
ATOM     30  C   UNL     1       0.792  16.496  21.260  0.00  0.00    +0.000 C 
ATOM     31  C   UNL     1       0.897  17.999  21.092  0.00  0.00    +0.000 C 
ATOM     32  C   UNL     1       1.369  18.397  19.698  0.00  0.00    +0.000 C 
ATOM     33  C   UNL     1       0.645  17.654  18.572  0.00  0.00    +0.000 C 
ENDBRANCH   3  28
TORSDOF 4
ENDMDL
