MODEL 1
REMARK VINA RESULT:      -7.5      0.000      0.000
REMARK  Name = 
REMARK  12 active torsions:
REMARK  status: ('A' for Active; 'I' for Inactive)
REMARK    1  A    between atoms: C_1  and  C_2
REMARK    2  A    between atoms: C_2  and  C_3
REMARK    3  A    between atoms: C_3  and  N_4
REMARK    4  A    between atoms: C_9  and  C_10
REMARK    5  A    between atoms: C_13  and  O_14
REMARK    6  A    between atoms: O_14  and  C_15
REMARK    7  A    between atoms: C_15  and  C_16
REMARK    8  A    between atoms: C_15  and  C_17
REMARK    9  A    between atoms: C_17  and  O_19
REMARK   10  A    between atoms: N_24  and  C_25
REMARK   11  A    between atoms: C_25  and  C_26
REMARK   12  A    between atoms: C_26  and  C_27
REMARK                            x       y       z     vdW  Elec       q    Type
REMARK                         _______ _______ _______ _____ _____    ______ ____
ROOT
ATOM      1  N   UNL     1       4.395   5.166  18.042  0.00  0.00    +0.000 N 
ATOM      2  C   UNL     1       3.847   6.450  17.973  0.00  0.00    +0.000 A 
ATOM      3  O   UNL     1       4.182   7.314  17.166  0.00  0.00    +0.000 OA
ATOM      4  C   UNL     1       2.851   6.690  18.965  0.00  0.00    +0.000 A 
ATOM      5  N   UNL     1       2.191   7.865  19.221  0.00  0.00    +0.000 N 
ATOM      6  C   UNL     1       1.406   7.725  20.353  0.00  0.00    +0.000 A 
ATOM      7  C   UNL     1       1.489   6.383  20.713  0.00  0.00    +0.000 A 
ATOM      8  C   UNL     1       2.442   5.762  19.876  0.00  0.00    +0.000 A 
ATOM      9  N   UNL     1       3.012   4.498  19.895  0.00  0.00    +0.000 N 
ATOM     10  C   UNL     1       4.045   4.189  18.994  0.00  0.00    +0.000 A 
ATOM     11  O   UNL     1       4.634   3.106  19.045  0.00  0.00    +0.000 OA
ATOM     12  H   UNL     1       2.356   8.727  18.715  0.00  0.00    +0.000 HD
ENDROOT
BRANCH   6  13
ATOM     13  C   UNL     1       0.763   8.849  21.045  0.00  0.00    +0.000 A 
ATOM     14  C   UNL     1       0.785  10.156  20.548  0.00  0.00    +0.000 A 
ATOM     15  C   UNL     1       0.250  11.214  21.300  0.00  0.00    +0.000 A 
ATOM     16  C   UNL     1      -0.337  10.986  22.548  0.00  0.00    +0.000 A 
ATOM     17  C   UNL     1      -0.396   9.685  23.033  0.00  0.00    +0.000 A 
ATOM     18  C   UNL     1       0.156   8.632  22.292  0.00  0.00    +0.000 A 
BRANCH  16  19
ATOM     19  O   UNL     1      -0.745  12.103  23.224  0.00  0.00    +0.000 OA
BRANCH  19  20
ATOM     20  C   UNL     1      -1.710  12.960  22.586  0.00  0.00    +0.000 C 
ATOM     21  C   UNL     1      -3.138  12.496  22.855  0.00  0.00    +0.000 C 
BRANCH  20  22
ATOM     22  C   UNL     1      -1.552  14.350  23.213  0.00  0.00    +0.000 C 
ATOM     23  O   UNL     1      -0.976  14.569  24.270  0.00  0.00    +0.000 OA
BRANCH  22  24
ATOM     24  O   UNL     1      -2.094  15.344  22.466  0.00  0.00    +0.000 OA
ATOM     25  H   UNL     1      -2.653  15.913  23.040  0.00  0.00    +0.000 HD
ENDBRANCH  22  24
ENDBRANCH  20  22
ENDBRANCH  19  20
ENDBRANCH  16  19
ENDBRANCH   6  13
BRANCH   1  26
ATOM     26  C   UNL     1       5.491   4.847  17.129  0.00  0.00    +0.000 C 
BRANCH  26  28
ATOM     27  C   UNL     1       6.193   3.921  14.861  0.00  0.00    +0.000 C 
ATOM     28  C   UNL     1       5.037   4.304  15.769  0.00  0.00    +0.000 C 
ENDBRANCH  26  28
ENDBRANCH   1  26
BRANCH   9  29
ATOM     29  C   UNL     1       2.657   3.508  20.914  0.00  0.00    +0.000 C 
BRANCH  29  30
ATOM     30  C   UNL     1       1.269   2.889  20.729  0.00  0.00    +0.000 C 
ATOM     31  C   UNL     1       0.938   2.543  19.285  0.00  0.00    +0.000 C 
ENDBRANCH  29  30
ENDBRANCH   9  29
TORSDOF 9
ENDMDL
MODEL 2
REMARK VINA RESULT:      -7.5      0.832      1.438
REMARK  Name = 
REMARK  12 active torsions:
REMARK  status: ('A' for Active; 'I' for Inactive)
REMARK    1  A    between atoms: C_1  and  C_2
REMARK    2  A    between atoms: C_2  and  C_3
REMARK    3  A    between atoms: C_3  and  N_4
REMARK    4  A    between atoms: C_9  and  C_10
REMARK    5  A    between atoms: C_13  and  O_14
REMARK    6  A    between atoms: O_14  and  C_15
REMARK    7  A    between atoms: C_15  and  C_16
REMARK    8  A    between atoms: C_15  and  C_17
REMARK    9  A    between atoms: C_17  and  O_19
REMARK   10  A    between atoms: N_24  and  C_25
REMARK   11  A    between atoms: C_25  and  C_26
REMARK   12  A    between atoms: C_26  and  C_27
REMARK                            x       y       z     vdW  Elec       q    Type
REMARK                         _______ _______ _______ _____ _____    ______ ____
ROOT
ATOM      1  N   UNL     1       4.375   5.055  18.244  0.00  0.00    +0.000 N 
ATOM      2  C   UNL     1       3.877   6.357  18.142  0.00  0.00    +0.000 A 
ATOM      3  O   UNL     1       4.260   7.192  17.326  0.00  0.00    +0.000 OA
ATOM      4  C   UNL     1       2.873   6.653  19.110  0.00  0.00    +0.000 A 
ATOM      5  N   UNL     1       2.253   7.856  19.332  0.00  0.00    +0.000 N 
ATOM      6  C   UNL     1       1.442   7.767  20.450  0.00  0.00    +0.000 A 
ATOM      7  C   UNL     1       1.467   6.429  20.836  0.00  0.00    +0.000 A 
ATOM      8  C   UNL     1       2.412   5.758  20.029  0.00  0.00    +0.000 A 
ATOM      9  N   UNL     1       2.933   4.474  20.081  0.00  0.00    +0.000 N 
ATOM     10  C   UNL     1       3.971   4.109  19.206  0.00  0.00    +0.000 A 
ATOM     11  O   UNL     1       4.518   3.006  19.289  0.00  0.00    +0.000 OA
ATOM     12  H   UNL     1       2.460   8.702  18.814  0.00  0.00    +0.000 HD
ENDROOT
BRANCH   6  13
ATOM     13  C   UNL     1       0.829   8.927  21.110  0.00  0.00    +0.000 A 
ATOM     14  C   UNL     1       0.227   8.850  22.369  0.00  0.00    +0.000 A 
ATOM     15  C   UNL     1      -0.440   9.961  22.910  0.00  0.00    +0.000 A 
ATOM     16  C   UNL     1      -0.497  11.174  22.217  0.00  0.00    +0.000 A 
ATOM     17  C   UNL     1       0.132  11.270  20.981  0.00  0.00    +0.000 A 
ATOM     18  C   UNL     1       0.778  10.155  20.432  0.00  0.00    +0.000 A 
BRANCH  16  19
ATOM     19  O   UNL     1      -1.246  12.157  22.804  0.00  0.00    +0.000 OA
BRANCH  19  20
ATOM     20  C   UNL     1      -2.672  12.121  22.613  0.00  0.00    +0.000 C 
ATOM     21  C   UNL     1      -3.417  12.592  23.859  0.00  0.00    +0.000 C 
BRANCH  20  22
ATOM     22  C   UNL     1      -2.995  13.106  21.484  0.00  0.00    +0.000 C 
ATOM     23  O   UNL     1      -3.459  12.783  20.400  0.00  0.00    +0.000 OA
BRANCH  22  24
ATOM     24  O   UNL     1      -2.744  14.399  21.808  0.00  0.00    +0.000 OA
ATOM     25  H   UNL     1      -3.592  14.895  21.841  0.00  0.00    +0.000 HD
ENDBRANCH  22  24
ENDBRANCH  20  22
ENDBRANCH  19  20
ENDBRANCH  16  19
ENDBRANCH   6  13
BRANCH   1  26
ATOM     26  C   UNL     1       5.476   4.678  17.358  0.00  0.00    +0.000 C 
BRANCH  26  28
ATOM     27  C   UNL     1       6.128   4.144  14.954  0.00  0.00    +0.000 C 
ATOM     28  C   UNL     1       5.026   4.128  16.000  0.00  0.00    +0.000 C 
ENDBRANCH  26  28
ENDBRANCH   1  26
BRANCH   9  29
ATOM     29  C   UNL     1       2.522   3.517  21.111  0.00  0.00    +0.000 C 
BRANCH  29  30
ATOM     30  C   UNL     1       1.134   2.910  20.884  0.00  0.00    +0.000 C 
ATOM     31  C   UNL     1       0.836   2.589  19.428  0.00  0.00    +0.000 C 
ENDBRANCH  29  30
ENDBRANCH   9  29
TORSDOF 9
ENDMDL
MODEL 3
REMARK VINA RESULT:      -7.3      0.697      1.119
REMARK  Name = 
REMARK  12 active torsions:
REMARK  status: ('A' for Active; 'I' for Inactive)
REMARK    1  A    between atoms: C_1  and  C_2
REMARK    2  A    between atoms: C_2  and  C_3
REMARK    3  A    between atoms: C_3  and  N_4
REMARK    4  A    between atoms: C_9  and  C_10
REMARK    5  A    between atoms: C_13  and  O_14
REMARK    6  A    between atoms: O_14  and  C_15
REMARK    7  A    between atoms: C_15  and  C_16
REMARK    8  A    between atoms: C_15  and  C_17
REMARK    9  A    between atoms: C_17  and  O_19
REMARK   10  A    between atoms: N_24  and  C_25
REMARK   11  A    between atoms: C_25  and  C_26
REMARK   12  A    between atoms: C_26  and  C_27
REMARK                            x       y       z     vdW  Elec       q    Type
REMARK                         _______ _______ _______ _____ _____    ______ ____
ROOT
ATOM      1  N   UNL     1       4.453   4.986  18.245  0.00  0.00    +0.000 N 
ATOM      2  C   UNL     1       3.955   6.285  18.108  0.00  0.00    +0.000 A 
ATOM      3  O   UNL     1       4.347   7.103  17.280  0.00  0.00    +0.000 OA
ATOM      4  C   UNL     1       2.938   6.601  19.056  0.00  0.00    +0.000 A 
ATOM      5  N   UNL     1       2.314   7.808  19.244  0.00  0.00    +0.000 N 
ATOM      6  C   UNL     1       1.489   7.742  20.354  0.00  0.00    +0.000 A 
ATOM      7  C   UNL     1       1.510   6.413  20.768  0.00  0.00    +0.000 A 
ATOM      8  C   UNL     1       2.466   5.725  19.988  0.00  0.00    +0.000 A 
ATOM      9  N   UNL     1       2.987   4.443  20.075  0.00  0.00    +0.000 N 
ATOM     10  C   UNL     1       4.036   4.061  19.222  0.00  0.00    +0.000 A 
ATOM     11  O   UNL     1       4.582   2.960  19.335  0.00  0.00    +0.000 OA
ATOM     12  H   UNL     1       2.528   8.642  18.711  0.00  0.00    +0.000 HD
ENDROOT
BRANCH   6  13
ATOM     13  C   UNL     1       0.867   8.916  20.980  0.00  0.00    +0.000 A 
ATOM     14  C   UNL     1       0.548   8.966  22.340  0.00  0.00    +0.000 A 
ATOM     15  C   UNL     1      -0.143  10.068  22.870  0.00  0.00    +0.000 A 
ATOM     16  C   UNL     1      -0.506  11.147  22.060  0.00  0.00    +0.000 A 
ATOM     17  C   UNL     1      -0.159  11.122  20.714  0.00  0.00    +0.000 A 
ATOM     18  C   UNL     1       0.512  10.014  20.182  0.00  0.00    +0.000 A 
BRANCH  16  19
ATOM     19  O   UNL     1      -1.250  12.121  22.668  0.00  0.00    +0.000 OA
BRANCH  19  20
ATOM     20  C   UNL     1      -1.153  13.462  22.154  0.00  0.00    +0.000 C 
ATOM     21  C   UNL     1      -2.432  13.883  21.438  0.00  0.00    +0.000 C 
BRANCH  20  22
ATOM     22  C   UNL     1      -0.975  14.390  23.361  0.00  0.00    +0.000 C 
ATOM     23  O   UNL     1      -1.702  14.387  24.345  0.00  0.00    +0.000 OA
BRANCH  22  24
ATOM     24  O   UNL     1       0.098  15.213  23.257  0.00  0.00    +0.000 OA
ATOM     25  H   UNL     1       0.725  14.843  22.598  0.00  0.00    +0.000 HD
ENDBRANCH  22  24
ENDBRANCH  20  22
ENDBRANCH  19  20
ENDBRANCH  16  19
ENDBRANCH   6  13
BRANCH   1  26
ATOM     26  C   UNL     1       5.564   4.591  17.381  0.00  0.00    +0.000 C 
BRANCH  26  28
ATOM     27  C   UNL     1       6.020   4.498  14.876  0.00  0.00    +0.000 C 
ATOM     28  C   UNL     1       5.133   4.034  16.020  0.00  0.00    +0.000 C 
ENDBRANCH  26  28
ENDBRANCH   1  26
BRANCH   9  29
ATOM     29  C   UNL     1       2.564   3.508  21.120  0.00  0.00    +0.000 C 
BRANCH  29  30
ATOM     30  C   UNL     1       1.171   2.911  20.898  0.00  0.00    +0.000 C 
ATOM     31  C   UNL     1       0.848   2.632  19.439  0.00  0.00    +0.000 C 
ENDBRANCH  29  30
ENDBRANCH   9  29
TORSDOF 9
ENDMDL
MODEL 4
REMARK VINA RESULT:      -7.3      0.632      1.142
REMARK  Name = 
REMARK  12 active torsions:
REMARK  status: ('A' for Active; 'I' for Inactive)
REMARK    1  A    between atoms: C_1  and  C_2
REMARK    2  A    between atoms: C_2  and  C_3
REMARK    3  A    between atoms: C_3  and  N_4
REMARK    4  A    between atoms: C_9  and  C_10
REMARK    5  A    between atoms: C_13  and  O_14
REMARK    6  A    between atoms: O_14  and  C_15
REMARK    7  A    between atoms: C_15  and  C_16
REMARK    8  A    between atoms: C_15  and  C_17
REMARK    9  A    between atoms: C_17  and  O_19
REMARK   10  A    between atoms: N_24  and  C_25
REMARK   11  A    between atoms: C_25  and  C_26
REMARK   12  A    between atoms: C_26  and  C_27
REMARK                            x       y       z     vdW  Elec       q    Type
REMARK                         _______ _______ _______ _____ _____    ______ ____
ROOT
ATOM      1  N   UNL     1       4.477   5.167  18.094  0.00  0.00    +0.000 N 
ATOM      2  C   UNL     1       3.925   6.449  18.019  0.00  0.00    +0.000 A 
ATOM      3  O   UNL     1       4.273   7.317  17.223  0.00  0.00    +0.000 OA
ATOM      4  C   UNL     1       2.910   6.682  18.993  0.00  0.00    +0.000 A 
ATOM      5  N   UNL     1       2.241   7.853  19.241  0.00  0.00    +0.000 N 
ATOM      6  C   UNL     1       1.434   7.706  20.356  0.00  0.00    +0.000 A 
ATOM      7  C   UNL     1       1.515   6.363  20.712  0.00  0.00    +0.000 A 
ATOM      8  C   UNL     1       2.486   5.749  19.892  0.00  0.00    +0.000 A 
ATOM      9  N   UNL     1       3.060   4.486  19.916  0.00  0.00    +0.000 N 
ATOM     10  C   UNL     1       4.112   4.184  19.035  0.00  0.00    +0.000 A 
ATOM     11  O   UNL     1       4.704   3.103  19.093  0.00  0.00    +0.000 OA
ATOM     12  H   UNL     1       2.413   8.718  18.742  0.00  0.00    +0.000 HD
ENDROOT
BRANCH   6  13
ATOM     13  C   UNL     1       0.774   8.825  21.041  0.00  0.00    +0.000 A 
ATOM     14  C   UNL     1       0.754  10.123  20.521  0.00  0.00    +0.000 A 
ATOM     15  C   UNL     1       0.204  11.180  21.264  0.00  0.00    +0.000 A 
ATOM     16  C   UNL     1      -0.356  10.958  22.525  0.00  0.00    +0.000 A 
ATOM     17  C   UNL     1      -0.373   9.665  23.033  0.00  0.00    +0.000 A 
ATOM     18  C   UNL     1       0.194   8.614  22.301  0.00  0.00    +0.000 A 
BRANCH  16  19
ATOM     19  O   UNL     1      -0.781  12.076  23.190  0.00  0.00    +0.000 OA
BRANCH  19  20
ATOM     20  C   UNL     1      -1.950  12.752  22.690  0.00  0.00    +0.000 C 
ATOM     21  C   UNL     1      -3.207  12.337  23.450  0.00  0.00    +0.000 C 
BRANCH  20  22
ATOM     22  C   UNL     1      -1.738  14.250  22.936  0.00  0.00    +0.000 C 
ATOM     23  O   UNL     1      -2.563  15.115  22.677  0.00  0.00    +0.000 OA
BRANCH  22  24
ATOM     24  O   UNL     1      -0.541  14.539  23.506  0.00  0.00    +0.000 OA
ATOM     25  H   UNL     1       0.181  14.263  22.899  0.00  0.00    +0.000 HD
ENDBRANCH  22  24
ENDBRANCH  20  22
ENDBRANCH  19  20
ENDBRANCH  16  19
ENDBRANCH   6  13
BRANCH   1  26
ATOM     26  C   UNL     1       5.592   4.855  17.201  0.00  0.00    +0.000 C 
BRANCH  26  28
ATOM     27  C   UNL     1       7.472   5.492  18.799  0.00  0.00    +0.000 C 
ATOM     28  C   UNL     1       6.841   5.713  17.434  0.00  0.00    +0.000 C 
ENDBRANCH  26  28
ENDBRANCH   1  26
BRANCH   9  29
ATOM     29  C   UNL     1       2.689   3.491  20.925  0.00  0.00    +0.000 C 
BRANCH  29  30
ATOM     30  C   UNL     1       1.285   2.907  20.741  0.00  0.00    +0.000 C 
ATOM     31  C   UNL     1       0.962   2.527  19.304  0.00  0.00    +0.000 C 
ENDBRANCH  29  30
ENDBRANCH   9  29
TORSDOF 9
ENDMDL
MODEL 5
REMARK VINA RESULT:      -7.2      3.295      9.619
REMARK  Name = 
REMARK  12 active torsions:
REMARK  status: ('A' for Active; 'I' for Inactive)
REMARK    1  A    between atoms: C_1  and  C_2
REMARK    2  A    between atoms: C_2  and  C_3
REMARK    3  A    between atoms: C_3  and  N_4
REMARK    4  A    between atoms: C_9  and  C_10
REMARK    5  A    between atoms: C_13  and  O_14
REMARK    6  A    between atoms: O_14  and  C_15
REMARK    7  A    between atoms: C_15  and  C_16
REMARK    8  A    between atoms: C_15  and  C_17
REMARK    9  A    between atoms: C_17  and  O_19
REMARK   10  A    between atoms: N_24  and  C_25
REMARK   11  A    between atoms: C_25  and  C_26
REMARK   12  A    between atoms: C_26  and  C_27
REMARK                            x       y       z     vdW  Elec       q    Type
REMARK                         _______ _______ _______ _____ _____    ______ ____
ROOT
ATOM      1  N   UNL     1      -2.639  11.451  18.465  0.00  0.00    +0.000 N 
ATOM      2  C   UNL     1      -1.860  10.658  17.617  0.00  0.00    +0.000 A 
ATOM      3  O   UNL     1      -2.198  10.287  16.496  0.00  0.00    +0.000 OA
ATOM      4  C   UNL     1      -0.609  10.281  18.190  0.00  0.00    +0.000 A 
ATOM      5  N   UNL     1       0.337   9.443  17.659  0.00  0.00    +0.000 N 
ATOM      6  C   UNL     1       1.343   9.224  18.584  0.00  0.00    +0.000 A 
ATOM      7  C   UNL     1       1.065  10.065  19.658  0.00  0.00    +0.000 A 
ATOM      8  C   UNL     1      -0.188  10.674  19.426  0.00  0.00    +0.000 A 
ATOM      9  N   UNL     1      -0.996  11.470  20.224  0.00  0.00    +0.000 N 
ATOM     10  C   UNL     1      -2.273  11.840  19.768  0.00  0.00    +0.000 A 
ATOM     11  O   UNL     1      -3.050  12.471  20.489  0.00  0.00    +0.000 OA
ATOM     12  H   UNL     1       0.237   8.973  16.767  0.00  0.00    +0.000 HD
ENDROOT
BRANCH   6  13
ATOM     13  C   UNL     1       2.377   8.191  18.438  0.00  0.00    +0.000 A 
ATOM     14  C   UNL     1       3.329   8.214  17.415  0.00  0.00    +0.000 A 
ATOM     15  C   UNL     1       4.229   7.148  17.254  0.00  0.00    +0.000 A 
ATOM     16  C   UNL     1       4.211   6.053  18.122  0.00  0.00    +0.000 A 
ATOM     17  C   UNL     1       3.291   6.040  19.164  0.00  0.00    +0.000 A 
ATOM     18  C   UNL     1       2.380   7.093  19.313  0.00  0.00    +0.000 A 
BRANCH  16  19
ATOM     19  O   UNL     1       5.075   5.038  17.815  0.00  0.00    +0.000 OA
BRANCH  19  20
ATOM     20  C   UNL     1       6.359   5.390  17.267  0.00  0.00    +0.000 C 
ATOM     21  C   UNL     1       7.498   4.965  18.189  0.00  0.00    +0.000 C 
BRANCH  20  22
ATOM     22  C   UNL     1       6.513   4.610  15.957  0.00  0.00    +0.000 C 
ATOM     23  O   UNL     1       5.831   3.643  15.646  0.00  0.00    +0.000 OA
BRANCH  22  24
ATOM     24  O   UNL     1       7.471   5.112  15.139  0.00  0.00    +0.000 OA
ATOM     25  H   UNL     1       7.081   5.291  14.255  0.00  0.00    +0.000 HD
ENDBRANCH  22  24
ENDBRANCH  20  22
ENDBRANCH  19  20
ENDBRANCH  16  19
ENDBRANCH   6  13
BRANCH   1  26
ATOM     26  C   UNL     1      -3.980  11.814  18.011  0.00  0.00    +0.000 C 
BRANCH  26  28
ATOM     27  C   UNL     1      -6.411  11.239  18.513  0.00  0.00    +0.000 C 
ATOM     28  C   UNL     1      -5.024  10.707  18.191  0.00  0.00    +0.000 C 
ENDBRANCH  26  28
ENDBRANCH   1  26
BRANCH   9  29
ATOM     29  C   UNL     1      -0.610  11.836  21.588  0.00  0.00    +0.000 C 
BRANCH  29  30
ATOM     30  C   UNL     1      -1.223  10.944  22.672  0.00  0.00    +0.000 C 
ATOM     31  C   UNL     1      -0.343   9.769  23.070  0.00  0.00    +0.000 C 
ENDBRANCH  29  30
ENDBRANCH   9  29
TORSDOF 9
ENDMDL
MODEL 6
REMARK VINA RESULT:      -7.2      1.167      1.585
REMARK  Name = 
REMARK  12 active torsions:
REMARK  status: ('A' for Active; 'I' for Inactive)
REMARK    1  A    between atoms: C_1  and  C_2
REMARK    2  A    between atoms: C_2  and  C_3
REMARK    3  A    between atoms: C_3  and  N_4
REMARK    4  A    between atoms: C_9  and  C_10
REMARK    5  A    between atoms: C_13  and  O_14
REMARK    6  A    between atoms: O_14  and  C_15
REMARK    7  A    between atoms: C_15  and  C_16
REMARK    8  A    between atoms: C_15  and  C_17
REMARK    9  A    between atoms: C_17  and  O_19
REMARK   10  A    between atoms: N_24  and  C_25
REMARK   11  A    between atoms: C_25  and  C_26
REMARK   12  A    between atoms: C_26  and  C_27
REMARK                            x       y       z     vdW  Elec       q    Type
REMARK                         _______ _______ _______ _____ _____    ______ ____
ROOT
ATOM      1  N   UNL     1       4.505   5.007  18.364  0.00  0.00    +0.000 N 
ATOM      2  C   UNL     1       3.958   6.271  18.124  0.00  0.00    +0.000 A 
ATOM      3  O   UNL     1       4.322   7.036  17.235  0.00  0.00    +0.000 OA
ATOM      4  C   UNL     1       2.925   6.620  19.043  0.00  0.00    +0.000 A 
ATOM      5  N   UNL     1       2.253   7.813  19.134  0.00  0.00    +0.000 N 
ATOM      6  C   UNL     1       1.426   7.802  20.243  0.00  0.00    +0.000 A 
ATOM      7  C   UNL     1       1.497   6.512  20.762  0.00  0.00    +0.000 A 
ATOM      8  C   UNL     1       2.482   5.803  20.040  0.00  0.00    +0.000 A 
ATOM      9  N   UNL     1       3.053   4.552  20.228  0.00  0.00    +0.000 N 
ATOM     10  C   UNL     1       4.120   4.146  19.409  0.00  0.00    +0.000 A 
ATOM     11  O   UNL     1       4.708   3.080  19.610  0.00  0.00    +0.000 OA
ATOM     12  H   UNL     1       2.437   8.611  18.537  0.00  0.00    +0.000 HD
ENDROOT
BRANCH   6  13
ATOM     13  C   UNL     1       0.756   8.996  20.775  0.00  0.00    +0.000 A 
ATOM     14  C   UNL     1       0.620  10.177  20.040  0.00  0.00    +0.000 A 
ATOM     15  C   UNL     1       0.068  11.325  20.630  0.00  0.00    +0.000 A 
ATOM     16  C   UNL     1      -0.381  11.309  21.953  0.00  0.00    +0.000 A 
ATOM     17  C   UNL     1      -0.284  10.128  22.680  0.00  0.00    +0.000 A 
ATOM     18  C   UNL     1       0.286   8.989  22.098  0.00  0.00    +0.000 A 
BRANCH  16  19
ATOM     19  O   UNL     1      -0.819  12.508  22.445  0.00  0.00    +0.000 OA
BRANCH  19  20
ATOM     20  C   UNL     1      -2.117  12.547  23.066  0.00  0.00    +0.000 C 
ATOM     21  C   UNL     1      -2.254  13.741  24.006  0.00  0.00    +0.000 C 
BRANCH  20  22
ATOM     22  C   UNL     1      -3.143  12.727  21.942  0.00  0.00    +0.000 C 
ATOM     23  O   UNL     1      -2.883  13.185  20.838  0.00  0.00    +0.000 OA
BRANCH  22  24
ATOM     24  O   UNL     1      -4.387  12.300  22.273  0.00  0.00    +0.000 OA
ATOM     25  H   UNL     1      -4.937  12.245  21.460  0.00  0.00    +0.000 HD
ENDBRANCH  22  24
ENDBRANCH  20  22
ENDBRANCH  19  20
ENDBRANCH  16  19
ENDBRANCH   6  13
BRANCH   1  26
ATOM     26  C   UNL     1       5.636   4.590  17.536  0.00  0.00    +0.000 C 
BRANCH  26  28
ATOM     27  C   UNL     1       7.522   6.292  17.724  0.00  0.00    +0.000 C 
ATOM     28  C   UNL     1       7.007   4.923  18.135  0.00  0.00    +0.000 C 
ENDBRANCH  26  28
ENDBRANCH   1  26
BRANCH   9  29
ATOM     29  C   UNL     1       2.661   3.687  21.342  0.00  0.00    +0.000 C 
BRANCH  29  30
ATOM     30  C   UNL     1       1.318   2.977  21.142  0.00  0.00    +0.000 C 
ATOM     31  C   UNL     1       1.057   2.554  19.705  0.00  0.00    +0.000 C 
ENDBRANCH  29  30
ENDBRANCH   9  29
TORSDOF 9
ENDMDL
MODEL 7
REMARK VINA RESULT:      -7.1      1.582      2.362
REMARK  Name = 
REMARK  12 active torsions:
REMARK  status: ('A' for Active; 'I' for Inactive)
REMARK    1  A    between atoms: C_1  and  C_2
REMARK    2  A    between atoms: C_2  and  C_3
REMARK    3  A    between atoms: C_3  and  N_4
REMARK    4  A    between atoms: C_9  and  C_10
REMARK    5  A    between atoms: C_13  and  O_14
REMARK    6  A    between atoms: O_14  and  C_15
REMARK    7  A    between atoms: C_15  and  C_16
REMARK    8  A    between atoms: C_15  and  C_17
REMARK    9  A    between atoms: C_17  and  O_19
REMARK   10  A    between atoms: N_24  and  C_25
REMARK   11  A    between atoms: C_25  and  C_26
REMARK   12  A    between atoms: C_26  and  C_27
REMARK                            x       y       z     vdW  Elec       q    Type
REMARK                         _______ _______ _______ _____ _____    ______ ____
ROOT
ATOM      1  N   UNL     1       5.464   4.949  16.824  0.00  0.00    +0.000 N 
ATOM      2  C   UNL     1       5.257   6.327  16.928  0.00  0.00    +0.000 A 
ATOM      3  O   UNL     1       6.087   7.185  16.635  0.00  0.00    +0.000 OA
ATOM      4  C   UNL     1       3.971   6.666  17.441  0.00  0.00    +0.000 A 
ATOM      5  N   UNL     1       3.493   7.915  17.743  0.00  0.00    +0.000 N 
ATOM      6  C   UNL     1       2.252   7.809  18.348  0.00  0.00    +0.000 A 
ATOM      7  C   UNL     1       1.909   6.462  18.285  0.00  0.00    +0.000 A 
ATOM      8  C   UNL     1       3.016   5.751  17.772  0.00  0.00    +0.000 A 
ATOM      9  N   UNL     1       3.269   4.393  17.640  0.00  0.00    +0.000 N 
ATOM     10  C   UNL     1       4.532   3.962  17.201  0.00  0.00    +0.000 A 
ATOM     11  O   UNL     1       4.819   2.763  17.160  0.00  0.00    +0.000 OA
ATOM     12  H   UNL     1       4.032   8.767  17.639  0.00  0.00    +0.000 HD
ENDROOT
BRANCH   6  13
ATOM     13  C   UNL     1       1.571   8.925  19.018  0.00  0.00    +0.000 A 
ATOM     14  C   UNL     1       1.124   8.854  20.340  0.00  0.00    +0.000 A 
ATOM     15  C   UNL     1       0.384   9.907  20.900  0.00  0.00    +0.000 A 
ATOM     16  C   UNL     1       0.097  11.058  20.162  0.00  0.00    +0.000 A 
ATOM     17  C   UNL     1       0.570  11.153  18.858  0.00  0.00    +0.000 A 
ATOM     18  C   UNL     1       1.290  10.094  18.292  0.00  0.00    +0.000 A 
BRANCH  16  19
ATOM     19  O   UNL     1      -0.703  11.977  20.784  0.00  0.00    +0.000 OA
BRANCH  19  20
ATOM     20  C   UNL     1      -0.176  12.657  21.938  0.00  0.00    +0.000 C 
ATOM     21  C   UNL     1       0.164  14.111  21.627  0.00  0.00    +0.000 C 
BRANCH  20  22
ATOM     22  C   UNL     1      -1.285  12.661  22.997  0.00  0.00    +0.000 C 
ATOM     23  O   UNL     1      -2.053  11.730  23.194  0.00  0.00    +0.000 OA
BRANCH  22  24
ATOM     24  O   UNL     1      -1.324  13.800  23.733  0.00  0.00    +0.000 OA
ATOM     25  H   UNL     1      -1.385  13.566  24.685  0.00  0.00    +0.000 HD
ENDBRANCH  22  24
ENDBRANCH  20  22
ENDBRANCH  19  20
ENDBRANCH  16  19
ENDBRANCH   6  13
BRANCH   1  26
ATOM     26  C   UNL     1       6.786   4.492  16.397  0.00  0.00    +0.000 C 
BRANCH  26  28
ATOM     27  C   UNL     1       6.096   3.948  14.005  0.00  0.00    +0.000 C 
ATOM     28  C   UNL     1       7.067   4.696  14.904  0.00  0.00    +0.000 C 
ENDBRANCH  26  28
ENDBRANCH   1  26
BRANCH   9  29
ATOM     29  C   UNL     1       2.299   3.384  18.069  0.00  0.00    +0.000 C 
BRANCH  29  30
ATOM     30  C   UNL     1       2.329   3.084  19.571  0.00  0.00    +0.000 C 
ATOM     31  C   UNL     1       1.032   3.419  20.290  0.00  0.00    +0.000 C 
ENDBRANCH  29  30
ENDBRANCH   9  29
TORSDOF 9
ENDMDL
MODEL 8
REMARK VINA RESULT:      -7.1      1.789      2.158
REMARK  Name = 
REMARK  12 active torsions:
REMARK  status: ('A' for Active; 'I' for Inactive)
REMARK    1  A    between atoms: C_1  and  C_2
REMARK    2  A    between atoms: C_2  and  C_3
REMARK    3  A    between atoms: C_3  and  N_4
REMARK    4  A    between atoms: C_9  and  C_10
REMARK    5  A    between atoms: C_13  and  O_14
REMARK    6  A    between atoms: O_14  and  C_15
REMARK    7  A    between atoms: C_15  and  C_16
REMARK    8  A    between atoms: C_15  and  C_17
REMARK    9  A    between atoms: C_17  and  O_19
REMARK   10  A    between atoms: N_24  and  C_25
REMARK   11  A    between atoms: C_25  and  C_26
REMARK   12  A    between atoms: C_26  and  C_27
REMARK                            x       y       z     vdW  Elec       q    Type
REMARK                         _______ _______ _______ _____ _____    ______ ____
ROOT
ATOM      1  N   UNL     1       5.360   5.065  17.311  0.00  0.00    +0.000 N 
ATOM      2  C   UNL     1       4.788   6.282  16.929  0.00  0.00    +0.000 A 
ATOM      3  O   UNL     1       5.165   6.967  15.982  0.00  0.00    +0.000 OA
ATOM      4  C   UNL     1       3.712   6.688  17.773  0.00  0.00    +0.000 A 
ATOM      5  N   UNL     1       3.006   7.862  17.722  0.00  0.00    +0.000 N 
ATOM      6  C   UNL     1       2.138   7.934  18.798  0.00  0.00    +0.000 A 
ATOM      7  C   UNL     1       2.224   6.704  19.443  0.00  0.00    +0.000 A 
ATOM      8  C   UNL     1       3.255   5.958  18.830  0.00  0.00    +0.000 A 
ATOM      9  N   UNL     1       3.851   4.750  19.160  0.00  0.00    +0.000 N 
ATOM     10  C   UNL     1       4.959   4.299  18.423  0.00  0.00    +0.000 A 
ATOM     11  O   UNL     1       5.568   3.276  18.748  0.00  0.00    +0.000 OA
ATOM     12  H   UNL     1       3.190   8.603  17.056  0.00  0.00    +0.000 HD
ENDROOT
BRANCH   6  13
ATOM     13  C   UNL     1       1.416   9.153  19.185  0.00  0.00    +0.000 A 
ATOM     14  C   UNL     1       1.196  10.214  18.302  0.00  0.00    +0.000 A 
ATOM     15  C   UNL     1       0.596  11.402  18.750  0.00  0.00    +0.000 A 
ATOM     16  C   UNL     1       0.184  11.544  20.077  0.00  0.00    +0.000 A 
ATOM     17  C   UNL     1       0.365  10.481  20.953  0.00  0.00    +0.000 A 
ATOM     18  C   UNL     1       0.983   9.304  20.512  0.00  0.00    +0.000 A 
BRANCH  16  19
ATOM     19  O   UNL     1      -0.308  12.775  20.417  0.00  0.00    +0.000 OA
BRANCH  19  20
ATOM     20  C   UNL     1       0.594  13.896  20.373  0.00  0.00    +0.000 C 
ATOM     21  C   UNL     1      -0.027  15.090  19.655  0.00  0.00    +0.000 C 
BRANCH  20  22
ATOM     22  C   UNL     1       0.852  14.316  21.825  0.00  0.00    +0.000 C 
ATOM     23  O   UNL     1       1.935  14.691  22.252  0.00  0.00    +0.000 OA
BRANCH  22  24
ATOM     24  O   UNL     1      -0.255  14.263  22.607  0.00  0.00    +0.000 OA
ATOM     25  H   UNL     1       0.017  14.211  23.550  0.00  0.00    +0.000 HD
ENDBRANCH  22  24
ENDBRANCH  20  22
ENDBRANCH  19  20
ENDBRANCH  16  19
ENDBRANCH   6  13
BRANCH   1  26
ATOM     26  C   UNL     1       6.532   4.603  16.569  0.00  0.00    +0.000 C 
BRANCH  26  28
ATOM     27  C   UNL     1       6.496   4.327  14.036  0.00  0.00    +0.000 C 
ATOM     28  C   UNL     1       6.203   3.689  15.383  0.00  0.00    +0.000 C 
ENDBRANCH  26  28
ENDBRANCH   1  26
BRANCH   9  29
ATOM     29  C   UNL     1       3.441   3.986  20.340  0.00  0.00    +0.000 C 
BRANCH  29  30
ATOM     30  C   UNL     1       2.371   2.926  20.059  0.00  0.00    +0.000 C 
ATOM     31  C   UNL     1       1.119   3.079  20.908  0.00  0.00    +0.000 C 
ENDBRANCH  29  30
ENDBRANCH   9  29
TORSDOF 9
ENDMDL
MODEL 9
REMARK VINA RESULT:      -7.0      1.797      2.421
REMARK  Name = 
REMARK  12 active torsions:
REMARK  status: ('A' for Active; 'I' for Inactive)
REMARK    1  A    between atoms: C_1  and  C_2
REMARK    2  A    between atoms: C_2  and  C_3
REMARK    3  A    between atoms: C_3  and  N_4
REMARK    4  A    between atoms: C_9  and  C_10
REMARK    5  A    between atoms: C_13  and  O_14
REMARK    6  A    between atoms: O_14  and  C_15
REMARK    7  A    between atoms: C_15  and  C_16
REMARK    8  A    between atoms: C_15  and  C_17
REMARK    9  A    between atoms: C_17  and  O_19
REMARK   10  A    between atoms: N_24  and  C_25
REMARK   11  A    between atoms: C_25  and  C_26
REMARK   12  A    between atoms: C_26  and  C_27
REMARK                            x       y       z     vdW  Elec       q    Type
REMARK                         _______ _______ _______ _____ _____    ______ ____
ROOT
ATOM      1  N   UNL     1       5.336   5.105  17.386  0.00  0.00    +0.000 N 
ATOM      2  C   UNL     1       4.778   6.325  16.996  0.00  0.00    +0.000 A 
ATOM      3  O   UNL     1       5.167   7.004  16.049  0.00  0.00    +0.000 OA
ATOM      4  C   UNL     1       3.699   6.743  17.830  0.00  0.00    +0.000 A 
ATOM      5  N   UNL     1       3.004   7.924  17.771  0.00  0.00    +0.000 N 
ATOM      6  C   UNL     1       2.129   8.007  18.840  0.00  0.00    +0.000 A 
ATOM      7  C   UNL     1       2.200   6.778  19.490  0.00  0.00    +0.000 A 
ATOM      8  C   UNL     1       3.228   6.021  18.887  0.00  0.00    +0.000 A 
ATOM      9  N   UNL     1       3.812   4.810  19.225  0.00  0.00    +0.000 N 
ATOM     10  C   UNL     1       4.921   4.346  18.498  0.00  0.00    +0.000 A 
ATOM     11  O   UNL     1       5.519   3.319  18.831  0.00  0.00    +0.000 OA
ATOM     12  H   UNL     1       3.199   8.661  17.104  0.00  0.00    +0.000 HD
ENDROOT
BRANCH   6  13
ATOM     13  C   UNL     1       1.415   9.234  19.218  0.00  0.00    +0.000 A 
ATOM     14  C   UNL     1       0.568   9.304  20.328  0.00  0.00    +0.000 A 
ATOM     15  C   UNL     1      -0.174  10.467  20.586  0.00  0.00    +0.000 A 
ATOM     16  C   UNL     1      -0.069  11.587  19.756  0.00  0.00    +0.000 A 
ATOM     17  C   UNL     1       0.798  11.539  18.672  0.00  0.00    +0.000 A 
ATOM     18  C   UNL     1       1.524  10.371  18.403  0.00  0.00    +0.000 A 
BRANCH  16  19
ATOM     19  O   UNL     1      -0.904  12.628  20.057  0.00  0.00    +0.000 OA
BRANCH  19  20
ATOM     20  C   UNL     1      -2.002  12.373  20.952  0.00  0.00    +0.000 C 
ATOM     21  C   UNL     1      -1.996  13.334  22.137  0.00  0.00    +0.000 C 
BRANCH  20  22
ATOM     22  C   UNL     1      -3.290  12.629  20.161  0.00  0.00    +0.000 C 
ATOM     23  O   UNL     1      -3.587  12.053  19.123  0.00  0.00    +0.000 OA
BRANCH  22  24
ATOM     24  O   UNL     1      -4.105  13.547  20.737  0.00  0.00    +0.000 OA
ATOM     25  H   UNL     1      -3.689  13.873  21.566  0.00  0.00    +0.000 HD
ENDBRANCH  22  24
ENDBRANCH  20  22
ENDBRANCH  19  20
ENDBRANCH  16  19
ENDBRANCH   6  13
BRANCH   1  26
ATOM     26  C   UNL     1       6.509   4.630  16.654  0.00  0.00    +0.000 C 
BRANCH  26  28
ATOM     27  C   UNL     1       6.376   4.427  14.117  0.00  0.00    +0.000 C 
ATOM     28  C   UNL     1       6.179   3.734  15.455  0.00  0.00    +0.000 C 
ENDBRANCH  26  28
ENDBRANCH   1  26
BRANCH   9  29
ATOM     29  C   UNL     1       3.387   4.053  20.405  0.00  0.00    +0.000 C 
BRANCH  29  30
ATOM     30  C   UNL     1       2.251   3.061  20.137  0.00  0.00    +0.000 C 
ATOM     31  C   UNL     1       1.321   2.859  21.323  0.00  0.00    +0.000 C 
ENDBRANCH  29  30
ENDBRANCH   9  29
TORSDOF 9
ENDMDL
