MODEL 1
REMARK VINA RESULT:      -8.4      0.000      0.000
REMARK  Name = 
REMARK  8 active torsions:
REMARK  status: ('A' for Active; 'I' for Inactive)
REMARK    1  A    between atoms: C_1  and  C_2
REMARK    2  A    between atoms: C_2  and  C_3
REMARK    3  A    between atoms: C_2  and  N_4
REMARK    4  A    between atoms: C_7  and  N_8
REMARK    5  A    between atoms: C_9  and  C_11
REMARK    6  A    between atoms: N_19  and  C_20
REMARK    7  A    between atoms: C_20  and  C_21
REMARK    8  A    between atoms: N_23  and  C_24
REMARK                            x       y       z     vdW  Elec       q    Type
REMARK                         _______ _______ _______ _____ _____    ______ ____
ROOT
ATOM      1  C   UNL     1       1.443   8.886  19.918  0.00  0.00    +0.000 A 
ATOM      2  C   UNL     1       1.116   8.418  21.182  0.00  0.00    +0.000 A 
ATOM      3  C   UNL     1       0.295   9.361  21.833  0.00  0.00    +0.000 A 
ATOM      4  C   UNL     1      -0.371   9.333  23.074  0.00  0.00    +0.000 A 
ATOM      5  C   UNL     1      -1.151  10.424  23.451  0.00  0.00    +0.000 A 
ATOM      6  C   UNL     1      -1.212  11.546  22.647  0.00  0.00    +0.000 A 
ATOM      7  C   UNL     1      -0.520  11.611  21.420  0.00  0.00    +0.000 A 
ATOM      8  C   UNL     1       0.202  10.477  21.000  0.00  0.00    +0.000 A 
ATOM      9  N   UNL     1       0.894  10.168  19.825  0.00  0.00    +0.000 N 
ENDROOT
BRANCH   1  11
ATOM     10  N   UNL     1       2.868   7.075  19.303  0.00  0.00    +0.000 N 
ATOM     11  C   UNL     1       2.193   8.198  18.878  0.00  0.00    +0.000 C 
ATOM     12  O   UNL     1       2.204   8.555  17.702  0.00  0.00    +0.000 OA
ATOM     13  H   UNL     1       2.598   6.691  20.196  0.00  0.00    +0.000 HD
BRANCH  10  17
ATOM     14  N   UNL     1       2.634   3.478  19.083  0.00  0.00    +0.000 NA
ATOM     15  C   UNL     1       1.809   4.404  18.293  0.00  0.00    +0.000 C 
ATOM     16  C   UNL     1       2.640   5.412  17.492  0.00  0.00    +0.000 C 
ATOM     17  C   UNL     1       3.592   6.188  18.398  0.00  0.00    +0.000 C 
ATOM     18  C   UNL     1       4.463   5.196  19.167  0.00  0.00    +0.000 C 
ATOM     19  C   UNL     1       3.630   4.157  19.923  0.00  0.00    +0.000 C 
BRANCH  14  21
ATOM     20  C   UNL     1       1.487   2.934  21.296  0.00  0.00    +0.000 C 
ATOM     21  C   UNL     1       1.846   2.492  19.867  0.00  0.00    +0.000 C 
ATOM     22  C   UNL     1       0.568   2.060  19.134  0.00  0.00    +0.000 C 
ENDBRANCH  14  21
ENDBRANCH  10  17
ENDBRANCH   1  11
BRANCH   9  23
ATOM     23  C   UNL     1       1.045  11.046  18.660  0.00  0.00    +0.000 C 
BRANCH  23  24
ATOM     24  C   UNL     1      -0.279  11.405  18.004  0.00  0.00    +0.000 C 
ATOM     25  O   UNL     1      -0.623  12.580  17.872  0.00  0.00    +0.000 OA
ATOM     26  N   UNL     1      -1.044  10.314  17.591  0.00  0.00    +0.000 N 
ATOM     27  H   UNL     1      -0.960   9.467  18.159  0.00  0.00    +0.000 HD
BRANCH  26  28
ATOM     28  C   UNL     1      -2.273  10.570  17.020  0.00  0.00    +0.000 A 
ATOM     29  C   UNL     1      -2.689  10.535  15.706  0.00  0.00    +0.000 A 
ATOM     30  C   UNL     1      -3.992  11.098  15.552  0.00  0.00    +0.000 A 
ATOM     31  C   UNL     1      -4.487  11.507  16.765  0.00  0.00    +0.000 A 
ATOM     32 CL   UNL     1      -5.945  12.371  17.038  0.00  0.00    +0.000 Cl
ATOM     33  S   UNL     1      -3.490  11.099  18.080  0.00  0.00    +0.000 S 
ENDBRANCH  26  28
ENDBRANCH  23  24
ENDBRANCH   9  23
TORSDOF 6
ENDMDL
MODEL 2
REMARK VINA RESULT:      -7.9      4.542      8.628
REMARK  Name = 
REMARK  8 active torsions:
REMARK  status: ('A' for Active; 'I' for Inactive)
REMARK    1  A    between atoms: C_1  and  C_2
REMARK    2  A    between atoms: C_2  and  C_3
REMARK    3  A    between atoms: C_2  and  N_4
REMARK    4  A    between atoms: C_7  and  N_8
REMARK    5  A    between atoms: C_9  and  C_11
REMARK    6  A    between atoms: N_19  and  C_20
REMARK    7  A    between atoms: C_20  and  C_21
REMARK    8  A    between atoms: N_23  and  C_24
REMARK                            x       y       z     vdW  Elec       q    Type
REMARK                         _______ _______ _______ _____ _____    ______ ____
ROOT
ATOM      1  C   UNL     1       2.734   6.866  18.362  0.00  0.00    +0.000 A 
ATOM      2  C   UNL     1       1.905   5.930  18.964  0.00  0.00    +0.000 A 
ATOM      3  C   UNL     1       2.665   4.808  19.347  0.00  0.00    +0.000 A 
ATOM      4  C   UNL     1       2.328   3.640  20.061  0.00  0.00    +0.000 A 
ATOM      5  C   UNL     1       3.318   2.694  20.321  0.00  0.00    +0.000 A 
ATOM      6  C   UNL     1       4.594   2.869  19.824  0.00  0.00    +0.000 A 
ATOM      7  C   UNL     1       4.942   4.010  19.073  0.00  0.00    +0.000 A 
ATOM      8  C   UNL     1       3.965   5.006  18.879  0.00  0.00    +0.000 A 
ATOM      9  N   UNL     1       3.998   6.275  18.293  0.00  0.00    +0.000 N 
ENDROOT
BRANCH   1  11
ATOM     10  N   UNL     1       1.438   8.845  18.665  0.00  0.00    +0.000 N 
ATOM     11  C   UNL     1       2.385   8.201  17.900  0.00  0.00    +0.000 C 
ATOM     12  O   UNL     1       2.912   8.739  16.929  0.00  0.00    +0.000 OA
ATOM     13  H   UNL     1       1.257   8.466  19.582  0.00  0.00    +0.000 HD
BRANCH  10  17
ATOM     14  N   UNL     1      -0.435  10.995  20.882  0.00  0.00    +0.000 NA
ATOM     15  C   UNL     1       1.033  10.917  20.859  0.00  0.00    +0.000 C 
ATOM     16  C   UNL     1       1.625  11.172  19.469  0.00  0.00    +0.000 C 
ATOM     17  C   UNL     1       1.028  10.226  18.432  0.00  0.00    +0.000 C 
ATOM     18  C   UNL     1      -0.494  10.367  18.451  0.00  0.00    +0.000 C 
ATOM     19  C   UNL     1      -1.077  10.165  19.852  0.00  0.00    +0.000 C 
BRANCH  14  21
ATOM     20  C   UNL     1      -0.234   9.787  23.120  0.00  0.00    +0.000 C 
ATOM     21  C   UNL     1      -1.028  10.751  22.222  0.00  0.00    +0.000 C 
ATOM     22  C   UNL     1      -1.287  12.058  22.986  0.00  0.00    +0.000 C 
ENDBRANCH  14  21
ENDBRANCH  10  17
ENDBRANCH   1  11
BRANCH   9  23
ATOM     23  C   UNL     1       5.171   6.909  17.682  0.00  0.00    +0.000 C 
BRANCH  23  24
ATOM     24  C   UNL     1       5.454   6.415  16.272  0.00  0.00    +0.000 C 
ATOM     25  O   UNL     1       4.900   6.928  15.299  0.00  0.00    +0.000 OA
ATOM     26  N   UNL     1       6.360   5.358  16.192  0.00  0.00    +0.000 N 
ATOM     27  H   UNL     1       6.356   4.704  16.978  0.00  0.00    +0.000 HD
BRANCH  26  28
ATOM     28  C   UNL     1       6.633   4.840  14.942  0.00  0.00    +0.000 A 
ATOM     29  C   UNL     1       7.504   5.255  13.958  0.00  0.00    +0.000 A 
ATOM     30  C   UNL     1       7.289   4.550  12.735  0.00  0.00    +0.000 A 
ATOM     31  C   UNL     1       6.280   3.632  12.879  0.00  0.00    +0.000 A 
ATOM     32 CL   UNL     1       5.584   2.671  11.638  0.00  0.00    +0.000 Cl
ATOM     33  S   UNL     1       5.696   3.504  14.470  0.00  0.00    +0.000 S 
ENDBRANCH  26  28
ENDBRANCH  23  24
ENDBRANCH   9  23
TORSDOF 6
ENDMDL
MODEL 3
REMARK VINA RESULT:      -7.7      1.180      1.419
REMARK  Name = 
REMARK  8 active torsions:
REMARK  status: ('A' for Active; 'I' for Inactive)
REMARK    1  A    between atoms: C_1  and  C_2
REMARK    2  A    between atoms: C_2  and  C_3
REMARK    3  A    between atoms: C_2  and  N_4
REMARK    4  A    between atoms: C_7  and  N_8
REMARK    5  A    between atoms: C_9  and  C_11
REMARK    6  A    between atoms: N_19  and  C_20
REMARK    7  A    between atoms: C_20  and  C_21
REMARK    8  A    between atoms: N_23  and  C_24
REMARK                            x       y       z     vdW  Elec       q    Type
REMARK                         _______ _______ _______ _____ _____    ______ ____
ROOT
ATOM      1  C   UNL     1       1.311   8.904  19.691  0.00  0.00    +0.000 A 
ATOM      2  C   UNL     1       1.353   8.561  21.034  0.00  0.00    +0.000 A 
ATOM      3  C   UNL     1       0.490   9.404  21.761  0.00  0.00    +0.000 A 
ATOM      4  C   UNL     1       0.107   9.417  23.118  0.00  0.00    +0.000 A 
ATOM      5  C   UNL     1      -0.805  10.375  23.556  0.00  0.00    +0.000 A 
ATOM      6  C   UNL     1      -1.272  11.341  22.686  0.00  0.00    +0.000 A 
ATOM      7  C   UNL     1      -0.870  11.370  21.335  0.00  0.00    +0.000 A 
ATOM      8  C   UNL     1      -0.012  10.354  20.870  0.00  0.00    +0.000 A 
ATOM      9  N   UNL     1       0.484  10.028  19.605  0.00  0.00    +0.000 N 
ENDROOT
BRANCH   1  11
ATOM     10  N   UNL     1       2.377   6.949  18.838  0.00  0.00    +0.000 N 
ATOM     11  C   UNL     1       1.973   8.240  18.578  0.00  0.00    +0.000 C 
ATOM     12  O   UNL     1       2.132   8.761  17.477  0.00  0.00    +0.000 OA
ATOM     13  H   UNL     1       1.977   6.500  19.647  0.00  0.00    +0.000 HD
BRANCH  10  17
ATOM     14  N   UNL     1       3.227   3.454  19.159  0.00  0.00    +0.000 NA
ATOM     15  C   UNL     1       1.926   3.942  18.679  0.00  0.00    +0.000 C 
ATOM     16  C   UNL     1       2.047   4.904  17.494  0.00  0.00    +0.000 C 
ATOM     17  C   UNL     1       2.965   6.078  17.826  0.00  0.00    +0.000 C 
ATOM     18  C   UNL     1       4.321   5.535  18.275  0.00  0.00    +0.000 C 
ATOM     19  C   UNL     1       4.191   4.532  19.425  0.00  0.00    +0.000 C 
BRANCH  14  21
ATOM     20  C   UNL     1       4.475   1.961  20.809  0.00  0.00    +0.000 C 
ATOM     21  C   UNL     1       3.131   2.518  20.309  0.00  0.00    +0.000 C 
ATOM     22  C   UNL     1       2.366   3.133  21.491  0.00  0.00    +0.000 C 
ENDBRANCH  14  21
ENDBRANCH  10  17
ENDBRANCH   1  11
BRANCH   9  23
ATOM     23  C   UNL     1       0.201  10.748  18.359  0.00  0.00    +0.000 C 
BRANCH  23  24
ATOM     24  C   UNL     1      -1.243  10.612  17.902  0.00  0.00    +0.000 C 
ATOM     25  O   UNL     1      -1.610   9.636  17.246  0.00  0.00    +0.000 OA
ATOM     26  N   UNL     1      -2.077  11.666  18.272  0.00  0.00    +0.000 N 
ATOM     27  H   UNL     1      -1.637  12.588  18.329  0.00  0.00    +0.000 HD
BRANCH  26  28
ATOM     28  C   UNL     1      -3.393  11.621  17.857  0.00  0.00    +0.000 A 
ATOM     29  C   UNL     1      -3.945  11.437  16.607  0.00  0.00    +0.000 A 
ATOM     30  C   UNL     1      -5.349  11.692  16.610  0.00  0.00    +0.000 A 
ATOM     31  C   UNL     1      -5.774  12.034  17.869  0.00  0.00    +0.000 A 
ATOM     32 CL   UNL     1      -7.345  12.567  18.311  0.00  0.00    +0.000 Cl
ATOM     33  S   UNL     1      -4.561  11.914  19.055  0.00  0.00    +0.000 S 
ENDBRANCH  26  28
ENDBRANCH  23  24
ENDBRANCH   9  23
TORSDOF 6
ENDMDL
MODEL 4
REMARK VINA RESULT:      -7.7      3.320      4.219
REMARK  Name = 
REMARK  8 active torsions:
REMARK  status: ('A' for Active; 'I' for Inactive)
REMARK    1  A    between atoms: C_1  and  C_2
REMARK    2  A    between atoms: C_2  and  C_3
REMARK    3  A    between atoms: C_2  and  N_4
REMARK    4  A    between atoms: C_7  and  N_8
REMARK    5  A    between atoms: C_9  and  C_11
REMARK    6  A    between atoms: N_19  and  C_20
REMARK    7  A    between atoms: C_20  and  C_21
REMARK    8  A    between atoms: N_23  and  C_24
REMARK                            x       y       z     vdW  Elec       q    Type
REMARK                         _______ _______ _______ _____ _____    ______ ____
ROOT
ATOM      1  C   UNL     1       1.378   8.919  19.822  0.00  0.00    +0.000 A 
ATOM      2  C   UNL     1       1.158   8.532  21.136  0.00  0.00    +0.000 A 
ATOM      3  C   UNL     1       0.278   9.443  21.752  0.00  0.00    +0.000 A 
ATOM      4  C   UNL     1      -0.325   9.458  23.026  0.00  0.00    +0.000 A 
ATOM      5  C   UNL     1      -1.193  10.497  23.354  0.00  0.00    +0.000 A 
ATOM      6  C   UNL     1      -1.403  11.535  22.467  0.00  0.00    +0.000 A 
ATOM      7  C   UNL     1      -0.779  11.560  21.203  0.00  0.00    +0.000 A 
ATOM      8  C   UNL     1       0.034  10.469  20.837  0.00  0.00    +0.000 A 
ATOM      9  N   UNL     1       0.699  10.129  19.656  0.00  0.00    +0.000 N 
ENDROOT
BRANCH   1  11
ATOM     10  N   UNL     1       2.847   7.125  19.260  0.00  0.00    +0.000 N 
ATOM     11  C   UNL     1       2.145   8.219  18.802  0.00  0.00    +0.000 C 
ATOM     12  O   UNL     1       2.147   8.542  17.617  0.00  0.00    +0.000 OA
ATOM     13  H   UNL     1       2.586   6.762  20.164  0.00  0.00    +0.000 HD
BRANCH  10  17
ATOM     14  N   UNL     1       2.681   3.520  19.126  0.00  0.00    +0.000 NA
ATOM     15  C   UNL     1       1.844   4.412  18.309  0.00  0.00    +0.000 C 
ATOM     16  C   UNL     1       2.661   5.415  17.489  0.00  0.00    +0.000 C 
ATOM     17  C   UNL     1       3.593   6.231  18.381  0.00  0.00    +0.000 C 
ATOM     18  C   UNL     1       4.478   5.274  19.179  0.00  0.00    +0.000 C 
ATOM     19  C   UNL     1       3.659   4.239  19.955  0.00  0.00    +0.000 C 
BRANCH  14  21
ATOM     20  C   UNL     1       1.659   2.946  21.391  0.00  0.00    +0.000 C 
ATOM     21  C   UNL     1       1.906   2.539  19.929  0.00  0.00    +0.000 C 
ATOM     22  C   UNL     1       0.566   2.182  19.269  0.00  0.00    +0.000 C 
ENDBRANCH  14  21
ENDBRANCH  10  17
ENDBRANCH   1  11
BRANCH   9  23
ATOM     23  C   UNL     1       0.707  10.913  18.417  0.00  0.00    +0.000 C 
BRANCH  23  24
ATOM     24  C   UNL     1       1.787  11.984  18.390  0.00  0.00    +0.000 C 
ATOM     25  O   UNL     1       2.876  11.770  17.858  0.00  0.00    +0.000 OA
ATOM     26  N   UNL     1       1.441  13.182  19.015  0.00  0.00    +0.000 N 
ATOM     27  H   UNL     1       0.809  13.104  19.815  0.00  0.00    +0.000 HD
BRANCH  26  28
ATOM     28  C   UNL     1       2.391  14.182  19.056  0.00  0.00    +0.000 A 
ATOM     29  C   UNL     1       2.778  15.107  18.109  0.00  0.00    +0.000 A 
ATOM     30  C   UNL     1       3.960  15.801  18.507  0.00  0.00    +0.000 A 
ATOM     31  C   UNL     1       4.382  15.370  19.739  0.00  0.00    +0.000 A 
ATOM     32 CL   UNL     1       5.834  15.816  20.539  0.00  0.00    +0.000 Cl
ATOM     33  S   UNL     1       3.317  14.269  20.477  0.00  0.00    +0.000 S 
ENDBRANCH  26  28
ENDBRANCH  23  24
ENDBRANCH   9  23
TORSDOF 6
ENDMDL
MODEL 5
REMARK VINA RESULT:      -7.6      3.365      4.344
REMARK  Name = 
REMARK  8 active torsions:
REMARK  status: ('A' for Active; 'I' for Inactive)
REMARK    1  A    between atoms: C_1  and  C_2
REMARK    2  A    between atoms: C_2  and  C_3
REMARK    3  A    between atoms: C_2  and  N_4
REMARK    4  A    between atoms: C_7  and  N_8
REMARK    5  A    between atoms: C_9  and  C_11
REMARK    6  A    between atoms: N_19  and  C_20
REMARK    7  A    between atoms: C_20  and  C_21
REMARK    8  A    between atoms: N_23  and  C_24
REMARK                            x       y       z     vdW  Elec       q    Type
REMARK                         _______ _______ _______ _____ _____    ______ ____
ROOT
ATOM      1  C   UNL     1       1.180   9.282  19.662  0.00  0.00    +0.000 A 
ATOM      2  C   UNL     1       1.040   8.854  20.973  0.00  0.00    +0.000 A 
ATOM      3  C   UNL     1       0.179   9.729  21.664  0.00  0.00    +0.000 A 
ATOM      4  C   UNL     1      -0.351   9.695  22.969  0.00  0.00    +0.000 A 
ATOM      5  C   UNL     1      -1.219  10.707  23.376  0.00  0.00    +0.000 A 
ATOM      6  C   UNL     1      -1.498  11.764  22.532  0.00  0.00    +0.000 A 
ATOM      7  C   UNL     1      -0.946  11.839  21.237  0.00  0.00    +0.000 A 
ATOM      8  C   UNL     1      -0.135  10.776  20.795  0.00  0.00    +0.000 A 
ATOM      9  N   UNL     1       0.470  10.483  19.569  0.00  0.00    +0.000 N 
ENDROOT
BRANCH   1  11
ATOM     10  N   UNL     1       2.247   7.318  18.830  0.00  0.00    +0.000 N 
ATOM     11  C   UNL     1       1.902   8.628  18.580  0.00  0.00    +0.000 C 
ATOM     12  O   UNL     1       2.157   9.174  17.510  0.00  0.00    +0.000 OA
ATOM     13  H   UNL     1       1.775   6.860  19.595  0.00  0.00    +0.000 HD
BRANCH  10  17
ATOM     14  N   UNL     1       3.557   3.987  19.315  0.00  0.00    +0.000 NA
ATOM     15  C   UNL     1       2.178   4.274  18.894  0.00  0.00    +0.000 C 
ATOM     16  C   UNL     1       2.104   5.157  17.644  0.00  0.00    +0.000 C 
ATOM     17  C   UNL     1       2.881   6.457  17.838  0.00  0.00    +0.000 C 
ATOM     18  C   UNL     1       4.320   6.120  18.228  0.00  0.00    +0.000 C 
ATOM     19  C   UNL     1       4.388   5.193  19.446  0.00  0.00    +0.000 C 
BRANCH  14  21
ATOM     20  C   UNL     1       2.300   2.720  21.137  0.00  0.00    +0.000 C 
ATOM     21  C   UNL     1       3.650   3.132  20.526  0.00  0.00    +0.000 C 
ATOM     22  C   UNL     1       4.500   1.876  20.282  0.00  0.00    +0.000 C 
ENDBRANCH  14  21
ENDBRANCH  10  17
ENDBRANCH   1  11
BRANCH   9  23
ATOM     23  C   UNL     1       0.394  11.302  18.355  0.00  0.00    +0.000 C 
BRANCH  23  24
ATOM     24  C   UNL     1       1.011  12.682  18.522  0.00  0.00    +0.000 C 
ATOM     25  O   UNL     1       0.314  13.696  18.477  0.00  0.00    +0.000 OA
ATOM     26  N   UNL     1       2.392  12.687  18.712  0.00  0.00    +0.000 N 
ATOM     27  H   UNL     1       2.912  11.941  18.244  0.00  0.00    +0.000 HD
BRANCH  26  28
ATOM     28  C   UNL     1       3.019  13.911  18.835  0.00  0.00    +0.000 A 
ATOM     29  C   UNL     1       3.535  14.766  17.884  0.00  0.00    +0.000 A 
ATOM     30  C   UNL     1       4.298  15.815  18.481  0.00  0.00    +0.000 A 
ATOM     31  C   UNL     1       4.294  15.697  19.848  0.00  0.00    +0.000 A 
ATOM     32 CL   UNL     1       5.196  16.642  20.961  0.00  0.00    +0.000 Cl
ATOM     33  S   UNL     1       3.286  14.453  20.422  0.00  0.00    +0.000 S 
ENDBRANCH  26  28
ENDBRANCH  23  24
ENDBRANCH   9  23
TORSDOF 6
ENDMDL
MODEL 6
REMARK VINA RESULT:      -7.5      3.120      4.380
REMARK  Name = 
REMARK  8 active torsions:
REMARK  status: ('A' for Active; 'I' for Inactive)
REMARK    1  A    between atoms: C_1  and  C_2
REMARK    2  A    between atoms: C_2  and  C_3
REMARK    3  A    between atoms: C_2  and  N_4
REMARK    4  A    between atoms: C_7  and  N_8
REMARK    5  A    between atoms: C_9  and  C_11
REMARK    6  A    between atoms: N_19  and  C_20
REMARK    7  A    between atoms: C_20  and  C_21
REMARK    8  A    between atoms: N_23  and  C_24
REMARK                            x       y       z     vdW  Elec       q    Type
REMARK                         _______ _______ _______ _____ _____    ______ ____
ROOT
ATOM      1  C   UNL     1       0.254   9.760  18.339  0.00  0.00    +0.000 A 
ATOM      2  C   UNL     1      -0.911   9.611  17.601  0.00  0.00    +0.000 A 
ATOM      3  C   UNL     1      -1.896  10.487  18.098  0.00  0.00    +0.000 A 
ATOM      4  C   UNL     1      -3.200  10.788  17.657  0.00  0.00    +0.000 A 
ATOM      5  C   UNL     1      -3.948  11.738  18.348  0.00  0.00    +0.000 A 
ATOM      6  C   UNL     1      -3.442  12.326  19.491  0.00  0.00    +0.000 A 
ATOM      7  C   UNL     1      -2.155  12.010  19.972  0.00  0.00    +0.000 A 
ATOM      8  C   UNL     1      -1.366  11.110  19.229  0.00  0.00    +0.000 A 
ATOM      9  N   UNL     1      -0.045  10.669  19.357  0.00  0.00    +0.000 N 
ENDROOT
BRANCH   1  11
ATOM     10  N   UNL     1       1.717   7.929  18.782  0.00  0.00    +0.000 N 
ATOM     11  C   UNL     1       1.542   9.120  18.113  0.00  0.00    +0.000 C 
ATOM     12  O   UNL     1       2.399   9.574  17.360  0.00  0.00    +0.000 OA
ATOM     13  H   UNL     1       0.889   7.487  19.152  0.00  0.00    +0.000 HD
BRANCH  10  17
ATOM     14  N   UNL     1       1.965   4.364  19.305  0.00  0.00    +0.000 NA
ATOM     15  C   UNL     1       1.622   4.983  18.017  0.00  0.00    +0.000 C 
ATOM     16  C   UNL     1       2.660   6.008  17.550  0.00  0.00    +0.000 C 
ATOM     17  C   UNL     1       2.893   7.082  18.609  0.00  0.00    +0.000 C 
ATOM     18  C   UNL     1       3.292   6.406  19.920  0.00  0.00    +0.000 C 
ATOM     19  C   UNL     1       2.279   5.343  20.356  0.00  0.00    +0.000 C 
BRANCH  14  21
ATOM     20  C   UNL     1       0.738   2.180  18.824  0.00  0.00    +0.000 C 
ATOM     21  C   UNL     1       0.970   3.366  19.776  0.00  0.00    +0.000 C 
ATOM     22  C   UNL     1       1.304   2.834  21.177  0.00  0.00    +0.000 C 
ENDBRANCH  14  21
ENDBRANCH  10  17
ENDBRANCH   1  11
BRANCH   9  23
ATOM     23  C   UNL     1       0.901  11.079  20.400  0.00  0.00    +0.000 C 
BRANCH  23  24
ATOM     24  C   UNL     1       1.435  12.489  20.206  0.00  0.00    +0.000 C 
ATOM     25  O   UNL     1       1.943  13.107  21.142  0.00  0.00    +0.000 OA
ATOM     26  N   UNL     1       1.287  13.001  18.917  0.00  0.00    +0.000 N 
ATOM     27  H   UNL     1       0.463  12.684  18.401  0.00  0.00    +0.000 HD
BRANCH  26  28
ATOM     28  C   UNL     1       1.719  14.290  18.685  0.00  0.00    +0.000 A 
ATOM     29  C   UNL     1       2.951  14.781  18.307  0.00  0.00    +0.000 A 
ATOM     30  C   UNL     1       3.003  16.204  18.408  0.00  0.00    +0.000 A 
ATOM     31  C   UNL     1       1.799  16.701  18.837  0.00  0.00    +0.000 A 
ATOM     32 CL   UNL     1       1.449  18.333  19.242  0.00  0.00    +0.000 Cl
ATOM     33  S   UNL     1       0.584  15.519  18.979  0.00  0.00    +0.000 S 
ENDBRANCH  26  28
ENDBRANCH  23  24
ENDBRANCH   9  23
TORSDOF 6
ENDMDL
MODEL 7
REMARK VINA RESULT:      -7.5      3.458      5.042
REMARK  Name = 
REMARK  8 active torsions:
REMARK  status: ('A' for Active; 'I' for Inactive)
REMARK    1  A    between atoms: C_1  and  C_2
REMARK    2  A    between atoms: C_2  and  C_3
REMARK    3  A    between atoms: C_2  and  N_4
REMARK    4  A    between atoms: C_7  and  N_8
REMARK    5  A    between atoms: C_9  and  C_11
REMARK    6  A    between atoms: N_19  and  C_20
REMARK    7  A    between atoms: C_20  and  C_21
REMARK    8  A    between atoms: N_23  and  C_24
REMARK                            x       y       z     vdW  Elec       q    Type
REMARK                         _______ _______ _______ _____ _____    ______ ____
ROOT
ATOM      1  C   UNL     1      -0.147   9.838  18.060  0.00  0.00    +0.000 A 
ATOM      2  C   UNL     1      -1.136   9.516  17.142  0.00  0.00    +0.000 A 
ATOM      3  C   UNL     1      -2.285  10.288  17.400  0.00  0.00    +0.000 A 
ATOM      4  C   UNL     1      -3.514  10.407  16.719  0.00  0.00    +0.000 A 
ATOM      5  C   UNL     1      -4.475  11.292  17.203  0.00  0.00    +0.000 A 
ATOM      6  C   UNL     1      -4.252  11.989  18.374  0.00  0.00    +0.000 A 
ATOM      7  C   UNL     1      -3.046  11.854  19.093  0.00  0.00    +0.000 A 
ATOM      8  C   UNL     1      -2.041  11.023  18.561  0.00  0.00    +0.000 A 
ATOM      9  N   UNL     1      -0.725  10.752  18.946  0.00  0.00    +0.000 N 
ENDROOT
BRANCH   1  11
ATOM     10  N   UNL     1       1.370   8.104  18.676  0.00  0.00    +0.000 N 
ATOM     11  C   UNL     1       1.223   9.349  18.105  0.00  0.00    +0.000 C 
ATOM     12  O   UNL     1       2.177   9.968  17.642  0.00  0.00    +0.000 OA
ATOM     13  H   UNL     1       0.535   7.548  18.780  0.00  0.00    +0.000 HD
BRANCH  10  17
ATOM     14  N   UNL     1       1.922   4.613  19.417  0.00  0.00    +0.000 NA
ATOM     15  C   UNL     1       1.716   5.142  18.061  0.00  0.00    +0.000 C 
ATOM     16  C   UNL     1       2.695   6.264  17.700  0.00  0.00    +0.000 C 
ATOM     17  C   UNL     1       2.644   7.394  18.724  0.00  0.00    +0.000 C 
ATOM     18  C   UNL     1       2.909   6.815  20.113  0.00  0.00    +0.000 C 
ATOM     19  C   UNL     1       1.963   5.658  20.449  0.00  0.00    +0.000 C 
BRANCH  14  21
ATOM     20  C   UNL     1       0.886   2.374  18.768  0.00  0.00    +0.000 C 
ATOM     21  C   UNL     1       0.982   3.523  19.786  0.00  0.00    +0.000 C 
ATOM     22  C   UNL     1       1.286   2.945  21.176  0.00  0.00    +0.000 C 
ENDBRANCH  14  21
ENDBRANCH  10  17
ENDBRANCH   1  11
BRANCH   9  23
ATOM     23  C   UNL     1      -0.034  11.321  20.108  0.00  0.00    +0.000 C 
BRANCH  23  24
ATOM     24  C   UNL     1       0.655  12.643  19.808  0.00  0.00    +0.000 C 
ATOM     25  O   UNL     1       0.021  13.699  19.800  0.00  0.00    +0.000 OA
ATOM     26  N   UNL     1       2.020  12.546  19.542  0.00  0.00    +0.000 N 
ATOM     27  H   UNL     1       2.327  11.687  19.080  0.00  0.00    +0.000 HD
BRANCH  26  28
ATOM     28  C   UNL     1       2.697  13.707  19.227  0.00  0.00    +0.000 A 
ATOM     29  C   UNL     1       2.897  14.343  18.020  0.00  0.00    +0.000 A 
ATOM     30  C   UNL     1       3.855  15.396  18.134  0.00  0.00    +0.000 A 
ATOM     31  C   UNL     1       4.303  15.502  19.426  0.00  0.00    +0.000 A 
ATOM     32 CL   UNL     1       5.561  16.524  19.994  0.00  0.00    +0.000 Cl
ATOM     33  S   UNL     1       3.500  14.471  20.514  0.00  0.00    +0.000 S 
ENDBRANCH  26  28
ENDBRANCH  23  24
ENDBRANCH   9  23
TORSDOF 6
ENDMDL
MODEL 8
REMARK VINA RESULT:      -7.5      2.595      7.087
REMARK  Name = 
REMARK  8 active torsions:
REMARK  status: ('A' for Active; 'I' for Inactive)
REMARK    1  A    between atoms: C_1  and  C_2
REMARK    2  A    between atoms: C_2  and  C_3
REMARK    3  A    between atoms: C_2  and  N_4
REMARK    4  A    between atoms: C_7  and  N_8
REMARK    5  A    between atoms: C_9  and  C_11
REMARK    6  A    between atoms: N_19  and  C_20
REMARK    7  A    between atoms: C_20  and  C_21
REMARK    8  A    between atoms: N_23  and  C_24
REMARK                            x       y       z     vdW  Elec       q    Type
REMARK                         _______ _______ _______ _____ _____    ______ ____
ROOT
ATOM      1  C   UNL     1       0.613  10.829  21.061  0.00  0.00    +0.000 A 
ATOM      2  C   UNL     1       0.726   9.582  21.656  0.00  0.00    +0.000 A 
ATOM      3  C   UNL     1       1.275   8.670  20.732  0.00  0.00    +0.000 A 
ATOM      4  C   UNL     1       1.669   7.323  20.858  0.00  0.00    +0.000 A 
ATOM      5  C   UNL     1       2.218   6.671  19.756  0.00  0.00    +0.000 A 
ATOM      6  C   UNL     1       2.309   7.317  18.539  0.00  0.00    +0.000 A 
ATOM      7  C   UNL     1       1.883   8.652  18.381  0.00  0.00    +0.000 A 
ATOM      8  C   UNL     1       1.404   9.339  19.514  0.00  0.00    +0.000 A 
ATOM      9  N   UNL     1       1.011  10.663  19.732  0.00  0.00    +0.000 N 
ENDROOT
BRANCH   1  11
ATOM     10  N   UNL     1      -1.115  12.070  22.141  0.00  0.00    +0.000 N 
ATOM     11  C   UNL     1       0.182  12.076  21.677  0.00  0.00    +0.000 C 
ATOM     12  O   UNL     1       0.916  13.052  21.813  0.00  0.00    +0.000 OA
ATOM     13  H   UNL     1      -1.558  11.170  22.245  0.00  0.00    +0.000 HD
BRANCH  10  17
ATOM     14  N   UNL     1      -4.300  13.668  21.555  0.00  0.00    +0.000 NA
ATOM     15  C   UNL     1      -4.107  12.531  22.467  0.00  0.00    +0.000 C 
ATOM     16  C   UNL     1      -3.029  12.788  23.525  0.00  0.00    +0.000 C 
ATOM     17  C   UNL     1      -1.703  13.182  22.880  0.00  0.00    +0.000 C 
ATOM     18  C   UNL     1      -1.933  14.393  21.977  0.00  0.00    +0.000 C 
ATOM     19  C   UNL     1      -3.048  14.152  20.956  0.00  0.00    +0.000 C 
BRANCH  14  21
ATOM     20  C   UNL     1      -6.320  12.291  20.826  0.00  0.00    +0.000 C 
ATOM     21  C   UNL     1      -5.342  13.439  20.521  0.00  0.00    +0.000 C 
ATOM     22  C   UNL     1      -6.139  14.715  20.212  0.00  0.00    +0.000 C 
ENDBRANCH  14  21
ENDBRANCH  10  17
ENDBRANCH   1  11
BRANCH   9  23
ATOM     23  C   UNL     1       1.001  11.733  18.729  0.00  0.00    +0.000 C 
BRANCH  23  24
ATOM     24  C   UNL     1      -0.359  11.932  18.078  0.00  0.00    +0.000 C 
ATOM     25  O   UNL     1      -0.823  13.061  17.917  0.00  0.00    +0.000 OA
ATOM     26  N   UNL     1      -1.009  10.756  17.707  0.00  0.00    +0.000 N 
ATOM     27  H   UNL     1      -0.833   9.941  18.298  0.00  0.00    +0.000 HD
BRANCH  26  28
ATOM     28  C   UNL     1      -2.264  10.867  17.143  0.00  0.00    +0.000 A 
ATOM     29  C   UNL     1      -2.693  10.705  15.842  0.00  0.00    +0.000 A 
ATOM     30  C   UNL     1      -4.041  11.144  15.676  0.00  0.00    +0.000 A 
ATOM     31  C   UNL     1      -4.553  11.593  16.867  0.00  0.00    +0.000 A 
ATOM     32 CL   UNL     1      -6.076  12.347  17.108  0.00  0.00    +0.000 Cl
ATOM     33  S   UNL     1      -3.508  11.364  18.188  0.00  0.00    +0.000 S 
ENDBRANCH  26  28
ENDBRANCH  23  24
ENDBRANCH   9  23
TORSDOF 6
ENDMDL
MODEL 9
REMARK VINA RESULT:      -7.5      3.150      5.023
REMARK  Name = 
REMARK  8 active torsions:
REMARK  status: ('A' for Active; 'I' for Inactive)
REMARK    1  A    between atoms: C_1  and  C_2
REMARK    2  A    between atoms: C_2  and  C_3
REMARK    3  A    between atoms: C_2  and  N_4
REMARK    4  A    between atoms: C_7  and  N_8
REMARK    5  A    between atoms: C_9  and  C_11
REMARK    6  A    between atoms: N_19  and  C_20
REMARK    7  A    between atoms: C_20  and  C_21
REMARK    8  A    between atoms: N_23  and  C_24
REMARK                            x       y       z     vdW  Elec       q    Type
REMARK                         _______ _______ _______ _____ _____    ______ ____
ROOT
ATOM      1  C   UNL     1      -0.313   9.923  18.121  0.00  0.00    +0.000 A 
ATOM      2  C   UNL     1      -1.137   9.653  17.039  0.00  0.00    +0.000 A 
ATOM      3  C   UNL     1      -2.357  10.342  17.195  0.00  0.00    +0.000 A 
ATOM      4  C   UNL     1      -3.479  10.475  16.352  0.00  0.00    +0.000 A 
ATOM      5  C   UNL     1      -4.551  11.260  16.770  0.00  0.00    +0.000 A 
ATOM      6  C   UNL     1      -4.542  11.841  18.023  0.00  0.00    +0.000 A 
ATOM      7  C   UNL     1      -3.447  11.687  18.898  0.00  0.00    +0.000 A 
ATOM      8  C   UNL     1      -2.327  10.963  18.445  0.00  0.00    +0.000 A 
ATOM      9  N   UNL     1      -1.066  10.713  18.994  0.00  0.00    +0.000 N 
ENDROOT
BRANCH   1  11
ATOM     10  N   UNL     1       1.208   8.170  18.668  0.00  0.00    +0.000 N 
ATOM     11  C   UNL     1       1.064   9.495  18.323  0.00  0.00    +0.000 C 
ATOM     12  O   UNL     1       2.032  10.235  18.166  0.00  0.00    +0.000 OA
ATOM     13  H   UNL     1       0.414   7.568  18.512  0.00  0.00    +0.000 HD
BRANCH  10  17
ATOM     14  N   UNL     1       1.867   4.712  19.475  0.00  0.00    +0.000 NA
ATOM     15  C   UNL     1       1.735   5.225  18.104  0.00  0.00    +0.000 C 
ATOM     16  C   UNL     1       2.685   6.389  17.806  0.00  0.00    +0.000 C 
ATOM     17  C   UNL     1       2.507   7.520  18.814  0.00  0.00    +0.000 C 
ATOM     18  C   UNL     1       2.696   6.961  20.224  0.00  0.00    +0.000 C 
ATOM     19  C   UNL     1       1.783   5.763  20.500  0.00  0.00    +0.000 C 
BRANCH  14  21
ATOM     20  C   UNL     1       0.892   2.482  18.710  0.00  0.00    +0.000 C 
ATOM     21  C   UNL     1       0.954   3.581  19.784  0.00  0.00    +0.000 C 
ATOM     22  C   UNL     1       1.266   2.942  21.145  0.00  0.00    +0.000 C 
ENDBRANCH  14  21
ENDBRANCH  10  17
ENDBRANCH   1  11
BRANCH   9  23
ATOM     23  C   UNL     1      -0.585  11.189  20.295  0.00  0.00    +0.000 C 
BRANCH  23  24
ATOM     24  C   UNL     1       0.184  12.498  20.209  0.00  0.00    +0.000 C 
ATOM     25  O   UNL     1      -0.402  13.565  20.019  0.00  0.00    +0.000 OA
ATOM     26  N   UNL     1       1.566  12.376  20.348  0.00  0.00    +0.000 N 
ATOM     27  H   UNL     1       1.977  11.510  19.993  0.00  0.00    +0.000 HD
BRANCH  26  28
ATOM     28  C   UNL     1       2.325  13.524  20.243  0.00  0.00    +0.000 A 
ATOM     29  C   UNL     1       2.675  14.470  21.183  0.00  0.00    +0.000 A 
ATOM     30  C   UNL     1       3.282  15.612  20.578  0.00  0.00    +0.000 A 
ATOM     31  C   UNL     1       3.371  15.447  19.219  0.00  0.00    +0.000 A 
ATOM     32 CL   UNL     1       3.891  16.619  18.077  0.00  0.00    +0.000 Cl
ATOM     33  S   UNL     1       2.878  13.910  18.684  0.00  0.00    +0.000 S 
ENDBRANCH  26  28
ENDBRANCH  23  24
ENDBRANCH   9  23
TORSDOF 6
ENDMDL
