MODEL 1
REMARK VINA RESULT:      -8.2      0.000      0.000
REMARK  Name = 
REMARK  2 active torsions:
REMARK  status: ('A' for Active; 'I' for Inactive)
REMARK    1  A    between atoms: C_12  and  C_13
REMARK    2  A    between atoms: C_13  and  C_15
REMARK                            x       y       z     vdW  Elec       q    Type
REMARK                         _______ _______ _______ _____ _____    ______ ____
ROOT
ATOM      1  O   UNL     1       7.457   5.346  20.152  0.00  0.00    +0.000 OA
ATOM      2  C   UNL     1       7.042   5.195  19.019  0.00  0.00    +0.000 C 
ATOM      3  N   UNL     1       7.751   4.761  17.915  0.00  0.00    +0.000 N 
ATOM      4  C   UNL     1       6.947   4.725  16.779  0.00  0.00    +0.000 A 
ATOM      5  C   UNL     1       7.351   4.362  15.507  0.00  0.00    +0.000 A 
ATOM      6  C   UNL     1       6.392   4.422  14.497  0.00  0.00    +0.000 A 
ATOM      7 CL   UNL     1       6.825   3.985  12.888  0.00  0.00    +0.000 Cl
ATOM      8  C   UNL     1       5.083   4.842  14.768  0.00  0.00    +0.000 A 
ATOM      9  C   UNL     1       4.704   5.211  16.065  0.00  0.00    +0.000 A 
ATOM     10  C   UNL     1       5.640   5.135  17.082  0.00  0.00    +0.000 A 
ATOM     11  C   UNL     1       5.636   5.432  18.521  0.00  0.00    +0.000 C 
ATOM     12  C   UNL     1       4.712   5.809  19.420  0.00  0.00    +0.000 C 
ATOM     13  H   UNL     1       8.729   4.516  17.953  0.00  0.00    +0.000 HD
ENDROOT
BRANCH  12  14
ATOM     14  C   UNL     1       3.260   5.940  19.155  0.00  0.00    +0.000 C 
ATOM     15  O   UNL     1       2.770   6.989  18.753  0.00  0.00    +0.000 OA
BRANCH  14  16
ATOM     16  C   UNL     1       2.386   4.749  19.279  0.00  0.00    +0.000 A 
ATOM     17  C   UNL     1       1.947   4.202  20.485  0.00  0.00    +0.000 A 
ATOM     18  C   UNL     1       1.101   3.091  20.460  0.00  0.00    +0.000 A 
ATOM     19  C   UNL     1       0.721   2.566  19.235  0.00  0.00    +0.000 A 
ATOM     20  N   UNL     1       1.123   3.072  18.054  0.00  0.00    +0.000 NA
ATOM     21  C   UNL     1       1.939   4.154  18.101  0.00  0.00    +0.000 A 
ENDBRANCH  14  16
ENDBRANCH  12  14
TORSDOF 2
ENDMDL
MODEL 2
REMARK VINA RESULT:      -7.9      0.746      1.103
REMARK  Name = 
REMARK  2 active torsions:
REMARK  status: ('A' for Active; 'I' for Inactive)
REMARK    1  A    between atoms: C_12  and  C_13
REMARK    2  A    between atoms: C_13  and  C_15
REMARK                            x       y       z     vdW  Elec       q    Type
REMARK                         _______ _______ _______ _____ _____    ______ ____
ROOT
ATOM      1  O   UNL     1       7.521   5.447  20.068  0.00  0.00    +0.000 OA
ATOM      2  C   UNL     1       7.068   5.242  18.958  0.00  0.00    +0.000 C 
ATOM      3  N   UNL     1       7.753   4.821  17.834  0.00  0.00    +0.000 N 
ATOM      4  C   UNL     1       6.905   4.709  16.736  0.00  0.00    +0.000 A 
ATOM      5  C   UNL     1       7.275   4.336  15.457  0.00  0.00    +0.000 A 
ATOM      6  C   UNL     1       6.272   4.313  14.488  0.00  0.00    +0.000 A 
ATOM      7 CL   UNL     1       6.661   3.859  12.873  0.00  0.00    +0.000 Cl
ATOM      8  C   UNL     1       4.953   4.664  14.807  0.00  0.00    +0.000 A 
ATOM      9  C   UNL     1       4.609   5.045  16.111  0.00  0.00    +0.000 A 
ATOM     10  C   UNL     1       5.591   5.050  17.087  0.00  0.00    +0.000 A 
ATOM     11  C   UNL     1       5.630   5.385  18.517  0.00  0.00    +0.000 C 
ATOM     12  C   UNL     1       4.725   5.731  19.447  0.00  0.00    +0.000 C 
ATOM     13  H   UNL     1       8.745   4.634  17.835  0.00  0.00    +0.000 HD
ENDROOT
BRANCH  12  14
ATOM     14  C   UNL     1       3.257   5.771  19.242  0.00  0.00    +0.000 C 
ATOM     15  O   UNL     1       2.680   6.802  18.918  0.00  0.00    +0.000 OA
BRANCH  14  16
ATOM     16  C   UNL     1       2.475   4.516  19.331  0.00  0.00    +0.000 A 
ATOM     17  C   UNL     1       1.723   3.967  18.292  0.00  0.00    +0.000 A 
ATOM     18  C   UNL     1       1.052   2.760  18.502  0.00  0.00    +0.000 A 
ATOM     19  C   UNL     1       1.157   2.141  19.738  0.00  0.00    +0.000 A 
ATOM     20  N   UNL     1       1.879   2.641  20.759  0.00  0.00    +0.000 NA
ATOM     21  C   UNL     1       2.526   3.811  20.533  0.00  0.00    +0.000 A 
ENDBRANCH  14  16
ENDBRANCH  12  14
TORSDOF 2
ENDMDL
MODEL 3
REMARK VINA RESULT:      -7.8      2.055      2.942
REMARK  Name = 
REMARK  2 active torsions:
REMARK  status: ('A' for Active; 'I' for Inactive)
REMARK    1  A    between atoms: C_12  and  C_13
REMARK    2  A    between atoms: C_13  and  C_15
REMARK                            x       y       z     vdW  Elec       q    Type
REMARK                         _______ _______ _______ _____ _____    ______ ____
ROOT
ATOM      1  O   UNL     1       7.483   5.343  20.131  0.00  0.00    +0.000 OA
ATOM      2  C   UNL     1       7.045   5.163  19.011  0.00  0.00    +0.000 C 
ATOM      3  N   UNL     1       7.744   4.758  17.889  0.00  0.00    +0.000 N 
ATOM      4  C   UNL     1       6.911   4.674  16.777  0.00  0.00    +0.000 A 
ATOM      5  C   UNL     1       7.298   4.323  15.496  0.00  0.00    +0.000 A 
ATOM      6  C   UNL     1       6.309   4.327  14.513  0.00  0.00    +0.000 A 
ATOM      7 CL   UNL     1       6.718   3.901  12.895  0.00  0.00    +0.000 Cl
ATOM      8  C   UNL     1       4.988   4.682  14.818  0.00  0.00    +0.000 A 
ATOM      9  C   UNL     1       4.627   5.041  16.124  0.00  0.00    +0.000 A 
ATOM     10  C   UNL     1       5.594   5.019  17.114  0.00  0.00    +0.000 A 
ATOM     11  C   UNL     1       5.615   5.326  18.551  0.00  0.00    +0.000 C 
ATOM     12  C   UNL     1       4.699   5.662  19.474  0.00  0.00    +0.000 C 
ATOM     13  H   UNL     1       8.734   4.563  17.902  0.00  0.00    +0.000 HD
ENDROOT
BRANCH  12  14
ATOM     14  C   UNL     1       3.235   5.718  19.248  0.00  0.00    +0.000 C 
ATOM     15  O   UNL     1       2.538   4.710  19.286  0.00  0.00    +0.000 OA
BRANCH  14  16
ATOM     16  C   UNL     1       2.574   7.032  19.072  0.00  0.00    +0.000 A 
ATOM     17  C   UNL     1       2.518   7.745  17.874  0.00  0.00    +0.000 A 
ATOM     18  C   UNL     1       1.838   8.964  17.839  0.00  0.00    +0.000 A 
ATOM     19  C   UNL     1       1.237   9.429  18.998  0.00  0.00    +0.000 A 
ATOM     20  N   UNL     1       1.268   8.765  20.168  0.00  0.00    +0.000 NA
ATOM     21  C   UNL     1       1.928   7.581  20.179  0.00  0.00    +0.000 A 
ENDBRANCH  14  16
ENDBRANCH  12  14
TORSDOF 2
ENDMDL
MODEL 4
REMARK VINA RESULT:      -7.8      3.348      6.097
REMARK  Name = 
REMARK  2 active torsions:
REMARK  status: ('A' for Active; 'I' for Inactive)
REMARK    1  A    between atoms: C_12  and  C_13
REMARK    2  A    between atoms: C_13  and  C_15
REMARK                            x       y       z     vdW  Elec       q    Type
REMARK                         _______ _______ _______ _____ _____    ______ ____
ROOT
ATOM      1  O   UNL     1       3.210   1.419  18.644  0.00  0.00    +0.000 OA
ATOM      2  C   UNL     1       3.039   2.605  18.853  0.00  0.00    +0.000 C 
ATOM      3  N   UNL     1       2.261   3.181  19.839  0.00  0.00    +0.000 N 
ATOM      4  C   UNL     1       2.294   4.571  19.764  0.00  0.00    +0.000 A 
ATOM      5  C   UNL     1       1.607   5.447  20.585  0.00  0.00    +0.000 A 
ATOM      6  C   UNL     1       1.755   6.808  20.322  0.00  0.00    +0.000 A 
ATOM      7 CL   UNL     1       0.929   7.958  21.303  0.00  0.00    +0.000 Cl
ATOM      8  C   UNL     1       2.559   7.257  19.264  0.00  0.00    +0.000 A 
ATOM      9  C   UNL     1       3.236   6.345  18.444  0.00  0.00    +0.000 A 
ATOM     10  C   UNL     1       3.116   4.991  18.708  0.00  0.00    +0.000 A 
ATOM     11  C   UNL     1       3.642   3.764  18.095  0.00  0.00    +0.000 C 
ATOM     12  C   UNL     1       4.503   3.479  17.104  0.00  0.00    +0.000 C 
ATOM     13  H   UNL     1       1.738   2.639  20.511  0.00  0.00    +0.000 HD
ENDROOT
BRANCH  12  14
ATOM     14  C   UNL     1       5.306   4.473  16.353  0.00  0.00    +0.000 C 
ATOM     15  O   UNL     1       5.162   4.642  15.148  0.00  0.00    +0.000 OA
BRANCH  14  16
ATOM     16  C   UNL     1       6.239   5.360  17.088  0.00  0.00    +0.000 A 
ATOM     17  C   UNL     1       6.987   4.984  18.204  0.00  0.00    +0.000 A 
ATOM     18  C   UNL     1       7.852   5.912  18.787  0.00  0.00    +0.000 A 
ATOM     19  C   UNL     1       7.943   7.181  18.236  0.00  0.00    +0.000 A 
ATOM     20  N   UNL     1       7.240   7.574  17.157  0.00  0.00    +0.000 NA
ATOM     21  C   UNL     1       6.410   6.655  16.604  0.00  0.00    +0.000 A 
ENDBRANCH  14  16
ENDBRANCH  12  14
TORSDOF 2
ENDMDL
MODEL 5
REMARK VINA RESULT:      -7.7      3.288      6.140
REMARK  Name = 
REMARK  2 active torsions:
REMARK  status: ('A' for Active; 'I' for Inactive)
REMARK    1  A    between atoms: C_12  and  C_13
REMARK    2  A    between atoms: C_13  and  C_15
REMARK                            x       y       z     vdW  Elec       q    Type
REMARK                         _______ _______ _______ _____ _____    ______ ____
ROOT
ATOM      1  O   UNL     1       2.980   1.598  18.321  0.00  0.00    +0.000 OA
ATOM      2  C   UNL     1       2.861   2.777  18.591  0.00  0.00    +0.000 C 
ATOM      3  N   UNL     1       2.084   3.337  19.588  0.00  0.00    +0.000 N 
ATOM      4  C   UNL     1       2.187   4.725  19.591  0.00  0.00    +0.000 A 
ATOM      5  C   UNL     1       1.521   5.589  20.442  0.00  0.00    +0.000 A 
ATOM      6  C   UNL     1       1.742   6.953  20.260  0.00  0.00    +0.000 A 
ATOM      7 CL   UNL     1       0.946   8.087  21.282  0.00  0.00    +0.000 Cl
ATOM      8  C   UNL     1       2.595   7.418  19.249  0.00  0.00    +0.000 A 
ATOM      9  C   UNL     1       3.251   6.519  18.396  0.00  0.00    +0.000 A 
ATOM     10  C   UNL     1       3.058   5.161  18.582  0.00  0.00    +0.000 A 
ATOM     11  C   UNL     1       3.541   3.944  17.914  0.00  0.00    +0.000 C 
ATOM     12  C   UNL     1       4.414   3.671  16.931  0.00  0.00    +0.000 C 
ATOM     13  H   UNL     1       1.517   2.786  20.215  0.00  0.00    +0.000 HD
ENDROOT
BRANCH  12  14
ATOM     14  C   UNL     1       5.285   4.663  16.258  0.00  0.00    +0.000 C 
ATOM     15  O   UNL     1       5.154   4.936  15.070  0.00  0.00    +0.000 OA
BRANCH  14  16
ATOM     16  C   UNL     1       6.277   5.421  17.056  0.00  0.00    +0.000 A 
ATOM     17  C   UNL     1       6.572   6.775  16.887  0.00  0.00    +0.000 A 
ATOM     18  C   UNL     1       7.512   7.376  17.728  0.00  0.00    +0.000 A 
ATOM     19  C   UNL     1       8.121   6.608  18.709  0.00  0.00    +0.000 A 
ATOM     20  N   UNL     1       7.855   5.302  18.901  0.00  0.00    +0.000 NA
ATOM     21  C   UNL     1       6.936   4.740  18.077  0.00  0.00    +0.000 A 
ENDBRANCH  14  16
ENDBRANCH  12  14
TORSDOF 2
ENDMDL
MODEL 6
REMARK VINA RESULT:      -7.7      3.387      6.020
REMARK  Name = 
REMARK  2 active torsions:
REMARK  status: ('A' for Active; 'I' for Inactive)
REMARK    1  A    between atoms: C_12  and  C_13
REMARK    2  A    between atoms: C_13  and  C_15
REMARK                            x       y       z     vdW  Elec       q    Type
REMARK                         _______ _______ _______ _____ _____    ______ ____
ROOT
ATOM      1  O   UNL     1       5.116   2.938  19.532  0.00  0.00    +0.000 OA
ATOM      2  C   UNL     1       4.651   4.018  19.223  0.00  0.00    +0.000 C 
ATOM      3  N   UNL     1       3.653   4.721  19.871  0.00  0.00    +0.000 N 
ATOM      4  C   UNL     1       3.369   5.917  19.218  0.00  0.00    +0.000 A 
ATOM      5  C   UNL     1       2.409   6.840  19.591  0.00  0.00    +0.000 A 
ATOM      6  C   UNL     1       2.264   7.966  18.782  0.00  0.00    +0.000 A 
ATOM      7 CL   UNL     1       1.087   9.157  19.185  0.00  0.00    +0.000 Cl
ATOM      8  C   UNL     1       3.055   8.139  17.637  0.00  0.00    +0.000 A 
ATOM      9  C   UNL     1       4.015   7.183  17.280  0.00  0.00    +0.000 A 
ATOM     10  C   UNL     1       4.185   6.072  18.088  0.00  0.00    +0.000 A 
ATOM     11  C   UNL     1       5.049   4.884  18.050  0.00  0.00    +0.000 C 
ATOM     12  C   UNL     1       6.059   4.456  17.275  0.00  0.00    +0.000 C 
ATOM     13  H   UNL     1       3.198   4.382  20.706  0.00  0.00    +0.000 HD
ENDROOT
BRANCH  12  14
ATOM     14  C   UNL     1       6.688   5.232  16.180  0.00  0.00    +0.000 C 
ATOM     15  O   UNL     1       7.343   6.244  16.401  0.00  0.00    +0.000 OA
BRANCH  14  16
ATOM     16  C   UNL     1       6.613   4.724  14.790  0.00  0.00    +0.000 A 
ATOM     17  C   UNL     1       5.625   3.866  14.305  0.00  0.00    +0.000 A 
ATOM     18  C   UNL     1       5.657   3.483  12.962  0.00  0.00    +0.000 A 
ATOM     19  C   UNL     1       6.669   3.971  12.150  0.00  0.00    +0.000 A 
ATOM     20  N   UNL     1       7.633   4.804  12.585  0.00  0.00    +0.000 NA
ATOM     21  C   UNL     1       7.581   5.167  13.891  0.00  0.00    +0.000 A 
ENDBRANCH  14  16
ENDBRANCH  12  14
TORSDOF 2
ENDMDL
MODEL 7
REMARK VINA RESULT:      -7.6      3.532      6.201
REMARK  Name = 
REMARK  2 active torsions:
REMARK  status: ('A' for Active; 'I' for Inactive)
REMARK    1  A    between atoms: C_12  and  C_13
REMARK    2  A    between atoms: C_13  and  C_15
REMARK                            x       y       z     vdW  Elec       q    Type
REMARK                         _______ _______ _______ _____ _____    ______ ____
ROOT
ATOM      1  O   UNL     1       2.232   4.148  21.448  0.00  0.00    +0.000 OA
ATOM      2  C   UNL     1       2.206   5.181  20.808  0.00  0.00    +0.000 C 
ATOM      3  N   UNL     1       1.552   6.355  21.132  0.00  0.00    +0.000 N 
ATOM      4  C   UNL     1       1.734   7.324  20.149  0.00  0.00    +0.000 A 
ATOM      5  C   UNL     1       1.196   8.599  20.153  0.00  0.00    +0.000 A 
ATOM      6  C   UNL     1       1.479   9.409  19.055  0.00  0.00    +0.000 A 
ATOM      7 CL   UNL     1       0.842  11.008  18.991  0.00  0.00    +0.000 Cl
ATOM      8  C   UNL     1       2.268   8.939  17.995  0.00  0.00    +0.000 A 
ATOM      9  C   UNL     1       2.794   7.641  18.015  0.00  0.00    +0.000 A 
ATOM     10  C   UNL     1       2.539   6.834  19.111  0.00  0.00    +0.000 A 
ATOM     11  C   UNL     1       2.891   5.458  19.490  0.00  0.00    +0.000 C 
ATOM     12  C   UNL     1       3.658   4.486  18.970  0.00  0.00    +0.000 C 
ATOM     13  H   UNL     1       1.010   6.465  21.976  0.00  0.00    +0.000 HD
ENDROOT
BRANCH  12  14
ATOM     14  C   UNL     1       4.524   4.623  17.775  0.00  0.00    +0.000 C 
ATOM     15  O   UNL     1       4.242   4.087  16.710  0.00  0.00    +0.000 OA
BRANCH  14  16
ATOM     16  C   UNL     1       5.710   5.510  17.833  0.00  0.00    +0.000 A 
ATOM     17  C   UNL     1       6.694   5.465  18.821  0.00  0.00    +0.000 A 
ATOM     18  C   UNL     1       7.778   6.343  18.741  0.00  0.00    +0.000 A 
ATOM     19  C   UNL     1       7.843   7.232  17.680  0.00  0.00    +0.000 A 
ATOM     20  N   UNL     1       6.913   7.298  16.709  0.00  0.00    +0.000 NA
ATOM     21  C   UNL     1       5.873   6.433  16.802  0.00  0.00    +0.000 A 
ENDBRANCH  14  16
ENDBRANCH  12  14
TORSDOF 2
ENDMDL
MODEL 8
REMARK VINA RESULT:      -7.6      2.970      6.082
REMARK  Name = 
REMARK  2 active torsions:
REMARK  status: ('A' for Active; 'I' for Inactive)
REMARK    1  A    between atoms: C_12  and  C_13
REMARK    2  A    between atoms: C_13  and  C_15
REMARK                            x       y       z     vdW  Elec       q    Type
REMARK                         _______ _______ _______ _____ _____    ______ ____
ROOT
ATOM      1  O   UNL     1       4.162   8.234  17.403  0.00  0.00    +0.000 OA
ATOM      2  C   UNL     1       3.860   7.061  17.504  0.00  0.00    +0.000 C 
ATOM      3  N   UNL     1       2.656   6.536  17.936  0.00  0.00    +0.000 N 
ATOM      4  C   UNL     1       2.680   5.145  17.934  0.00  0.00    +0.000 A 
ATOM      5  C   UNL     1       1.649   4.312  18.332  0.00  0.00    +0.000 A 
ATOM      6  C   UNL     1       1.887   2.940  18.280  0.00  0.00    +0.000 A 
ATOM      7 CL   UNL     1       0.649   1.844  18.761  0.00  0.00    +0.000 Cl
ATOM      8  C   UNL     1       3.124   2.437  17.852  0.00  0.00    +0.000 A 
ATOM      9  C   UNL     1       4.153   3.305  17.463  0.00  0.00    +0.000 A 
ATOM     10  C   UNL     1       3.921   4.669  17.487  0.00  0.00    +0.000 A 
ATOM     11  C   UNL     1       4.720   5.863  17.175  0.00  0.00    +0.000 C 
ATOM     12  C   UNL     1       5.943   6.094  16.669  0.00  0.00    +0.000 C 
ATOM     13  H   UNL     1       1.878   7.113  18.218  0.00  0.00    +0.000 HD
ENDROOT
BRANCH  12  14
ATOM     14  C   UNL     1       6.865   5.058  16.147  0.00  0.00    +0.000 C 
ATOM     15  O   UNL     1       7.647   4.463  16.879  0.00  0.00    +0.000 OA
BRANCH  14  16
ATOM     16  C   UNL     1       6.776   4.654  14.724  0.00  0.00    +0.000 A 
ATOM     17  C   UNL     1       5.836   3.763  14.203  0.00  0.00    +0.000 A 
ATOM     18  C   UNL     1       5.846   3.489  12.834  0.00  0.00    +0.000 A 
ATOM     19  C   UNL     1       6.789   4.114  12.032  0.00  0.00    +0.000 A 
ATOM     20  N   UNL     1       7.705   4.981  12.502  0.00  0.00    +0.000 NA
ATOM     21  C   UNL     1       7.675   5.238  13.833  0.00  0.00    +0.000 A 
ENDBRANCH  14  16
ENDBRANCH  12  14
TORSDOF 2
ENDMDL
MODEL 9
REMARK VINA RESULT:      -7.5      3.303      5.915
REMARK  Name = 
REMARK  2 active torsions:
REMARK  status: ('A' for Active; 'I' for Inactive)
REMARK    1  A    between atoms: C_12  and  C_13
REMARK    2  A    between atoms: C_13  and  C_15
REMARK                            x       y       z     vdW  Elec       q    Type
REMARK                         _______ _______ _______ _____ _____    ______ ____
ROOT
ATOM      1  O   UNL     1       2.125   3.812  21.695  0.00  0.00    +0.000 OA
ATOM      2  C   UNL     1       2.113   4.787  20.969  0.00  0.00    +0.000 C 
ATOM      3  N   UNL     1       1.805   6.089  21.315  0.00  0.00    +0.000 N 
ATOM      4  C   UNL     1       1.882   6.938  20.214  0.00  0.00    +0.000 A 
ATOM      5  C   UNL     1       1.612   8.295  20.212  0.00  0.00    +0.000 A 
ATOM      6  C   UNL     1       1.722   8.960  18.992  0.00  0.00    +0.000 A 
ATOM      7 CL   UNL     1       1.400  10.650  18.914  0.00  0.00    +0.000 Cl
ATOM      8  C   UNL     1       2.080   8.272  17.824  0.00  0.00    +0.000 A 
ATOM      9  C   UNL     1       2.340   6.896  17.855  0.00  0.00    +0.000 A 
ATOM     10  C   UNL     1       2.257   6.228  19.065  0.00  0.00    +0.000 A 
ATOM     11  C   UNL     1       2.440   4.834  19.495  0.00  0.00    +0.000 C 
ATOM     12  C   UNL     1       2.836   3.693  18.908  0.00  0.00    +0.000 C 
ATOM     13  H   UNL     1       1.552   6.361  22.253  0.00  0.00    +0.000 HD
ENDROOT
BRANCH  12  14
ATOM     14  C   UNL     1       3.343   3.573  17.520  0.00  0.00    +0.000 C 
ATOM     15  O   UNL     1       2.607   3.267  16.589  0.00  0.00    +0.000 OA
BRANCH  14  16
ATOM     16  C   UNL     1       4.751   3.928  17.225  0.00  0.00    +0.000 A 
ATOM     17  C   UNL     1       5.282   4.095  15.946  0.00  0.00    +0.000 A 
ATOM     18  C   UNL     1       6.624   4.458  15.809  0.00  0.00    +0.000 A 
ATOM     19  C   UNL     1       7.388   4.644  16.951  0.00  0.00    +0.000 A 
ATOM     20  N   UNL     1       6.905   4.496  18.199  0.00  0.00    +0.000 NA
ATOM     21  C   UNL     1       5.599   4.149  18.309  0.00  0.00    +0.000 A 
ENDBRANCH  14  16
ENDBRANCH  12  14
TORSDOF 2
ENDMDL
