MODEL 1
REMARK VINA RESULT:      -7.8      0.000      0.000
REMARK  Name = 
REMARK  5 active torsions:
REMARK  status: ('A' for Active; 'I' for Inactive)
REMARK    1  A    between atoms: C_1  and  C_2
REMARK    2  A    between atoms: C_5  and  O_6
REMARK    3  A    between atoms: C_7  and  N_8
REMARK    4  A    between atoms: C_9  and  C_11
REMARK    5  A    between atoms: C_17  and  C_18
REMARK                            x       y       z     vdW  Elec       q    Type
REMARK                         _______ _______ _______ _____ _____    ______ ____
ROOT
ATOM      1  N   UNL     1       5.871   4.108  15.766  0.00  0.00    +0.000 N 
ATOM      2  C   UNL     1       5.242   5.171  16.375  0.00  0.00    +0.000 C 
ATOM      3  O   UNL     1       4.924   6.222  15.827  0.00  0.00    +0.000 OA
ATOM      4  H   UNL     1       5.975   3.223  16.242  0.00  0.00    +0.000 HD
ENDROOT
BRANCH   2   5
ATOM      5  C   UNL     1       4.889   4.994  17.779  0.00  0.00    +0.000 A 
ATOM      6  C   UNL     1       5.581   5.244  18.984  0.00  0.00    +0.000 A 
ATOM      7  N   UNL     1       4.823   5.045  20.072  0.00  0.00    +0.000 NA
ATOM      8  N   UNL     1       3.627   4.700  19.561  0.00  0.00    +0.000 N 
ATOM      9  C   UNL     1       3.640   4.575  18.203  0.00  0.00    +0.000 A 
ATOM     10  C   UNL     1       2.443   4.119  17.437  0.00  0.00    +0.000 C 
ATOM     11  C   UNL     1       1.438   3.378  18.332  0.00  0.00    +0.000 C 
ATOM     12  C   UNL     1       1.907   1.954  18.645  0.00  0.00    +0.000 C 
ATOM     13  C   UNL     1       1.195   4.206  19.606  0.00  0.00    +0.000 C 
ATOM     14  C   UNL     1       2.482   4.432  20.414  0.00  0.00    +0.000 C 
ENDBRANCH   2   5
BRANCH   1  20
ATOM     15  C   UNL     1       5.158   2.398  11.351  0.00  0.00    +0.000 C 
ATOM     16  C   UNL     1       5.934   3.325  12.236  0.00  0.00    +0.000 A 
ATOM     17  C   UNL     1       6.973   4.106  11.756  0.00  0.00    +0.000 A 
ATOM     18  C   UNL     1       7.659   4.928  12.650  0.00  0.00    +0.000 A 
ATOM     19  C   UNL     1       7.279   4.942  13.991  0.00  0.00    +0.000 A 
ATOM     20  C   UNL     1       6.230   4.124  14.405  0.00  0.00    +0.000 A 
ATOM     21  N   UNL     1       5.566   3.343  13.533  0.00  0.00    +0.000 NA
BRANCH  19  22
ATOM     22  O   UNL     1       7.932   5.736  14.895  0.00  0.00    +0.000 OA
ATOM     23  H   UNL     1       7.352   5.857  15.667  0.00  0.00    +0.000 HD
ENDBRANCH  19  22
ENDBRANCH   1  20
TORSDOF 3
ENDMDL
MODEL 2
REMARK VINA RESULT:      -7.2      4.577      7.594
REMARK  Name = 
REMARK  5 active torsions:
REMARK  status: ('A' for Active; 'I' for Inactive)
REMARK    1  A    between atoms: C_1  and  C_2
REMARK    2  A    between atoms: C_5  and  O_6
REMARK    3  A    between atoms: C_7  and  N_8
REMARK    4  A    between atoms: C_9  and  C_11
REMARK    5  A    between atoms: C_17  and  C_18
REMARK                            x       y       z     vdW  Elec       q    Type
REMARK                         _______ _______ _______ _____ _____    ______ ____
ROOT
ATOM      1  N   UNL     1       1.763   7.749  20.442  0.00  0.00    +0.000 N 
ATOM      2  C   UNL     1       2.336   7.323  19.266  0.00  0.00    +0.000 C 
ATOM      3  O   UNL     1       2.295   7.920  18.194  0.00  0.00    +0.000 OA
ATOM      4  H   UNL     1       1.956   7.279  21.315  0.00  0.00    +0.000 HD
ENDROOT
BRANCH   2   5
ATOM      5  C   UNL     1       3.094   6.078  19.330  0.00  0.00    +0.000 A 
ATOM      6  C   UNL     1       4.433   5.751  19.028  0.00  0.00    +0.000 A 
ATOM      7  N   UNL     1       4.748   4.488  19.352  0.00  0.00    +0.000 NA
ATOM      8  N   UNL     1       3.614   4.014  19.897  0.00  0.00    +0.000 N 
ATOM      9  C   UNL     1       2.576   4.896  19.831  0.00  0.00    +0.000 A 
ATOM     10  C   UNL     1       1.204   4.545  20.302  0.00  0.00    +0.000 C 
ATOM     11  C   UNL     1       1.000   3.025  20.388  0.00  0.00    +0.000 C 
ATOM     12  C   UNL     1       0.794   2.405  19.001  0.00  0.00    +0.000 C 
ATOM     13  C   UNL     1       2.191   2.400  21.135  0.00  0.00    +0.000 C 
ATOM     14  C   UNL     1       3.530   2.665  20.432  0.00  0.00    +0.000 C 
ENDBRANCH   2   5
BRANCH   1  20
ATOM     15  C   UNL     1      -1.159  10.913  18.350  0.00  0.00    +0.000 C 
ATOM     16  C   UNL     1      -0.376  10.532  19.568  0.00  0.00    +0.000 A 
ATOM     17  C   UNL     1      -0.322  11.340  20.694  0.00  0.00    +0.000 A 
ATOM     18  C   UNL     1       0.448  10.921  21.779  0.00  0.00    +0.000 A 
ATOM     19  C   UNL     1       1.133   9.710  21.703  0.00  0.00    +0.000 A 
ATOM     20  C   UNL     1       1.040   8.953  20.536  0.00  0.00    +0.000 A 
ATOM     21  N   UNL     1       0.285   9.359  19.498  0.00  0.00    +0.000 NA
BRANCH  19  22
ATOM     22  O   UNL     1       1.898   9.271  22.749  0.00  0.00    +0.000 OA
ATOM     23  H   UNL     1       1.324   8.776  23.358  0.00  0.00    +0.000 HD
ENDBRANCH  19  22
ENDBRANCH   1  20
TORSDOF 3
ENDMDL
MODEL 3
REMARK VINA RESULT:      -7.2      1.348      1.531
REMARK  Name = 
REMARK  5 active torsions:
REMARK  status: ('A' for Active; 'I' for Inactive)
REMARK    1  A    between atoms: C_1  and  C_2
REMARK    2  A    between atoms: C_5  and  O_6
REMARK    3  A    between atoms: C_7  and  N_8
REMARK    4  A    between atoms: C_9  and  C_11
REMARK    5  A    between atoms: C_17  and  C_18
REMARK                            x       y       z     vdW  Elec       q    Type
REMARK                         _______ _______ _______ _____ _____    ______ ____
ROOT
ATOM      1  N   UNL     1       4.931   5.268  15.677  0.00  0.00    +0.000 N 
ATOM      2  C   UNL     1       4.599   4.435  16.721  0.00  0.00    +0.000 C 
ATOM      3  O   UNL     1       4.878   3.242  16.799  0.00  0.00    +0.000 OA
ATOM      4  H   UNL     1       4.793   6.267  15.744  0.00  0.00    +0.000 HD
ENDROOT
BRANCH   2   5
ATOM      5  C   UNL     1       3.901   5.051  17.843  0.00  0.00    +0.000 A 
ATOM      6  C   UNL     1       3.826   6.379  18.318  0.00  0.00    +0.000 A 
ATOM      7  N   UNL     1       2.956   6.524  19.328  0.00  0.00    +0.000 NA
ATOM      8  N   UNL     1       2.446   5.288  19.480  0.00  0.00    +0.000 N 
ATOM      9  C   UNL     1       3.036   4.360  18.674  0.00  0.00    +0.000 A 
ATOM     10  C   UNL     1       2.681   2.912  18.739  0.00  0.00    +0.000 C 
ATOM     11  C   UNL     1       1.997   2.549  20.065  0.00  0.00    +0.000 C 
ATOM     12  C   UNL     1       3.008   2.457  21.213  0.00  0.00    +0.000 C 
ATOM     13  C   UNL     1       0.881   3.569  20.351  0.00  0.00    +0.000 C 
ATOM     14  C   UNL     1       1.413   5.005  20.462  0.00  0.00    +0.000 C 
ENDBRANCH   2   5
BRANCH   1  20
ATOM     15  C   UNL     1       4.922   2.783  11.584  0.00  0.00    +0.000 C 
ATOM     16  C   UNL     1       5.702   3.617  12.552  0.00  0.00    +0.000 A 
ATOM     17  C   UNL     1       7.052   3.883  12.378  0.00  0.00    +0.000 A 
ATOM     18  C   UNL     1       7.710   4.652  13.337  0.00  0.00    +0.000 A 
ATOM     19  C   UNL     1       6.997   5.131  14.434  0.00  0.00    +0.000 A 
ATOM     20  C   UNL     1       5.643   4.818  14.549  0.00  0.00    +0.000 A 
ATOM     21  N   UNL     1       5.013   4.085  13.612  0.00  0.00    +0.000 NA
BRANCH  19  22
ATOM     22  O   UNL     1       7.613   5.887  15.394  0.00  0.00    +0.000 OA
ATOM     23  H   UNL     1       8.189   6.533  14.948  0.00  0.00    +0.000 HD
ENDBRANCH  19  22
ENDBRANCH   1  20
TORSDOF 3
ENDMDL
MODEL 4
REMARK VINA RESULT:      -7.1      1.152      1.297
REMARK  Name = 
REMARK  5 active torsions:
REMARK  status: ('A' for Active; 'I' for Inactive)
REMARK    1  A    between atoms: C_1  and  C_2
REMARK    2  A    between atoms: C_5  and  O_6
REMARK    3  A    between atoms: C_7  and  N_8
REMARK    4  A    between atoms: C_9  and  C_11
REMARK    5  A    between atoms: C_17  and  C_18
REMARK                            x       y       z     vdW  Elec       q    Type
REMARK                         _______ _______ _______ _____ _____    ______ ____
ROOT
ATOM      1  N   UNL     1       5.189   4.582  15.736  0.00  0.00    +0.000 N 
ATOM      2  C   UNL     1       4.775   5.816  16.184  0.00  0.00    +0.000 C 
ATOM      3  O   UNL     1       4.912   6.877  15.583  0.00  0.00    +0.000 OA
ATOM      4  H   UNL     1       4.917   3.736  16.217  0.00  0.00    +0.000 HD
ENDROOT
BRANCH   2   5
ATOM      5  C   UNL     1       4.070   5.837  17.462  0.00  0.00    +0.000 A 
ATOM      6  C   UNL     1       3.687   6.880  18.332  0.00  0.00    +0.000 A 
ATOM      7  N   UNL     1       2.937   6.454  19.360  0.00  0.00    +0.000 NA
ATOM      8  N   UNL     1       2.812   5.134  19.127  0.00  0.00    +0.000 N 
ATOM      9  C   UNL     1       3.537   4.706  18.056  0.00  0.00    +0.000 A 
ATOM     10  C   UNL     1       3.609   3.266  17.670  0.00  0.00    +0.000 C 
ATOM     11  C   UNL     1       3.215   2.342  18.832  0.00  0.00    +0.000 C 
ATOM     12  C   UNL     1       4.340   2.226  19.866  0.00  0.00    +0.000 C 
ATOM     13  C   UNL     1       1.902   2.848  19.454  0.00  0.00    +0.000 C 
ATOM     14  C   UNL     1       2.023   4.279  19.998  0.00  0.00    +0.000 C 
ENDBRANCH   2   5
BRANCH   1  20
ATOM     15  C   UNL     1       5.175   2.619  11.369  0.00  0.00    +0.000 C 
ATOM     16  C   UNL     1       5.894   3.475  12.365  0.00  0.00    +0.000 A 
ATOM     17  C   UNL     1       7.144   4.016  12.109  0.00  0.00    +0.000 A 
ATOM     18  C   UNL     1       7.754   4.787  13.099  0.00  0.00    +0.000 A 
ATOM     19  C   UNL     1       7.092   4.991  14.308  0.00  0.00    +0.000 A 
ATOM     20  C   UNL     1       5.841   4.409  14.501  0.00  0.00    +0.000 A 
ATOM     21  N   UNL     1       5.254   3.678  13.535  0.00  0.00    +0.000 NA
BRANCH  19  22
ATOM     22  O   UNL     1       7.664   5.740  15.301  0.00  0.00    +0.000 OA
ATOM     23  H   UNL     1       7.319   6.647  15.234  0.00  0.00    +0.000 HD
ENDBRANCH  19  22
ENDBRANCH   1  20
TORSDOF 3
ENDMDL
MODEL 5
REMARK VINA RESULT:      -7.1      3.646      7.540
REMARK  Name = 
REMARK  5 active torsions:
REMARK  status: ('A' for Active; 'I' for Inactive)
REMARK    1  A    between atoms: C_1  and  C_2
REMARK    2  A    between atoms: C_5  and  O_6
REMARK    3  A    between atoms: C_7  and  N_8
REMARK    4  A    between atoms: C_9  and  C_11
REMARK    5  A    between atoms: C_17  and  C_18
REMARK                            x       y       z     vdW  Elec       q    Type
REMARK                         _______ _______ _______ _____ _____    ______ ____
ROOT
ATOM      1  N   UNL     1       2.887   7.301  19.699  0.00  0.00    +0.000 N 
ATOM      2  C   UNL     1       2.790   6.167  18.926  0.00  0.00    +0.000 C 
ATOM      3  O   UNL     1       1.809   5.833  18.268  0.00  0.00    +0.000 OA
ATOM      4  H   UNL     1       3.771   7.585  20.098  0.00  0.00    +0.000 HD
ENDROOT
BRANCH   2   5
ATOM      5  C   UNL     1       3.982   5.329  18.855  0.00  0.00    +0.000 A 
ATOM      6  C   UNL     1       4.324   4.091  19.440  0.00  0.00    +0.000 A 
ATOM      7  N   UNL     1       5.498   3.613  19.002  0.00  0.00    +0.000 NA
ATOM      8  N   UNL     1       5.895   4.535  18.106  0.00  0.00    +0.000 N 
ATOM      9  C   UNL     1       5.067   5.616  18.044  0.00  0.00    +0.000 A 
ATOM     10  C   UNL     1       5.363   6.794  17.177  0.00  0.00    +0.000 C 
ATOM     11  C   UNL     1       6.847   6.859  16.786  0.00  0.00    +0.000 C 
ATOM     12  C   UNL     1       7.713   7.365  17.944  0.00  0.00    +0.000 C 
ATOM     13  C   UNL     1       7.295   5.475  16.285  0.00  0.00    +0.000 C 
ATOM     14  C   UNL     1       7.126   4.381  17.349  0.00  0.00    +0.000 C 
ENDBRANCH   2   5
BRANCH   1  20
ATOM     15  C   UNL     1      -0.577   9.175  22.422  0.00  0.00    +0.000 C 
ATOM     16  C   UNL     1       0.123   9.169  21.098  0.00  0.00    +0.000 A 
ATOM     17  C   UNL     1      -0.279   9.976  20.046  0.00  0.00    +0.000 A 
ATOM     18  C   UNL     1       0.415   9.895  18.839  0.00  0.00    +0.000 A 
ATOM     19  C   UNL     1       1.487   9.011  18.727  0.00  0.00    +0.000 A 
ATOM     20  C   UNL     1       1.830   8.222  19.823  0.00  0.00    +0.000 A 
ATOM     21  N   UNL     1       1.163   8.317  20.989  0.00  0.00    +0.000 NA
BRANCH  19  22
ATOM     22  O   UNL     1       2.187   8.905  17.556  0.00  0.00    +0.000 OA
ATOM     23  H   UNL     1       2.755   9.690  17.470  0.00  0.00    +0.000 HD
ENDBRANCH  19  22
ENDBRANCH   1  20
TORSDOF 3
ENDMDL
MODEL 6
REMARK VINA RESULT:      -7.0      3.863      7.832
REMARK  Name = 
REMARK  5 active torsions:
REMARK  status: ('A' for Active; 'I' for Inactive)
REMARK    1  A    between atoms: C_1  and  C_2
REMARK    2  A    between atoms: C_5  and  O_6
REMARK    3  A    between atoms: C_7  and  N_8
REMARK    4  A    between atoms: C_9  and  C_11
REMARK    5  A    between atoms: C_17  and  C_18
REMARK                            x       y       z     vdW  Elec       q    Type
REMARK                         _______ _______ _______ _____ _____    ______ ____
ROOT
ATOM      1  N   UNL     1       2.477   7.400  19.837  0.00  0.00    +0.000 N 
ATOM      2  C   UNL     1       2.232   6.055  19.994  0.00  0.00    +0.000 C 
ATOM      3  O   UNL     1       1.223   5.565  20.492  0.00  0.00    +0.000 OA
ATOM      4  H   UNL     1       3.262   7.726  19.292  0.00  0.00    +0.000 HD
ENDROOT
BRANCH   2   5
ATOM      5  C   UNL     1       3.249   5.148  19.472  0.00  0.00    +0.000 A 
ATOM      6  C   UNL     1       3.692   3.868  19.869  0.00  0.00    +0.000 A 
ATOM      7  N   UNL     1       4.582   3.336  19.019  0.00  0.00    +0.000 NA
ATOM      8  N   UNL     1       4.685   4.267  18.053  0.00  0.00    +0.000 N 
ATOM      9  C   UNL     1       3.974   5.399  18.320  0.00  0.00    +0.000 A 
ATOM     10  C   UNL     1       4.013   6.591  17.422  0.00  0.00    +0.000 C 
ATOM     11  C   UNL     1       5.247   6.579  16.508  0.00  0.00    +0.000 C 
ATOM     12  C   UNL     1       6.515   6.982  17.269  0.00  0.00    +0.000 C 
ATOM     13  C   UNL     1       5.376   5.192  15.856  0.00  0.00    +0.000 C 
ATOM     14  C   UNL     1       5.534   4.068  16.891  0.00  0.00    +0.000 C 
ENDBRANCH   2   5
BRANCH   1  20
ATOM     15  C   UNL     1       0.032   9.425  23.421  0.00  0.00    +0.000 C 
ATOM     16  C   UNL     1       0.342   9.409  21.956  0.00  0.00    +0.000 A 
ATOM     17  C   UNL     1      -0.272  10.271  21.061  0.00  0.00    +0.000 A 
ATOM     18  C   UNL     1       0.058  10.177  19.710  0.00  0.00    +0.000 A 
ATOM     19  C   UNL     1       0.992   9.227  19.300  0.00  0.00    +0.000 A 
ATOM     20  C   UNL     1       1.563   8.386  20.254  0.00  0.00    +0.000 A 
ATOM     21  N   UNL     1       1.248   8.493  21.559  0.00  0.00    +0.000 NA
BRANCH  19  22
ATOM     22  O   UNL     1       1.337   9.107  17.981  0.00  0.00    +0.000 OA
ATOM     23  H   UNL     1       2.006   8.405  17.905  0.00  0.00    +0.000 HD
ENDBRANCH  19  22
ENDBRANCH   1  20
TORSDOF 3
ENDMDL
MODEL 7
REMARK VINA RESULT:      -6.9      4.582      7.604
REMARK  Name = 
REMARK  5 active torsions:
REMARK  status: ('A' for Active; 'I' for Inactive)
REMARK    1  A    between atoms: C_1  and  C_2
REMARK    2  A    between atoms: C_5  and  O_6
REMARK    3  A    between atoms: C_7  and  N_8
REMARK    4  A    between atoms: C_9  and  C_11
REMARK    5  A    between atoms: C_17  and  C_18
REMARK                            x       y       z     vdW  Elec       q    Type
REMARK                         _______ _______ _______ _____ _____    ______ ____
ROOT
ATOM      1  N   UNL     1       1.831   8.023  20.141  0.00  0.00    +0.000 N 
ATOM      2  C   UNL     1       2.232   7.397  18.982  0.00  0.00    +0.000 C 
ATOM      3  O   UNL     1       2.032   7.808  17.843  0.00  0.00    +0.000 OA
ATOM      4  H   UNL     1       2.153   7.702  21.043  0.00  0.00    +0.000 HD
ENDROOT
BRANCH   2   5
ATOM      5  C   UNL     1       3.001   6.168  19.144  0.00  0.00    +0.000 A 
ATOM      6  C   UNL     1       4.344   5.831  18.872  0.00  0.00    +0.000 A 
ATOM      7  N   UNL     1       4.669   4.600  19.293  0.00  0.00    +0.000 NA
ATOM      8  N   UNL     1       3.536   4.158  19.868  0.00  0.00    +0.000 N 
ATOM      9  C   UNL     1       2.491   5.023  19.731  0.00  0.00    +0.000 A 
ATOM     10  C   UNL     1       1.120   4.695  20.221  0.00  0.00    +0.000 C 
ATOM     11  C   UNL     1       0.929   3.184  20.422  0.00  0.00    +0.000 C 
ATOM     12  C   UNL     1       0.736   2.459  19.085  0.00  0.00    +0.000 C 
ATOM     13  C   UNL     1       2.122   2.629  21.218  0.00  0.00    +0.000 C 
ATOM     14  C   UNL     1       3.463   2.853  20.503  0.00  0.00    +0.000 C 
ENDBRANCH   2   5
BRANCH   1  20
ATOM     15  C   UNL     1       1.511  12.540  18.586  0.00  0.00    +0.000 C 
ATOM     16  C   UNL     1       0.914  11.446  19.416  0.00  0.00    +0.000 A 
ATOM     17  C   UNL     1      -0.232  11.634  20.173  0.00  0.00    +0.000 A 
ATOM     18  C   UNL     1      -0.712  10.569  20.935  0.00  0.00    +0.000 A 
ATOM     19  C   UNL     1      -0.031   9.353  20.912  0.00  0.00    +0.000 A 
ATOM     20  C   UNL     1       1.121   9.238  20.135  0.00  0.00    +0.000 A 
ATOM     21  N   UNL     1       1.569  10.267  19.393  0.00  0.00    +0.000 NA
BRANCH  19  22
ATOM     22  O   UNL     1      -0.473   8.289  21.650  0.00  0.00    +0.000 OA
ATOM     23  H   UNL     1      -1.348   8.512  22.010  0.00  0.00    +0.000 HD
ENDBRANCH  19  22
ENDBRANCH   1  20
TORSDOF 3
ENDMDL
MODEL 8
REMARK VINA RESULT:      -6.8      3.934      7.601
REMARK  Name = 
REMARK  5 active torsions:
REMARK  status: ('A' for Active; 'I' for Inactive)
REMARK    1  A    between atoms: C_1  and  C_2
REMARK    2  A    between atoms: C_5  and  O_6
REMARK    3  A    between atoms: C_7  and  N_8
REMARK    4  A    between atoms: C_9  and  C_11
REMARK    5  A    between atoms: C_17  and  C_18
REMARK                            x       y       z     vdW  Elec       q    Type
REMARK                         _______ _______ _______ _____ _____    ______ ____
ROOT
ATOM      1  N   UNL     1       2.237   7.614  18.553  0.00  0.00    +0.000 N 
ATOM      2  C   UNL     1       2.491   6.402  19.154  0.00  0.00    +0.000 C 
ATOM      3  O   UNL     1       2.269   6.127  20.329  0.00  0.00    +0.000 OA
ATOM      4  H   UNL     1       2.313   7.724  17.552  0.00  0.00    +0.000 HD
ENDROOT
BRANCH   2   5
ATOM      5  C   UNL     1       3.025   5.353  18.292  0.00  0.00    +0.000 A 
ATOM      6  C   UNL     1       2.528   4.095  17.889  0.00  0.00    +0.000 A 
ATOM      7  N   UNL     1       3.307   3.494  16.977  0.00  0.00    +0.000 NA
ATOM      8  N   UNL     1       4.291   4.389  16.770  0.00  0.00    +0.000 N 
ATOM      9  C   UNL     1       4.211   5.475  17.590  0.00  0.00    +0.000 A 
ATOM     10  C   UNL     1       5.247   6.549  17.587  0.00  0.00    +0.000 C 
ATOM     11  C   UNL     1       6.567   6.070  16.965  0.00  0.00    +0.000 C 
ATOM     12  C   UNL     1       7.352   5.176  17.930  0.00  0.00    +0.000 C 
ATOM     13  C   UNL     1       6.268   5.366  15.631  0.00  0.00    +0.000 C 
ATOM     14  C   UNL     1       5.348   4.148  15.802  0.00  0.00    +0.000 C 
ENDBRANCH   2   5
BRANCH   1  20
ATOM     15  C   UNL     1       0.325   9.289  22.610  0.00  0.00    +0.000 C 
ATOM     16  C   UNL     1       0.738   9.572  21.199  0.00  0.00    +0.000 A 
ATOM     17  C   UNL     1       0.536  10.808  20.604  0.00  0.00    +0.000 A 
ATOM     18  C   UNL     1       0.932  10.983  19.278  0.00  0.00    +0.000 A 
ATOM     19  C   UNL     1       1.517   9.919  18.595  0.00  0.00    +0.000 A 
ATOM     20  C   UNL     1       1.681   8.701  19.254  0.00  0.00    +0.000 A 
ATOM     21  N   UNL     1       1.308   8.545  20.538  0.00  0.00    +0.000 NA
BRANCH  19  22
ATOM     22  O   UNL     1       1.915  10.057  17.293  0.00  0.00    +0.000 OA
ATOM     23  H   UNL     1       2.875   9.906  17.251  0.00  0.00    +0.000 HD
ENDBRANCH  19  22
ENDBRANCH   1  20
TORSDOF 3
ENDMDL
MODEL 9
REMARK VINA RESULT:      -6.8      3.752      4.846
REMARK  Name = 
REMARK  5 active torsions:
REMARK  status: ('A' for Active; 'I' for Inactive)
REMARK    1  A    between atoms: C_1  and  C_2
REMARK    2  A    between atoms: C_5  and  O_6
REMARK    3  A    between atoms: C_7  and  N_8
REMARK    4  A    between atoms: C_9  and  C_11
REMARK    5  A    between atoms: C_17  and  C_18
REMARK                            x       y       z     vdW  Elec       q    Type
REMARK                         _______ _______ _______ _____ _____    ______ ____
ROOT
ATOM      1  N   UNL     1       4.489   6.368  18.650  0.00  0.00    +0.000 N 
ATOM      2  C   UNL     1       3.138   6.114  18.572  0.00  0.00    +0.000 C 
ATOM      3  O   UNL     1       2.607   5.299  17.823  0.00  0.00    +0.000 OA
ATOM      4  H   UNL     1       4.867   6.947  19.386  0.00  0.00    +0.000 HD
ENDROOT
BRANCH   2   5
ATOM      5  C   UNL     1       2.287   6.849  19.501  0.00  0.00    +0.000 A 
ATOM      6  C   UNL     1       1.783   6.551  20.785  0.00  0.00    +0.000 A 
ATOM      7  N   UNL     1       1.126   7.580  21.340  0.00  0.00    +0.000 NA
ATOM      8  N   UNL     1       1.240   8.555  20.420  0.00  0.00    +0.000 N 
ATOM      9  C   UNL     1       1.851   8.143  19.273  0.00  0.00    +0.000 A 
ATOM     10  C   UNL     1       2.007   9.039  18.090  0.00  0.00    +0.000 C 
ATOM     11  C   UNL     1       1.023  10.218  18.132  0.00  0.00    +0.000 C 
ATOM     12  C   UNL     1      -0.394   9.784  17.745  0.00  0.00    +0.000 C 
ATOM     13  C   UNL     1       1.073  10.865  19.528  0.00  0.00    +0.000 C 
ATOM     14  C   UNL     1       0.693   9.882  20.645  0.00  0.00    +0.000 C 
ENDBRANCH   2   5
BRANCH   1  20
ATOM     15  C   UNL     1       5.653   4.636  14.341  0.00  0.00    +0.000 C 
ATOM     16  C   UNL     1       6.049   4.830  15.772  0.00  0.00    +0.000 A 
ATOM     17  C   UNL     1       7.239   4.337  16.283  0.00  0.00    +0.000 A 
ATOM     18  C   UNL     1       7.524   4.544  17.632  0.00  0.00    +0.000 A 
ATOM     19  C   UNL     1       6.611   5.239  18.423  0.00  0.00    +0.000 A 
ATOM     20  C   UNL     1       5.429   5.700  17.844  0.00  0.00    +0.000 A 
ATOM     21  N   UNL     1       5.169   5.507  16.537  0.00  0.00    +0.000 NA
BRANCH  19  22
ATOM     22  O   UNL     1       6.858   5.458  19.751  0.00  0.00    +0.000 OA
ATOM     23  H   UNL     1       6.565   6.359  19.970  0.00  0.00    +0.000 HD
ENDBRANCH  19  22
ENDBRANCH   1  20
TORSDOF 3
ENDMDL
