MODEL 1
REMARK VINA RESULT:      -7.5      0.000      0.000
REMARK  Name = 
REMARK  5 active torsions:
REMARK  status: ('A' for Active; 'I' for Inactive)
REMARK    1  A    between atoms: C_1  and  S_2
REMARK    2  A    between atoms: S_2  and  C_3
REMARK    3  A    between atoms: N_13  and  N_14
REMARK    4  A    between atoms: N_18  and  C_19
REMARK    5  A    between atoms: C_19  and  N_20
REMARK                            x       y       z     vdW  Elec       q    Type
REMARK                         _______ _______ _______ _____ _____    ______ ____
ROOT
ATOM      1  N   UNL     1      -0.339  10.639  19.314  0.00  0.00    +0.000 NA
ATOM      2  C   UNL     1      -0.118  11.881  19.642  0.00  0.00    +0.000 C 
ATOM      3  C   UNL     1       1.235  12.633  19.627  0.00  0.00    +0.000 C 
ATOM      4  O   UNL     1       2.308  12.157  19.319  0.00  0.00    +0.000 OA
ATOM      5  N   UNL     1       0.947  13.937  20.090  0.00  0.00    +0.000 N 
ATOM      6  C   UNL     1      -0.177  13.726  20.923  0.00  0.00    +0.000 A 
ATOM      7  C   UNL     1      -0.133  13.925  22.305  0.00  0.00    +0.000 A 
ATOM      8  C   UNL     1      -1.172  13.411  23.082  0.00  0.00    +0.000 A 
ATOM      9  C   UNL     1      -2.236  12.740  22.462  0.00  0.00    +0.000 A 
ATOM     10 CL   UNL     1      -3.543  12.175  23.429  0.00  0.00    +0.000 Cl
ATOM     11  C   UNL     1      -2.171  12.387  21.103  0.00  0.00    +0.000 A 
ATOM     12  C   UNL     1      -1.051  12.772  20.401  0.00  0.00    +0.000 A 
ENDROOT
BRANCH   1  23
ATOM     13  C   UNL     1       0.708   8.954  20.686  0.00  0.00    +0.000 A 
ATOM     14  N   UNL     1       1.412   7.910  20.924  0.00  0.00    +0.000 NA
ATOM     15  C   UNL     1       2.116   7.368  19.873  0.00  0.00    +0.000 A 
ATOM     16  C   UNL     1       2.470   6.034  20.050  0.00  0.00    +0.000 A 
ATOM     17  C   UNL     1       3.119   5.347  19.058  0.00  0.00    +0.000 A 
ATOM     18  C   UNL     1       3.448   6.018  17.875  0.00  0.00    +0.000 A 
ATOM     19  C   UNL     1       3.044   7.356  17.671  0.00  0.00    +0.000 A 
ATOM     20  C   UNL     1       2.314   8.030  18.658  0.00  0.00    +0.000 A 
ATOM     21  C   UNL     1       1.570   9.338  18.444  0.00  0.00    +0.000 A 
ATOM     22  O   UNL     1       1.646   9.913  17.353  0.00  0.00    +0.000 OA
ATOM     23  N   UNL     1       0.751   9.744  19.533  0.00  0.00    +0.000 N 
BRANCH  13  25
ATOM     24  C   UNL     1       0.593   9.524  23.235  0.00  0.00    +0.000 C 
ATOM     25  S   UNL     1      -0.548   9.104  21.888  0.00  0.00    +0.000 S 
ENDBRANCH  13  25
ENDBRANCH   1  23
BRANCH   5  26
ATOM     26  C   UNL     1       0.612  14.774  18.918  0.00  0.00    +0.000 C 
BRANCH  26  27
ATOM     27  N   UNL     1       1.286  16.047  18.854  0.00  0.00    +0.000 NA
ATOM     28  C   UNL     1       0.473  17.250  18.829  0.00  0.00    +0.000 C 
ATOM     29  C   UNL     1       0.529  17.926  17.462  0.00  0.00    +0.000 C 
ATOM     30  O   UNL     1       1.878  18.287  17.146  0.00  0.00    +0.000 OA
ATOM     31  C   UNL     1       2.707  17.122  17.044  0.00  0.00    +0.000 C 
ATOM     32  C   UNL     1       2.617  16.194  18.276  0.00  0.00    +0.000 C 
ENDBRANCH  26  27
ENDBRANCH   5  26
TORSDOF 4
ENDMDL
MODEL 2
REMARK VINA RESULT:      -7.2      3.490      5.534
REMARK  Name = 
REMARK  5 active torsions:
REMARK  status: ('A' for Active; 'I' for Inactive)
REMARK    1  A    between atoms: C_1  and  S_2
REMARK    2  A    between atoms: S_2  and  C_3
REMARK    3  A    between atoms: N_13  and  N_14
REMARK    4  A    between atoms: N_18  and  C_19
REMARK    5  A    between atoms: C_19  and  N_20
REMARK                            x       y       z     vdW  Elec       q    Type
REMARK                         _______ _______ _______ _____ _____    ______ ____
ROOT
ATOM      1  N   UNL     1       1.155  12.555  21.518  0.00  0.00    +0.000 NA
ATOM      2  C   UNL     1       0.091  13.241  21.827  0.00  0.00    +0.000 C 
ATOM      3  C   UNL     1      -1.351  12.709  22.016  0.00  0.00    +0.000 C 
ATOM      4  O   UNL     1      -1.705  11.557  21.882  0.00  0.00    +0.000 OA
ATOM      5  N   UNL     1      -2.135  13.846  22.317  0.00  0.00    +0.000 N 
ATOM      6  C   UNL     1      -1.429  14.886  21.668  0.00  0.00    +0.000 A 
ATOM      7  C   UNL     1      -1.961  15.587  20.583  0.00  0.00    +0.000 A 
ATOM      8  C   UNL     1      -1.100  16.375  19.817  0.00  0.00    +0.000 A 
ATOM      9  C   UNL     1       0.255  16.464  20.167  0.00  0.00    +0.000 A 
ATOM     10 CL   UNL     1       1.286  17.496  19.253  0.00  0.00    +0.000 Cl
ATOM     11  C   UNL     1       0.806  15.612  21.140  0.00  0.00    +0.000 A 
ATOM     12  C   UNL     1      -0.047  14.730  21.765  0.00  0.00    +0.000 A 
ENDROOT
BRANCH   1  23
ATOM     13  C   UNL     1       0.990  11.547  19.333  0.00  0.00    +0.000 A 
ATOM     14  N   UNL     1       1.100  10.611  18.464  0.00  0.00    +0.000 NA
ATOM     15  C   UNL     1       1.412   9.352  18.926  0.00  0.00    +0.000 A 
ATOM     16  C   UNL     1       1.961   8.510  17.964  0.00  0.00    +0.000 A 
ATOM     17  C   UNL     1       2.378   7.248  18.296  0.00  0.00    +0.000 A 
ATOM     18  C   UNL     1       2.214   6.808  19.615  0.00  0.00    +0.000 A 
ATOM     19  C   UNL     1       1.707   7.678  20.605  0.00  0.00    +0.000 A 
ATOM     20  C   UNL     1       1.353   8.992  20.275  0.00  0.00    +0.000 A 
ATOM     21  C   UNL     1       1.091  10.098  21.284  0.00  0.00    +0.000 A 
ATOM     22  O   UNL     1       1.116   9.842  22.492  0.00  0.00    +0.000 OA
ATOM     23  N   UNL     1       0.926  11.393  20.721  0.00  0.00    +0.000 N 
BRANCH  13  25
ATOM     24  C   UNL     1      -0.515  13.295  18.103  0.00  0.00    +0.000 C 
ATOM     25  S   UNL     1       1.229  13.095  18.563  0.00  0.00    +0.000 S 
ENDBRANCH  13  25
ENDBRANCH   1  23
BRANCH   5  26
ATOM     26  C   UNL     1      -2.141  14.020  23.785  0.00  0.00    +0.000 C 
BRANCH  26  27
ATOM     27  N   UNL     1      -3.445  14.135  24.390  0.00  0.00    +0.000 NA
ATOM     28  C   UNL     1      -4.270  12.943  24.466  0.00  0.00    +0.000 C 
ATOM     29  C   UNL     1      -5.460  13.033  23.514  0.00  0.00    +0.000 C 
ATOM     30  O   UNL     1      -6.272  14.165  23.846  0.00  0.00    +0.000 OA
ATOM     31  C   UNL     1      -5.538  15.385  23.676  0.00  0.00    +0.000 C 
ATOM     32  C   UNL     1      -4.182  15.393  24.416  0.00  0.00    +0.000 C 
ENDBRANCH  26  27
ENDBRANCH   5  26
TORSDOF 4
ENDMDL
MODEL 3
REMARK VINA RESULT:      -7.2      0.844      1.059
REMARK  Name = 
REMARK  5 active torsions:
REMARK  status: ('A' for Active; 'I' for Inactive)
REMARK    1  A    between atoms: C_1  and  S_2
REMARK    2  A    between atoms: S_2  and  C_3
REMARK    3  A    between atoms: N_13  and  N_14
REMARK    4  A    between atoms: N_18  and  C_19
REMARK    5  A    between atoms: C_19  and  N_20
REMARK                            x       y       z     vdW  Elec       q    Type
REMARK                         _______ _______ _______ _____ _____    ______ ____
ROOT
ATOM      1  N   UNL     1      -0.359  11.103  19.340  0.00  0.00    +0.000 NA
ATOM      2  C   UNL     1      -0.136  12.308  19.783  0.00  0.00    +0.000 C 
ATOM      3  C   UNL     1       1.233  13.009  19.959  0.00  0.00    +0.000 C 
ATOM      4  O   UNL     1       2.316  12.518  19.721  0.00  0.00    +0.000 OA
ATOM      5  N   UNL     1       0.938  14.285  20.490  0.00  0.00    +0.000 N 
ATOM      6  C   UNL     1      -0.270  14.054  21.189  0.00  0.00    +0.000 A 
ATOM      7  C   UNL     1      -0.360  14.150  22.580  0.00  0.00    +0.000 A 
ATOM      8  C   UNL     1      -1.487  13.619  23.210  0.00  0.00    +0.000 A 
ATOM      9  C   UNL     1      -2.502  13.035  22.438  0.00  0.00    +0.000 A 
ATOM     10 CL   UNL     1      -3.916  12.449  23.226  0.00  0.00    +0.000 Cl
ATOM     11  C   UNL     1      -2.311  12.780  21.069  0.00  0.00    +0.000 A 
ATOM     12  C   UNL     1      -1.115  13.174  20.512  0.00  0.00    +0.000 A 
ENDROOT
BRANCH   1  23
ATOM     13  C   UNL     1       0.586   9.411  20.777  0.00  0.00    +0.000 A 
ATOM     14  N   UNL     1       1.227   8.337  21.056  0.00  0.00    +0.000 NA
ATOM     15  C   UNL     1       1.900   7.717  20.028  0.00  0.00    +0.000 A 
ATOM     16  C   UNL     1       2.175   6.372  20.254  0.00  0.00    +0.000 A 
ATOM     17  C   UNL     1       2.785   5.613  19.291  0.00  0.00    +0.000 A 
ATOM     18  C   UNL     1       3.155   6.220  18.085  0.00  0.00    +0.000 A 
ATOM     19  C   UNL     1       2.829   7.570  17.831  0.00  0.00    +0.000 A 
ATOM     20  C   UNL     1       2.139   8.321  18.790  0.00  0.00    +0.000 A 
ATOM     21  C   UNL     1       1.472   9.662  18.526  0.00  0.00    +0.000 A 
ATOM     22  O   UNL     1       1.584  10.191  17.415  0.00  0.00    +0.000 OA
ATOM     23  N   UNL     1       0.676  10.154  19.596  0.00  0.00    +0.000 N 
BRANCH  13  25
ATOM     24  C   UNL     1       0.429   9.377  23.386  0.00  0.00    +0.000 C 
ATOM     25  S   UNL     1      -0.662   9.677  21.968  0.00  0.00    +0.000 S 
ENDBRANCH  13  25
ENDBRANCH   1  23
BRANCH   5  26
ATOM     26  C   UNL     1       0.748  15.217  19.358  0.00  0.00    +0.000 C 
BRANCH  26  27
ATOM     27  N   UNL     1       1.687  16.309  19.291  0.00  0.00    +0.000 NA
ATOM     28  C   UNL     1       1.789  17.047  18.045  0.00  0.00    +0.000 C 
ATOM     29  C   UNL     1       3.117  16.766  17.345  0.00  0.00    +0.000 C 
ATOM     30  O   UNL     1       4.209  17.151  18.187  0.00  0.00    +0.000 OA
ATOM     31  C   UNL     1       4.224  16.369  19.389  0.00  0.00    +0.000 C 
ATOM     32  C   UNL     1       2.873  16.368  20.138  0.00  0.00    +0.000 C 
ENDBRANCH  26  27
ENDBRANCH   5  26
TORSDOF 4
ENDMDL
MODEL 4
REMARK VINA RESULT:      -7.1      0.783      1.251
REMARK  Name = 
REMARK  5 active torsions:
REMARK  status: ('A' for Active; 'I' for Inactive)
REMARK    1  A    between atoms: C_1  and  S_2
REMARK    2  A    between atoms: S_2  and  C_3
REMARK    3  A    between atoms: N_13  and  N_14
REMARK    4  A    between atoms: N_18  and  C_19
REMARK    5  A    between atoms: C_19  and  N_20
REMARK                            x       y       z     vdW  Elec       q    Type
REMARK                         _______ _______ _______ _____ _____    ______ ____
ROOT
ATOM      1  N   UNL     1      -0.292  10.769  19.223  0.00  0.00    +0.000 NA
ATOM      2  C   UNL     1      -0.069  12.010  19.553  0.00  0.00    +0.000 C 
ATOM      3  C   UNL     1       1.290  12.752  19.567  0.00  0.00    +0.000 C 
ATOM      4  O   UNL     1       2.365  12.267  19.283  0.00  0.00    +0.000 OA
ATOM      5  N   UNL     1       1.001  14.059  20.021  0.00  0.00    +0.000 N 
ATOM      6  C   UNL     1      -0.143  13.857  20.828  0.00  0.00    +0.000 A 
ATOM      7  C   UNL     1      -0.128  14.059  22.210  0.00  0.00    +0.000 A 
ATOM      8  C   UNL     1      -1.188  13.554  22.966  0.00  0.00    +0.000 A 
ATOM      9  C   UNL     1      -2.243  12.890  22.323  0.00  0.00    +0.000 A 
ATOM     10 CL   UNL     1      -3.575  12.337  23.263  0.00  0.00    +0.000 Cl
ATOM     11  C   UNL     1      -2.151  12.534  20.967  0.00  0.00    +0.000 A 
ATOM     12  C   UNL     1      -1.012  12.909  20.289  0.00  0.00    +0.000 A 
ENDROOT
BRANCH   1  23
ATOM     13  C   UNL     1       0.731   9.108  20.641  0.00  0.00    +0.000 A 
ATOM     14  N   UNL     1       1.421   8.061  20.908  0.00  0.00    +0.000 NA
ATOM     15  C   UNL     1       2.120   7.483  19.873  0.00  0.00    +0.000 A 
ATOM     16  C   UNL     1       2.457   6.150  20.086  0.00  0.00    +0.000 A 
ATOM     17  C   UNL     1       3.099   5.428  19.114  0.00  0.00    +0.000 A 
ATOM     18  C   UNL     1       3.438   6.064  17.914  0.00  0.00    +0.000 A 
ATOM     19  C   UNL     1       3.051   7.400  17.674  0.00  0.00    +0.000 A 
ATOM     20  C   UNL     1       2.329   8.109  18.642  0.00  0.00    +0.000 A 
ATOM     21  C   UNL     1       1.601   9.421  18.392  0.00  0.00    +0.000 A 
ATOM     22  O   UNL     1       1.687   9.965  17.286  0.00  0.00    +0.000 OA
ATOM     23  N   UNL     1       0.786   9.866  19.467  0.00  0.00    +0.000 N 
BRANCH  13  25
ATOM     24  C   UNL     1       0.627   9.438  23.232  0.00  0.00    +0.000 C 
ATOM     25  S   UNL     1      -0.525   9.305  21.836  0.00  0.00    +0.000 S 
ENDBRANCH  13  25
ENDBRANCH   1  23
BRANCH   5  26
ATOM     26  C   UNL     1       0.698  14.895  18.840  0.00  0.00    +0.000 C 
BRANCH  26  27
ATOM     27  N   UNL     1       1.555  16.040  18.657  0.00  0.00    +0.000 NA
ATOM     28  C   UNL     1       2.967  15.893  18.962  0.00  0.00    +0.000 C 
ATOM     29  C   UNL     1       3.344  16.673  20.219  0.00  0.00    +0.000 C 
ATOM     30  O   UNL     1       3.065  18.066  20.035  0.00  0.00    +0.000 OA
ATOM     31  C   UNL     1       1.662  18.283  19.843  0.00  0.00    +0.000 C 
ATOM     32  C   UNL     1       1.052  17.407  18.726  0.00  0.00    +0.000 C 
ENDBRANCH  26  27
ENDBRANCH   5  26
TORSDOF 4
ENDMDL
MODEL 5
REMARK VINA RESULT:      -6.6      1.616      2.129
REMARK  Name = 
REMARK  5 active torsions:
REMARK  status: ('A' for Active; 'I' for Inactive)
REMARK    1  A    between atoms: C_1  and  S_2
REMARK    2  A    between atoms: S_2  and  C_3
REMARK    3  A    between atoms: N_13  and  N_14
REMARK    4  A    between atoms: N_18  and  C_19
REMARK    5  A    between atoms: C_19  and  N_20
REMARK                            x       y       z     vdW  Elec       q    Type
REMARK                         _______ _______ _______ _____ _____    ______ ____
ROOT
ATOM      1  N   UNL     1      -1.261  12.360  20.201  0.00  0.00    +0.000 NA
ATOM      2  C   UNL     1      -1.072  13.545  20.709  0.00  0.00    +0.000 C 
ATOM      3  C   UNL     1       0.238  14.371  20.710  0.00  0.00    +0.000 C 
ATOM      4  O   UNL     1       1.300  14.016  20.245  0.00  0.00    +0.000 OA
ATOM      5  N   UNL     1      -0.070  15.565  21.401  0.00  0.00    +0.000 N 
ATOM      6  C   UNL     1      -1.106  15.156  22.273  0.00  0.00    +0.000 A 
ATOM      7  C   UNL     1      -0.951  15.135  23.662  0.00  0.00    +0.000 A 
ATOM      8  C   UNL     1      -1.892  14.442  24.424  0.00  0.00    +0.000 A 
ATOM      9  C   UNL     1      -2.973  13.814  23.788  0.00  0.00    +0.000 A 
ATOM     10 CL   UNL     1      -4.162  13.025  24.750  0.00  0.00    +0.000 Cl
ATOM     11  C   UNL     1      -3.011  13.686  22.389  0.00  0.00    +0.000 A 
ATOM     12  C   UNL     1      -1.976  14.245  21.674  0.00  0.00    +0.000 A 
ENDROOT
BRANCH   1  23
ATOM     13  C   UNL     1       0.087  10.686  21.297  0.00  0.00    +0.000 A 
ATOM     14  N   UNL     1       0.864   9.669  21.364  0.00  0.00    +0.000 NA
ATOM     15  C   UNL     1       1.383   9.189  20.183  0.00  0.00    +0.000 A 
ATOM     16  C   UNL     1       1.815   7.868  20.244  0.00  0.00    +0.000 A 
ATOM     17  C   UNL     1       2.297   7.239  19.126  0.00  0.00    +0.000 A 
ATOM     18  C   UNL     1       2.376   7.958  17.928  0.00  0.00    +0.000 A 
ATOM     19  C   UNL     1       1.888   9.280  17.849  0.00  0.00    +0.000 A 
ATOM     20  C   UNL     1       1.327   9.893  18.977  0.00  0.00    +0.000 A 
ATOM     21  C   UNL     1       0.505  11.171  18.950  0.00  0.00    +0.000 A 
ATOM     22  O   UNL     1       0.356  11.779  17.885  0.00  0.00    +0.000 OA
ATOM     23  N   UNL     1      -0.115  11.509  20.184  0.00  0.00    +0.000 N 
BRANCH  13  25
ATOM     24  C   UNL     1      -0.042   9.422  23.581  0.00  0.00    +0.000 C 
ATOM     25  S   UNL     1      -0.931  10.745  22.713  0.00  0.00    +0.000 S 
ENDBRANCH  13  25
ENDBRANCH   1  23
BRANCH   5  26
ATOM     26  C   UNL     1      -0.546  16.554  20.411  0.00  0.00    +0.000 C 
BRANCH  26  27
ATOM     27  N   UNL     1       0.471  17.415  19.859  0.00  0.00    +0.000 NA
ATOM     28  C   UNL     1       0.750  17.318  18.437  0.00  0.00    +0.000 C 
ATOM     29  C   UNL     1       2.116  16.686  18.184  0.00  0.00    +0.000 C 
ATOM     30  O   UNL     1       3.144  17.477  18.792  0.00  0.00    +0.000 OA
ATOM     31  C   UNL     1       2.984  17.513  20.216  0.00  0.00    +0.000 C 
ATOM     32  C   UNL     1       1.568  17.939  20.664  0.00  0.00    +0.000 C 
ENDBRANCH  26  27
ENDBRANCH   5  26
TORSDOF 4
ENDMDL
MODEL 6
REMARK VINA RESULT:      -6.6      1.204      1.380
REMARK  Name = 
REMARK  5 active torsions:
REMARK  status: ('A' for Active; 'I' for Inactive)
REMARK    1  A    between atoms: C_1  and  S_2
REMARK    2  A    between atoms: S_2  and  C_3
REMARK    3  A    between atoms: N_13  and  N_14
REMARK    4  A    between atoms: N_18  and  C_19
REMARK    5  A    between atoms: C_19  and  N_20
REMARK                            x       y       z     vdW  Elec       q    Type
REMARK                         _______ _______ _______ _____ _____    ______ ____
ROOT
ATOM      1  N   UNL     1      -1.193  11.228  19.966  0.00  0.00    +0.000 NA
ATOM      2  C   UNL     1      -1.064  12.475  20.324  0.00  0.00    +0.000 C 
ATOM      3  C   UNL     1       0.200  13.361  20.210  0.00  0.00    +0.000 C 
ATOM      4  O   UNL     1       1.277  13.008  19.778  0.00  0.00    +0.000 OA
ATOM      5  N   UNL     1      -0.167  14.613  20.754  0.00  0.00    +0.000 N 
ATOM      6  C   UNL     1      -1.175  14.260  21.681  0.00  0.00    +0.000 A 
ATOM      7  C   UNL     1      -1.012  14.418  23.060  0.00  0.00    +0.000 A 
ATOM      8  C   UNL     1      -1.911  13.775  23.912  0.00  0.00    +0.000 A 
ATOM      9  C   UNL     1      -2.961  13.019  23.370  0.00  0.00    +0.000 A 
ATOM     10 CL   UNL     1      -4.102  12.292  24.435  0.00  0.00    +0.000 Cl
ATOM     11  C   UNL     1      -2.999  12.719  21.998  0.00  0.00    +0.000 A 
ATOM     12  C   UNL     1      -1.999  13.240  21.207  0.00  0.00    +0.000 A 
ENDROOT
BRANCH   1  23
ATOM     13  C   UNL     1       0.245   9.769  21.240  0.00  0.00    +0.000 A 
ATOM     14  N   UNL     1       1.074   8.809  21.420  0.00  0.00    +0.000 NA
ATOM     15  C   UNL     1       1.614   8.220  20.300  0.00  0.00    +0.000 A 
ATOM     16  C   UNL     1       2.116   6.940  20.512  0.00  0.00    +0.000 A 
ATOM     17  C   UNL     1       2.627   6.209  19.472  0.00  0.00    +0.000 A 
ATOM     18  C   UNL     1       2.664   6.783  18.196  0.00  0.00    +0.000 A 
ATOM     19  C   UNL     1       2.106   8.060  17.967  0.00  0.00    +0.000 A 
ATOM     20  C   UNL     1       1.518   8.772  19.019  0.00  0.00    +0.000 A 
ATOM     21  C   UNL     1       0.629   9.993  18.849  0.00  0.00    +0.000 A 
ATOM     22  O   UNL     1       0.445  10.462  17.720  0.00  0.00    +0.000 OA
ATOM     23  N   UNL     1      -0.004  10.442  20.040  0.00  0.00    +0.000 N 
BRANCH  13  25
ATOM     24  C   UNL     1       0.486   9.330  23.805  0.00  0.00    +0.000 C 
ATOM     25  S   UNL     1      -0.771   9.942  22.649  0.00  0.00    +0.000 S 
ENDBRANCH  13  25
ENDBRANCH   1  23
BRANCH   5  26
ATOM     26  C   UNL     1      -0.700  15.448  19.657  0.00  0.00    +0.000 C 
BRANCH  26  27
ATOM     27  N   UNL     1      -0.233  16.813  19.635  0.00  0.00    +0.000 NA
ATOM     28  C   UNL     1      -0.572  17.633  18.486  0.00  0.00    +0.000 C 
ATOM     29  C   UNL     1       0.659  17.921  17.631  0.00  0.00    +0.000 C 
ATOM     30  O   UNL     1       1.644  18.615  18.405  0.00  0.00    +0.000 OA
ATOM     31  C   UNL     1       2.102  17.802  19.493  0.00  0.00    +0.000 C 
ATOM     32  C   UNL     1       0.956  17.239  20.364  0.00  0.00    +0.000 C 
ENDBRANCH  26  27
ENDBRANCH   5  26
TORSDOF 4
ENDMDL
MODEL 7
REMARK VINA RESULT:      -6.6      1.187      1.390
REMARK  Name = 
REMARK  5 active torsions:
REMARK  status: ('A' for Active; 'I' for Inactive)
REMARK    1  A    between atoms: C_1  and  S_2
REMARK    2  A    between atoms: S_2  and  C_3
REMARK    3  A    between atoms: N_13  and  N_14
REMARK    4  A    between atoms: N_18  and  C_19
REMARK    5  A    between atoms: C_19  and  N_20
REMARK                            x       y       z     vdW  Elec       q    Type
REMARK                         _______ _______ _______ _____ _____    ______ ____
ROOT
ATOM      1  N   UNL     1      -0.113  11.217  19.310  0.00  0.00    +0.000 NA
ATOM      2  C   UNL     1       0.066  12.345  19.938  0.00  0.00    +0.000 C 
ATOM      3  C   UNL     1       1.390  12.905  20.512  0.00  0.00    +0.000 C 
ATOM      4  O   UNL     1       2.469  12.352  20.473  0.00  0.00    +0.000 OA
ATOM      5  N   UNL     1       1.049  14.138  21.114  0.00  0.00    +0.000 N 
ATOM      6  C   UNL     1      -0.302  13.936  21.479  0.00  0.00    +0.000 A 
ATOM      7  C   UNL     1      -0.718  13.890  22.812  0.00  0.00    +0.000 A 
ATOM      8  C   UNL     1      -1.991  13.392  23.093  0.00  0.00    +0.000 A 
ATOM      9  C   UNL     1      -2.823  12.982  22.041  0.00  0.00    +0.000 A 
ATOM     10 CL   UNL     1      -4.416  12.437  22.401  0.00  0.00    +0.000 Cl
ATOM     11  C   UNL     1      -2.324  12.859  20.733  0.00  0.00    +0.000 A 
ATOM     12  C   UNL     1      -1.008  13.208  20.522  0.00  0.00    +0.000 A 
ENDROOT
BRANCH   1  23
ATOM     13  C   UNL     1       0.506   9.488  20.874  0.00  0.00    +0.000 A 
ATOM     14  N   UNL     1       0.987   8.358  21.240  0.00  0.00    +0.000 NA
ATOM     15  C   UNL     1       1.653   7.617  20.290  0.00  0.00    +0.000 A 
ATOM     16  C   UNL     1       1.742   6.260  20.584  0.00  0.00    +0.000 A 
ATOM     17  C   UNL     1       2.324   5.391  19.698  0.00  0.00    +0.000 A 
ATOM     18  C   UNL     1       2.855   5.896  18.506  0.00  0.00    +0.000 A 
ATOM     19  C   UNL     1       2.718   7.263  18.181  0.00  0.00    +0.000 A 
ATOM     20  C   UNL     1       2.056   8.133  19.056  0.00  0.00    +0.000 A 
ATOM     21  C   UNL     1       1.582   9.532  18.693  0.00  0.00    +0.000 A 
ATOM     22  O   UNL     1       1.841   9.994  17.577  0.00  0.00    +0.000 OA
ATOM     23  N   UNL     1       0.776  10.163  19.679  0.00  0.00    +0.000 N 
BRANCH  13  25
ATOM     24  C   UNL     1       0.106   9.470  23.457  0.00  0.00    +0.000 C 
ATOM     25  S   UNL     1      -0.785   9.955  21.952  0.00  0.00    +0.000 S 
ENDBRANCH  13  25
ENDBRANCH   1  23
BRANCH   5  26
ATOM     26  C   UNL     1       1.189  15.198  20.093  0.00  0.00    +0.000 C 
BRANCH  26  27
ATOM     27  N   UNL     1       2.500  15.320  19.504  0.00  0.00    +0.000 NA
ATOM     28  C   UNL     1       3.568  15.867  20.322  0.00  0.00    +0.000 C 
ATOM     29  C   UNL     1       3.974  17.258  19.842  0.00  0.00    +0.000 C 
ATOM     30  O   UNL     1       4.432  17.196  18.486  0.00  0.00    +0.000 OA
ATOM     31  C   UNL     1       3.379  16.770  17.613  0.00  0.00    +0.000 C 
ATOM     32  C   UNL     1       2.697  15.459  18.066  0.00  0.00    +0.000 C 
ENDBRANCH  26  27
ENDBRANCH   5  26
TORSDOF 4
ENDMDL
MODEL 8
REMARK VINA RESULT:      -6.6      3.571      6.391
REMARK  Name = 
REMARK  5 active torsions:
REMARK  status: ('A' for Active; 'I' for Inactive)
REMARK    1  A    between atoms: C_1  and  S_2
REMARK    2  A    between atoms: S_2  and  C_3
REMARK    3  A    between atoms: N_13  and  N_14
REMARK    4  A    between atoms: N_18  and  C_19
REMARK    5  A    between atoms: C_19  and  N_20
REMARK                            x       y       z     vdW  Elec       q    Type
REMARK                         _______ _______ _______ _____ _____    ______ ____
ROOT
ATOM      1  N   UNL     1      -1.616  11.571  20.531  0.00  0.00    +0.000 NA
ATOM      2  C   UNL     1      -0.468  12.152  20.324  0.00  0.00    +0.000 C 
ATOM      3  C   UNL     1      -0.217  13.625  19.916  0.00  0.00    +0.000 C 
ATOM      4  O   UNL     1      -1.073  14.459  19.711  0.00  0.00    +0.000 OA
ATOM      5  N   UNL     1       1.186  13.748  19.794  0.00  0.00    +0.000 N 
ATOM      6  C   UNL     1       1.580  12.435  19.445  0.00  0.00    +0.000 A 
ATOM      7  C   UNL     1       2.131  12.124  18.200  0.00  0.00    +0.000 A 
ATOM      8  C   UNL     1       2.208  10.782  17.825  0.00  0.00    +0.000 A 
ATOM      9  C   UNL     1       1.763   9.788  18.709  0.00  0.00    +0.000 A 
ATOM     10 CL   UNL     1       1.932   8.135  18.259  0.00  0.00    +0.000 Cl
ATOM     11  C   UNL     1       1.045  10.125  19.869  0.00  0.00    +0.000 A 
ATOM     12  C   UNL     1       0.846  11.463  20.125  0.00  0.00    +0.000 A 
ENDROOT
BRANCH   1  23
ATOM     13  C   UNL     1      -2.951  11.525  18.524  0.00  0.00    +0.000 A 
ATOM     14  N   UNL     1      -4.021  11.636  17.827  0.00  0.00    +0.000 NA
ATOM     15  C   UNL     1      -5.129  12.166  18.448  0.00  0.00    +0.000 A 
ATOM     16  C   UNL     1      -6.336  11.847  17.834  0.00  0.00    +0.000 A 
ATOM     17  C   UNL     1      -7.526  12.255  18.378  0.00  0.00    +0.000 A 
ATOM     18  C   UNL     1      -7.506  13.024  19.548  0.00  0.00    +0.000 A 
ATOM     19  C   UNL     1      -6.286  13.303  20.202  0.00  0.00    +0.000 A 
ATOM     20  C   UNL     1      -5.079  12.821  19.682  0.00  0.00    +0.000 A 
ATOM     21  C   UNL     1      -3.760  12.790  20.437  0.00  0.00    +0.000 A 
ATOM     22  O   UNL     1      -3.694  13.279  21.570  0.00  0.00    +0.000 OA
ATOM     23  N   UNL     1      -2.711  12.092  19.780  0.00  0.00    +0.000 N 
BRANCH  13  25
ATOM     24  C   UNL     1      -2.684  10.399  16.180  0.00  0.00    +0.000 C 
ATOM     25  S   UNL     1      -1.915  10.310  17.821  0.00  0.00    +0.000 S 
ENDBRANCH  13  25
ENDBRANCH   1  23
BRANCH   5  26
ATOM     26  C   UNL     1       1.725  14.152  21.110  0.00  0.00    +0.000 C 
BRANCH  26  27
ATOM     27  N   UNL     1       2.669  15.241  21.084  0.00  0.00    +0.000 NA
ATOM     28  C   UNL     1       2.167  16.586  21.303  0.00  0.00    +0.000 C 
ATOM     29  C   UNL     1       2.224  17.412  20.021  0.00  0.00    +0.000 C 
ATOM     30  O   UNL     1       3.574  17.506  19.554  0.00  0.00    +0.000 OA
ATOM     31  C   UNL     1       4.085  16.211  19.212  0.00  0.00    +0.000 C 
ATOM     32  C   UNL     1       3.921  15.168  20.340  0.00  0.00    +0.000 C 
ENDBRANCH  26  27
ENDBRANCH   5  26
TORSDOF 4
ENDMDL
MODEL 9
REMARK VINA RESULT:      -6.5      3.378      5.615
REMARK  Name = 
REMARK  5 active torsions:
REMARK  status: ('A' for Active; 'I' for Inactive)
REMARK    1  A    between atoms: C_1  and  S_2
REMARK    2  A    between atoms: S_2  and  C_3
REMARK    3  A    between atoms: N_13  and  N_14
REMARK    4  A    between atoms: N_18  and  C_19
REMARK    5  A    between atoms: C_19  and  N_20
REMARK                            x       y       z     vdW  Elec       q    Type
REMARK                         _______ _______ _______ _____ _____    ______ ____
ROOT
ATOM      1  N   UNL     1       0.706  12.319  21.546  0.00  0.00    +0.000 NA
ATOM      2  C   UNL     1      -0.284  13.159  21.433  0.00  0.00    +0.000 C 
ATOM      3  C   UNL     1      -1.710  12.868  20.907  0.00  0.00    +0.000 C 
ATOM      4  O   UNL     1      -2.112  11.798  20.501  0.00  0.00    +0.000 OA
ATOM      5  N   UNL     1      -2.391  14.106  20.960  0.00  0.00    +0.000 N 
ATOM      6  C   UNL     1      -1.340  15.040  20.809  0.00  0.00    +0.000 A 
ATOM      7  C   UNL     1      -1.227  15.867  19.689  0.00  0.00    +0.000 A 
ATOM      8  C   UNL     1      -0.019  16.532  19.473  0.00  0.00    +0.000 A 
ATOM      9  C   UNL     1       1.030  16.378  20.391  0.00  0.00    +0.000 A 
ATOM     10 CL   UNL     1       2.488  17.261  20.147  0.00  0.00    +0.000 Cl
ATOM     11  C   UNL     1       0.966  15.405  21.403  0.00  0.00    +0.000 A 
ATOM     12  C   UNL     1      -0.183  14.651  21.485  0.00  0.00    +0.000 A 
ENDROOT
BRANCH   1  23
ATOM     13  C   UNL     1       1.110  11.547  19.297  0.00  0.00    +0.000 A 
ATOM     14  N   UNL     1       1.456  10.709  18.392  0.00  0.00    +0.000 NA
ATOM     15  C   UNL     1       1.682   9.409  18.786  0.00  0.00    +0.000 A 
ATOM     16  C   UNL     1       2.474   8.676  17.908  0.00  0.00    +0.000 A 
ATOM     17  C   UNL     1       2.833   7.387  18.203  0.00  0.00    +0.000 A 
ATOM     18  C   UNL     1       2.365   6.809  19.388  0.00  0.00    +0.000 A 
ATOM     19  C   UNL     1       1.607   7.567  20.306  0.00  0.00    +0.000 A 
ATOM     20  C   UNL     1       1.306   8.908  20.035  0.00  0.00    +0.000 A 
ATOM     21  C   UNL     1       0.773   9.901  21.055  0.00  0.00    +0.000 A 
ATOM     22  O   UNL     1       0.510   9.518  22.200  0.00  0.00    +0.000 OA
ATOM     23  N   UNL     1       0.712  11.247  20.604  0.00  0.00    +0.000 N 
BRANCH  13  25
ATOM     24  C   UNL     1       3.004  12.688  17.903  0.00  0.00    +0.000 C 
ATOM     25  S   UNL     1       1.484  13.168  18.771  0.00  0.00    +0.000 S 
ENDBRANCH  13  25
ENDBRANCH   1  23
BRANCH   5  26
ATOM     26  C   UNL     1      -3.037  14.215  22.285  0.00  0.00    +0.000 C 
BRANCH  26  27
ATOM     27  N   UNL     1      -3.812  13.069  22.692  0.00  0.00    +0.000 NA
ATOM     28  C   UNL     1      -5.167  12.947  22.185  0.00  0.00    +0.000 C 
ATOM     29  C   UNL     1      -6.193  13.173  23.292  0.00  0.00    +0.000 C 
ATOM     30  O   UNL     1      -6.013  12.208  24.335  0.00  0.00    +0.000 OA
ATOM     31  C   UNL     1      -4.728  12.359  24.951  0.00  0.00    +0.000 C 
ATOM     32  C   UNL     1      -3.559  12.363  23.942  0.00  0.00    +0.000 C 
ENDBRANCH  26  27
ENDBRANCH   5  26
TORSDOF 4
ENDMDL
