MODEL 1
REMARK VINA RESULT:      -6.8      0.000      0.000
REMARK  Name = 
REMARK  8 active torsions:
REMARK  status: ('A' for Active; 'I' for Inactive)
REMARK    1  A    between atoms: C_1  and  C_2
REMARK    2  A    between atoms: C_2  and  C_3
REMARK    3  A    between atoms: C_2  and  C_4
REMARK    4  A    between atoms: C_2  and  O_5
REMARK    5  A    between atoms: O_5  and  C_6
REMARK    6  A    between atoms: N_11  and  C_12
REMARK    7  A    between atoms: C_15  and  N_16
REMARK    8  A    between atoms: C_17  and  C_19
REMARK                            x       y       z     vdW  Elec       q    Type
REMARK                         _______ _______ _______ _____ _____    ______ ____
ROOT
ATOM      1  C   UNL     1       0.037   9.971  18.797  0.00  0.00    +0.000 A 
ATOM      2  C   UNL     1      -0.437  10.832  19.791  0.00  0.00    +0.000 A 
ATOM      3  C   UNL     1      -1.649  11.519  19.662  0.00  0.00    +0.000 A 
ATOM      4  C   UNL     1      -2.434  11.375  18.521  0.00  0.00    +0.000 A 
ATOM      5  C   UNL     1      -2.004  10.491  17.532  0.00  0.00    +0.000 A 
ATOM      6  C   UNL     1      -0.784   9.808  17.671  0.00  0.00    +0.000 A 
ENDROOT
BRANCH   1  12
ATOM      7  C   UNL     1       3.995   6.248  18.858  0.00  0.00    +0.000 C 
ATOM      8  O   UNL     1       4.083   5.525  19.844  0.00  0.00    +0.000 OA
ATOM      9  N   UNL     1       2.880   7.016  18.619  0.00  0.00    +0.000 N 
ATOM     10  C   UNL     1       1.801   7.027  19.611  0.00  0.00    +0.000 C 
ATOM     11  C   UNL     1       1.537   8.458  20.092  0.00  0.00    +0.000 C 
ATOM     12  N   UNL     1       1.242   9.317  18.937  0.00  0.00    +0.000 N 
ATOM     13  C   UNL     1       2.275   9.330  17.879  0.00  0.00    +0.000 C 
ATOM     14  C   UNL     1       2.664   7.888  17.462  0.00  0.00    +0.000 C 
BRANCH   7  15
ATOM     15  O   UNL     1       4.976   6.375  17.919  0.00  0.00    +0.000 OA
BRANCH  15  17
ATOM     16  C   UNL     1       4.062   4.270  17.030  0.00  0.00    +0.000 C 
ATOM     17  C   UNL     1       5.245   5.250  17.038  0.00  0.00    +0.000 C 
ATOM     18  C   UNL     1       6.574   4.561  17.388  0.00  0.00    +0.000 C 
ATOM     19  C   UNL     1       5.382   5.825  15.618  0.00  0.00    +0.000 C 
ENDBRANCH  15  17
ENDBRANCH   7  15
ENDBRANCH   1  12
BRANCH   4  20
ATOM     20  N   UNL     1      -3.636  12.082  18.314  0.00  0.00    +0.000 N 
ATOM     21  C   UNL     1      -4.911  11.539  18.262  0.00  0.00    +0.000 C 
ATOM     22  O   UNL     1      -5.177  10.350  18.404  0.00  0.00    +0.000 OA
ATOM     23  H   UNL     1      -3.592  13.095  18.287  0.00  0.00    +0.000 HD
BRANCH  21  24
ATOM     24  C   UNL     1      -5.961  12.520  18.061  0.00  0.00    +0.000 A 
ATOM     25  C   UNL     1      -6.942  12.957  18.932  0.00  0.00    +0.000 A 
ATOM     26  C   UNL     1      -7.703  13.923  18.238  0.00  0.00    +0.000 A 
ATOM     27  C   UNL     1      -7.147  14.017  16.984  0.00  0.00    +0.000 A 
ATOM     28  O   UNL     1      -6.086  13.174  16.864  0.00  0.00    +0.000 OA
ENDBRANCH  21  24
ENDBRANCH   4  20
TORSDOF 5
ENDMDL
MODEL 2
REMARK VINA RESULT:      -6.8      0.581      1.077
REMARK  Name = 
REMARK  8 active torsions:
REMARK  status: ('A' for Active; 'I' for Inactive)
REMARK    1  A    between atoms: C_1  and  C_2
REMARK    2  A    between atoms: C_2  and  C_3
REMARK    3  A    between atoms: C_2  and  C_4
REMARK    4  A    between atoms: C_2  and  O_5
REMARK    5  A    between atoms: O_5  and  C_6
REMARK    6  A    between atoms: N_11  and  C_12
REMARK    7  A    between atoms: C_15  and  N_16
REMARK    8  A    between atoms: C_17  and  C_19
REMARK                            x       y       z     vdW  Elec       q    Type
REMARK                         _______ _______ _______ _____ _____    ______ ____
ROOT
ATOM      1  C   UNL     1      -0.040  10.076  18.891  0.00  0.00    +0.000 A 
ATOM      2  C   UNL     1      -0.529  10.851  19.945  0.00  0.00    +0.000 A 
ATOM      3  C   UNL     1      -1.736  11.553  19.852  0.00  0.00    +0.000 A 
ATOM      4  C   UNL     1      -2.499  11.512  18.687  0.00  0.00    +0.000 A 
ATOM      5  C   UNL     1      -2.054  10.712  17.636  0.00  0.00    +0.000 A 
ATOM      6  C   UNL     1      -0.839  10.013  17.739  0.00  0.00    +0.000 A 
ENDROOT
BRANCH   1  12
ATOM      7  C   UNL     1       3.872   6.304  18.830  0.00  0.00    +0.000 C 
ATOM      8  O   UNL     1       3.973   5.570  19.807  0.00  0.00    +0.000 OA
ATOM      9  N   UNL     1       2.761   7.087  18.623  0.00  0.00    +0.000 N 
ATOM     10  C   UNL     1       1.705   7.103  19.639  0.00  0.00    +0.000 C 
ATOM     11  C   UNL     1       1.470   8.532  20.139  0.00  0.00    +0.000 C 
ATOM     12  N   UNL     1       1.160   9.406  18.998  0.00  0.00    +0.000 N 
ATOM     13  C   UNL     1       2.169   9.415  17.917  0.00  0.00    +0.000 C 
ATOM     14  C   UNL     1       2.531   7.973  17.479  0.00  0.00    +0.000 C 
BRANCH   7  15
ATOM     15  O   UNL     1       4.833   6.427  17.870  0.00  0.00    +0.000 OA
BRANCH  15  17
ATOM     16  C   UNL     1       5.457   5.713  15.598  0.00  0.00    +0.000 C 
ATOM     17  C   UNL     1       5.134   5.275  17.035  0.00  0.00    +0.000 C 
ATOM     18  C   UNL     1       4.011   4.227  17.090  0.00  0.00    +0.000 C 
ATOM     19  C   UNL     1       6.401   4.627  17.619  0.00  0.00    +0.000 C 
ENDBRANCH  15  17
ENDBRANCH   7  15
ENDBRANCH   1  12
BRANCH   4  20
ATOM     20  N   UNL     1      -3.695  12.240  18.518  0.00  0.00    +0.000 N 
ATOM     21  C   UNL     1      -4.970  11.710  18.394  0.00  0.00    +0.000 C 
ATOM     22  O   UNL     1      -5.243  10.514  18.427  0.00  0.00    +0.000 OA
ATOM     23  H   UNL     1      -3.646  13.251  18.580  0.00  0.00    +0.000 HD
BRANCH  21  24
ATOM     24  C   UNL     1      -6.012  12.710  18.258  0.00  0.00    +0.000 A 
ATOM     25  C   UNL     1      -7.083  12.758  17.385  0.00  0.00    +0.000 A 
ATOM     26  C   UNL     1      -7.795  13.943  17.676  0.00  0.00    +0.000 A 
ATOM     27  C   UNL     1      -7.116  14.551  18.706  0.00  0.00    +0.000 A 
ATOM     28  O   UNL     1      -6.034  13.812  19.072  0.00  0.00    +0.000 OA
ENDBRANCH  21  24
ENDBRANCH   4  20
TORSDOF 5
ENDMDL
MODEL 3
REMARK VINA RESULT:      -6.7      2.821     10.340
REMARK  Name = 
REMARK  8 active torsions:
REMARK  status: ('A' for Active; 'I' for Inactive)
REMARK    1  A    between atoms: C_1  and  C_2
REMARK    2  A    between atoms: C_2  and  C_3
REMARK    3  A    between atoms: C_2  and  C_4
REMARK    4  A    between atoms: C_2  and  O_5
REMARK    5  A    between atoms: O_5  and  C_6
REMARK    6  A    between atoms: N_11  and  C_12
REMARK    7  A    between atoms: C_15  and  N_16
REMARK    8  A    between atoms: C_17  and  C_19
REMARK                            x       y       z     vdW  Elec       q    Type
REMARK                         _______ _______ _______ _____ _____    ______ ____
ROOT
ATOM      1  C   UNL     1       1.212   9.193  19.604  0.00  0.00    +0.000 A 
ATOM      2  C   UNL     1       1.704   8.008  20.158  0.00  0.00    +0.000 A 
ATOM      3  C   UNL     1       2.508   7.126  19.427  0.00  0.00    +0.000 A 
ATOM      4  C   UNL     1       2.844   7.395  18.103  0.00  0.00    +0.000 A 
ATOM      5  C   UNL     1       2.400   8.590  17.539  0.00  0.00    +0.000 A 
ATOM      6  C   UNL     1       1.591   9.468  18.281  0.00  0.00    +0.000 A 
ENDROOT
BRANCH   1  12
ATOM      7  C   UNL     1      -1.321  13.552  21.632  0.00  0.00    +0.000 C 
ATOM      8  O   UNL     1      -0.745  14.194  22.503  0.00  0.00    +0.000 OA
ATOM      9  N   UNL     1      -0.665  12.619  20.865  0.00  0.00    +0.000 N 
ATOM     10  C   UNL     1       0.742  12.329  21.151  0.00  0.00    +0.000 C 
ATOM     11  C   UNL     1       0.926  10.838  21.456  0.00  0.00    +0.000 C 
ATOM     12  N   UNL     1       0.408  10.040  20.336  0.00  0.00    +0.000 N 
ATOM     13  C   UNL     1      -1.000  10.305  19.970  0.00  0.00    +0.000 C 
ATOM     14  C   UNL     1      -1.253  11.823  19.784  0.00  0.00    +0.000 C 
BRANCH   7  15
ATOM     15  O   UNL     1      -2.648  13.685  21.343  0.00  0.00    +0.000 OA
BRANCH  15  17
ATOM     16  C   UNL     1      -4.151  14.492  23.117  0.00  0.00    +0.000 C 
ATOM     17  C   UNL     1      -3.622  13.276  22.342  0.00  0.00    +0.000 C 
ATOM     18  C   UNL     1      -3.058  12.189  23.272  0.00  0.00    +0.000 C 
ATOM     19  C   UNL     1      -4.806  12.661  21.577  0.00  0.00    +0.000 C 
ENDBRANCH  15  17
ENDBRANCH   7  15
ENDBRANCH   1  12
BRANCH   4  20
ATOM     20  N   UNL     1       3.605   6.517  17.303  0.00  0.00    +0.000 N 
ATOM     21  C   UNL     1       4.971   6.591  17.071  0.00  0.00    +0.000 C 
ATOM     22  O   UNL     1       5.722   7.437  17.547  0.00  0.00    +0.000 OA
ATOM     23  H   UNL     1       3.142   5.697  16.927  0.00  0.00    +0.000 HD
BRANCH  21  24
ATOM     24  C   UNL     1       5.482   5.530  16.224  0.00  0.00    +0.000 A 
ATOM     25  C   UNL     1       5.463   4.161  16.412  0.00  0.00    +0.000 A 
ATOM     26  C   UNL     1       6.089   3.585  15.285  0.00  0.00    +0.000 A 
ATOM     27  C   UNL     1       6.458   4.635  14.477  0.00  0.00    +0.000 A 
ATOM     28  O   UNL     1       6.093   5.821  15.033  0.00  0.00    +0.000 OA
ENDBRANCH  21  24
ENDBRANCH   4  20
TORSDOF 5
ENDMDL
MODEL 4
REMARK VINA RESULT:      -6.7      3.921      4.330
REMARK  Name = 
REMARK  8 active torsions:
REMARK  status: ('A' for Active; 'I' for Inactive)
REMARK    1  A    between atoms: C_1  and  C_2
REMARK    2  A    between atoms: C_2  and  C_3
REMARK    3  A    between atoms: C_2  and  C_4
REMARK    4  A    between atoms: C_2  and  O_5
REMARK    5  A    between atoms: O_5  and  C_6
REMARK    6  A    between atoms: N_11  and  C_12
REMARK    7  A    between atoms: C_15  and  N_16
REMARK    8  A    between atoms: C_17  and  C_19
REMARK                            x       y       z     vdW  Elec       q    Type
REMARK                         _______ _______ _______ _____ _____    ______ ____
ROOT
ATOM      1  C   UNL     1       1.352   8.379  20.507  0.00  0.00    +0.000 A 
ATOM      2  C   UNL     1       0.754   9.402  19.766  0.00  0.00    +0.000 A 
ATOM      3  C   UNL     1      -0.101  10.341  20.354  0.00  0.00    +0.000 A 
ATOM      4  C   UNL     1      -0.398  10.285  21.713  0.00  0.00    +0.000 A 
ATOM      5  C   UNL     1       0.218   9.299  22.483  0.00  0.00    +0.000 A 
ATOM      6  C   UNL     1       1.073   8.359  21.882  0.00  0.00    +0.000 A 
ENDROOT
BRANCH   1  12
ATOM      7  C   UNL     1       3.318   4.087  17.814  0.00  0.00    +0.000 C 
ATOM      8  O   UNL     1       3.475   3.044  18.439  0.00  0.00    +0.000 OA
ATOM      9  N   UNL     1       2.576   5.129  18.318  0.00  0.00    +0.000 N 
ATOM     10  C   UNL     1       2.024   5.018  19.671  0.00  0.00    +0.000 C 
ATOM     11  C   UNL     1       2.521   6.176  20.543  0.00  0.00    +0.000 C 
ATOM     12  N   UNL     1       2.178   7.454  19.904  0.00  0.00    +0.000 N 
ATOM     13  C   UNL     1       2.675   7.622  18.521  0.00  0.00    +0.000 C 
ATOM     14  C   UNL     1       2.304   6.401  17.643  0.00  0.00    +0.000 C 
BRANCH   7  15
ATOM     15  O   UNL     1       3.858   4.324  16.584  0.00  0.00    +0.000 OA
BRANCH  15  17
ATOM     16  C   UNL     1       6.019   3.672  15.603  0.00  0.00    +0.000 C 
ATOM     17  C   UNL     1       5.268   4.669  16.499  0.00  0.00    +0.000 C 
ATOM     18  C   UNL     1       5.905   4.800  17.892  0.00  0.00    +0.000 C 
ATOM     19  C   UNL     1       5.344   6.049  15.824  0.00  0.00    +0.000 C 
ENDBRANCH  15  17
ENDBRANCH   7  15
ENDBRANCH   1  12
BRANCH   4  20
ATOM     20  N   UNL     1      -1.293  11.171  22.348  0.00  0.00    +0.000 N 
ATOM     21  C   UNL     1      -1.048  12.497  22.669  0.00  0.00    +0.000 C 
ATOM     22  O   UNL     1      -0.006  13.100  22.430  0.00  0.00    +0.000 OA
ATOM     23  H   UNL     1      -2.241  10.850  22.512  0.00  0.00    +0.000 HD
BRANCH  21  24
ATOM     24  C   UNL     1      -2.170  13.168  23.296  0.00  0.00    +0.000 A 
ATOM     25  C   UNL     1      -3.453  12.712  23.535  0.00  0.00    +0.000 A 
ATOM     26  C   UNL     1      -4.148  13.761  24.177  0.00  0.00    +0.000 A 
ATOM     27  C   UNL     1      -3.250  14.798  24.290  0.00  0.00    +0.000 A 
ATOM     28  O   UNL     1      -2.045  14.451  23.763  0.00  0.00    +0.000 OA
ENDBRANCH  21  24
ENDBRANCH   4  20
TORSDOF 5
ENDMDL
MODEL 5
REMARK VINA RESULT:      -6.5      3.580     10.619
REMARK  Name = 
REMARK  8 active torsions:
REMARK  status: ('A' for Active; 'I' for Inactive)
REMARK    1  A    between atoms: C_1  and  C_2
REMARK    2  A    between atoms: C_2  and  C_3
REMARK    3  A    between atoms: C_2  and  C_4
REMARK    4  A    between atoms: C_2  and  O_5
REMARK    5  A    between atoms: O_5  and  C_6
REMARK    6  A    between atoms: N_11  and  C_12
REMARK    7  A    between atoms: C_15  and  N_16
REMARK    8  A    between atoms: C_17  and  C_19
REMARK                            x       y       z     vdW  Elec       q    Type
REMARK                         _______ _______ _______ _____ _____    ______ ____
ROOT
ATOM      1  C   UNL     1       0.033  10.684  20.830  0.00  0.00    +0.000 A 
ATOM      2  C   UNL     1       0.521   9.711  21.707  0.00  0.00    +0.000 A 
ATOM      3  C   UNL     1       1.288   8.628  21.262  0.00  0.00    +0.000 A 
ATOM      4  C   UNL     1       1.591   8.475  19.911  0.00  0.00    +0.000 A 
ATOM      5  C   UNL     1       1.152   9.454  19.021  0.00  0.00    +0.000 A 
ATOM      6  C   UNL     1       0.379  10.535  19.478  0.00  0.00    +0.000 A 
ENDROOT
BRANCH   1  12
ATOM      7  C   UNL     1      -4.088  13.847  22.425  0.00  0.00    +0.000 C 
ATOM      8  O   UNL     1      -4.711  14.452  21.560  0.00  0.00    +0.000 OA
ATOM      9  N   UNL     1      -3.228  12.820  22.115  0.00  0.00    +0.000 N 
ATOM     10  C   UNL     1      -2.992  12.494  20.706  0.00  0.00    +0.000 C 
ATOM     11  C   UNL     1      -1.499  12.600  20.379  0.00  0.00    +0.000 C 
ATOM     12  N   UNL     1      -0.735  11.733  21.288  0.00  0.00    +0.000 N 
ATOM     13  C   UNL     1      -0.949  11.985  22.729  0.00  0.00    +0.000 C 
ATOM     14  C   UNL     1      -2.461  12.018  23.071  0.00  0.00    +0.000 C 
BRANCH   7  15
ATOM     15  O   UNL     1      -4.171  14.127  23.758  0.00  0.00    +0.000 OA
BRANCH  15  17
ATOM     16  C   UNL     1      -4.621  16.393  24.607  0.00  0.00    +0.000 C 
ATOM     17  C   UNL     1      -3.553  15.347  24.251  0.00  0.00    +0.000 C 
ATOM     18  C   UNL     1      -2.506  15.891  23.266  0.00  0.00    +0.000 C 
ATOM     19  C   UNL     1      -2.818  14.974  25.550  0.00  0.00    +0.000 C 
ENDBRANCH  15  17
ENDBRANCH   7  15
ENDBRANCH   1  12
BRANCH   4  20
ATOM     20  N   UNL     1       2.314   7.377  19.400  0.00  0.00    +0.000 N 
ATOM     21  C   UNL     1       2.231   6.063  19.833  0.00  0.00    +0.000 C 
ATOM     22  O   UNL     1       1.495   5.662  20.730  0.00  0.00    +0.000 OA
ATOM     23  H   UNL     1       2.888   7.530  18.578  0.00  0.00    +0.000 HD
BRANCH  21  24
ATOM     24  C   UNL     1       3.079   5.145  19.097  0.00  0.00    +0.000 A 
ATOM     25  C   UNL     1       2.835   4.469  17.916  0.00  0.00    +0.000 A 
ATOM     26  C   UNL     1       3.992   3.710  17.633  0.00  0.00    +0.000 A 
ATOM     27  C   UNL     1       4.873   3.963  18.659  0.00  0.00    +0.000 A 
ATOM     28  O   UNL     1       4.333   4.835  19.553  0.00  0.00    +0.000 OA
ENDBRANCH  21  24
ENDBRANCH   4  20
TORSDOF 5
ENDMDL
MODEL 6
REMARK VINA RESULT:      -6.5      4.149      9.971
REMARK  Name = 
REMARK  8 active torsions:
REMARK  status: ('A' for Active; 'I' for Inactive)
REMARK    1  A    between atoms: C_1  and  C_2
REMARK    2  A    between atoms: C_2  and  C_3
REMARK    3  A    between atoms: C_2  and  C_4
REMARK    4  A    between atoms: C_2  and  O_5
REMARK    5  A    between atoms: O_5  and  C_6
REMARK    6  A    between atoms: N_11  and  C_12
REMARK    7  A    between atoms: C_15  and  N_16
REMARK    8  A    between atoms: C_17  and  C_19
REMARK                            x       y       z     vdW  Elec       q    Type
REMARK                         _______ _______ _______ _____ _____    ______ ____
ROOT
ATOM      1  C   UNL     1       1.316   9.823  19.488  0.00  0.00    +0.000 A 
ATOM      2  C   UNL     1       1.857   9.309  18.307  0.00  0.00    +0.000 A 
ATOM      3  C   UNL     1       2.282   7.980  18.202  0.00  0.00    +0.000 A 
ATOM      4  C   UNL     1       2.188   7.112  19.287  0.00  0.00    +0.000 A 
ATOM      5  C   UNL     1       1.613   7.588  20.465  0.00  0.00    +0.000 A 
ATOM      6  C   UNL     1       1.192   8.926  20.560  0.00  0.00    +0.000 A 
ENDROOT
BRANCH   1  12
ATOM      7  C   UNL     1       0.264  14.870  21.206  0.00  0.00    +0.000 C 
ATOM      8  O   UNL     1      -0.784  15.060  21.814  0.00  0.00    +0.000 OA
ATOM      9  N   UNL     1       0.752  13.605  20.980  0.00  0.00    +0.000 N 
ATOM     10  C   UNL     1      -0.041  12.451  21.411  0.00  0.00    +0.000 C 
ATOM     11  C   UNL     1      -0.342  11.539  20.217  0.00  0.00    +0.000 C 
ATOM     12  N   UNL     1       0.919  11.141  19.575  0.00  0.00    +0.000 N 
ATOM     13  C   UNL     1       1.788  12.257  19.143  0.00  0.00    +0.000 C 
ATOM     14  C   UNL     1       2.003  13.273  20.293  0.00  0.00    +0.000 C 
BRANCH   7  15
ATOM     15  O   UNL     1       1.035  15.871  20.691  0.00  0.00    +0.000 OA
BRANCH  15  17
ATOM     16  C   UNL     1      -0.256  17.864  20.042  0.00  0.00    +0.000 C 
ATOM     17  C   UNL     1       0.525  16.631  19.562  0.00  0.00    +0.000 C 
ATOM     18  C   UNL     1      -0.301  15.748  18.611  0.00  0.00    +0.000 C 
ATOM     19  C   UNL     1       1.750  17.133  18.779  0.00  0.00    +0.000 C 
ENDBRANCH  15  17
ENDBRANCH   7  15
ENDBRANCH   1  12
BRANCH   4  20
ATOM     20  N   UNL     1       2.648   5.779  19.256  0.00  0.00    +0.000 N 
ATOM     21  C   UNL     1       2.184   4.768  18.429  0.00  0.00    +0.000 C 
ATOM     22  O   UNL     1       1.301   4.896  17.586  0.00  0.00    +0.000 OA
ATOM     23  H   UNL     1       3.455   5.544  19.822  0.00  0.00    +0.000 HD
BRANCH  21  24
ATOM     24  C   UNL     1       2.869   3.502  18.604  0.00  0.00    +0.000 A 
ATOM     25  C   UNL     1       2.769   2.333  17.873  0.00  0.00    +0.000 A 
ATOM     26  C   UNL     1       3.657   1.405  18.463  0.00  0.00    +0.000 A 
ATOM     27  C   UNL     1       4.244   2.060  19.520  0.00  0.00    +0.000 A 
ATOM     28  O   UNL     1       3.778   3.334  19.616  0.00  0.00    +0.000 OA
ENDBRANCH  21  24
ENDBRANCH   4  20
TORSDOF 5
ENDMDL
MODEL 7
REMARK VINA RESULT:      -6.5      2.841     10.347
REMARK  Name = 
REMARK  8 active torsions:
REMARK  status: ('A' for Active; 'I' for Inactive)
REMARK    1  A    between atoms: C_1  and  C_2
REMARK    2  A    between atoms: C_2  and  C_3
REMARK    3  A    between atoms: C_2  and  C_4
REMARK    4  A    between atoms: C_2  and  O_5
REMARK    5  A    between atoms: O_5  and  C_6
REMARK    6  A    between atoms: N_11  and  C_12
REMARK    7  A    between atoms: C_15  and  N_16
REMARK    8  A    between atoms: C_17  and  C_19
REMARK                            x       y       z     vdW  Elec       q    Type
REMARK                         _______ _______ _______ _____ _____    ______ ____
ROOT
ATOM      1  C   UNL     1       0.243   9.889  19.803  0.00  0.00    +0.000 A 
ATOM      2  C   UNL     1       0.486   9.984  18.430  0.00  0.00    +0.000 A 
ATOM      3  C   UNL     1       1.430   9.177  17.785  0.00  0.00    +0.000 A 
ATOM      4  C   UNL     1       2.178   8.244  18.498  0.00  0.00    +0.000 A 
ATOM      5  C   UNL     1       1.926   8.099  19.862  0.00  0.00    +0.000 A 
ATOM      6  C   UNL     1       0.978   8.917  20.500  0.00  0.00    +0.000 A 
ENDROOT
BRANCH   1  12
ATOM      7  C   UNL     1      -2.269  14.064  22.207  0.00  0.00    +0.000 C 
ATOM      8  O   UNL     1      -2.113  14.206  23.414  0.00  0.00    +0.000 OA
ATOM      9  N   UNL     1      -1.469  13.228  21.465  0.00  0.00    +0.000 N 
ATOM     10  C   UNL     1      -0.453  12.426  22.152  0.00  0.00    +0.000 C 
ATOM     11  C   UNL     1      -0.673  10.936  21.872  0.00  0.00    +0.000 C 
ATOM     12  N   UNL     1      -0.679  10.705  20.421  0.00  0.00    +0.000 N 
ATOM     13  C   UNL     1      -1.660  11.507  19.657  0.00  0.00    +0.000 C 
ATOM     14  C   UNL     1      -1.554  13.010  20.019  0.00  0.00    +0.000 C 
BRANCH   7  15
ATOM     15  O   UNL     1      -3.239  14.699  21.487  0.00  0.00    +0.000 OA
BRANCH  15  17
ATOM     16  C   UNL     1      -5.272  15.166  22.792  0.00  0.00    +0.000 C 
ATOM     17  C   UNL     1      -4.624  14.311  21.692  0.00  0.00    +0.000 C 
ATOM     18  C   UNL     1      -4.756  12.804  21.969  0.00  0.00    +0.000 C 
ATOM     19  C   UNL     1      -5.365  14.606  20.377  0.00  0.00    +0.000 C 
ENDBRANCH  15  17
ENDBRANCH   7  15
ENDBRANCH   1  12
BRANCH   4  20
ATOM     20  N   UNL     1       3.179   7.442  17.911  0.00  0.00    +0.000 N 
ATOM     21  C   UNL     1       3.152   6.063  17.772  0.00  0.00    +0.000 C 
ATOM     22  O   UNL     1       2.233   5.335  18.136  0.00  0.00    +0.000 OA
ATOM     23  H   UNL     1       3.959   7.911  17.463  0.00  0.00    +0.000 HD
BRANCH  21  24
ATOM     24  C   UNL     1       4.316   5.515  17.102  0.00  0.00    +0.000 A 
ATOM     25  C   UNL     1       5.489   6.137  16.716  0.00  0.00    +0.000 A 
ATOM     26  C   UNL     1       6.294   5.149  16.108  0.00  0.00    +0.000 A 
ATOM     27  C   UNL     1       5.566   3.983  16.154  0.00  0.00    +0.000 A 
ATOM     28  O   UNL     1       4.365   4.189  16.758  0.00  0.00    +0.000 OA
ENDBRANCH  21  24
ENDBRANCH   4  20
TORSDOF 5
ENDMDL
MODEL 8
REMARK VINA RESULT:      -6.5      3.592     10.742
REMARK  Name = 
REMARK  8 active torsions:
REMARK  status: ('A' for Active; 'I' for Inactive)
REMARK    1  A    between atoms: C_1  and  C_2
REMARK    2  A    between atoms: C_2  and  C_3
REMARK    3  A    between atoms: C_2  and  C_4
REMARK    4  A    between atoms: C_2  and  O_5
REMARK    5  A    between atoms: O_5  and  C_6
REMARK    6  A    between atoms: N_11  and  C_12
REMARK    7  A    between atoms: C_15  and  N_16
REMARK    8  A    between atoms: C_17  and  C_19
REMARK                            x       y       z     vdW  Elec       q    Type
REMARK                         _______ _______ _______ _____ _____    ______ ____
ROOT
ATOM      1  C   UNL     1       0.055  10.498  21.073  0.00  0.00    +0.000 A 
ATOM      2  C   UNL     1       0.455  10.269  19.754  0.00  0.00    +0.000 A 
ATOM      3  C   UNL     1       1.230   9.160  19.395  0.00  0.00    +0.000 A 
ATOM      4  C   UNL     1       1.646   8.239  20.353  0.00  0.00    +0.000 A 
ATOM      5  C   UNL     1       1.226   8.422  21.670  0.00  0.00    +0.000 A 
ATOM      6  C   UNL     1       0.450   9.540  22.020  0.00  0.00    +0.000 A 
ENDROOT
BRANCH   1  12
ATOM      7  C   UNL     1      -4.020  13.940  22.111  0.00  0.00    +0.000 C 
ATOM      8  O   UNL     1      -4.520  14.535  21.163  0.00  0.00    +0.000 OA
ATOM      9  N   UNL     1      -3.192  12.857  21.932  0.00  0.00    +0.000 N 
ATOM     10  C   UNL     1      -2.837  12.453  20.569  0.00  0.00    +0.000 C 
ATOM     11  C   UNL     1      -1.315  12.467  20.391  0.00  0.00    +0.000 C 
ATOM     12  N   UNL     1      -0.694  11.605  21.407  0.00  0.00    +0.000 N 
ATOM     13  C   UNL     1      -1.035  11.935  22.808  0.00  0.00    +0.000 C 
ATOM     14  C   UNL     1      -2.569  12.062  22.994  0.00  0.00    +0.000 C 
BRANCH   7  15
ATOM     15  O   UNL     1      -4.218  14.286  23.416  0.00  0.00    +0.000 OA
BRANCH  15  17
ATOM     16  C   UNL     1      -2.371  15.857  22.993  0.00  0.00    +0.000 C 
ATOM     17  C   UNL     1      -3.496  15.429  23.949  0.00  0.00    +0.000 C 
ATOM     18  C   UNL     1      -2.982  15.161  25.374  0.00  0.00    +0.000 C 
ATOM     19  C   UNL     1      -4.503  16.588  24.031  0.00  0.00    +0.000 C 
ENDBRANCH  15  17
ENDBRANCH   7  15
ENDBRANCH   1  12
BRANCH   4  20
ATOM     20  N   UNL     1       2.471   7.134  20.058  0.00  0.00    +0.000 N 
ATOM     21  C   UNL     1       2.149   5.796  20.232  0.00  0.00    +0.000 C 
ATOM     22  O   UNL     1       1.078   5.380  20.662  0.00  0.00    +0.000 OA
ATOM     23  H   UNL     1       3.353   7.313  19.591  0.00  0.00    +0.000 HD
BRANCH  21  24
ATOM     24  C   UNL     1       3.193   4.880  19.814  0.00  0.00    +0.000 A 
ATOM     25  C   UNL     1       4.404   5.139  19.201  0.00  0.00    +0.000 A 
ATOM     26  C   UNL     1       5.044   3.893  19.017  0.00  0.00    +0.000 A 
ATOM     27  C   UNL     1       4.186   2.946  19.525  0.00  0.00    +0.000 A 
ATOM     28  O   UNL     1       3.060   3.531  20.016  0.00  0.00    +0.000 OA
ENDBRANCH  21  24
ENDBRANCH   4  20
TORSDOF 5
ENDMDL
MODEL 9
REMARK VINA RESULT:      -6.5      3.895      4.382
REMARK  Name = 
REMARK  8 active torsions:
REMARK  status: ('A' for Active; 'I' for Inactive)
REMARK    1  A    between atoms: C_1  and  C_2
REMARK    2  A    between atoms: C_2  and  C_3
REMARK    3  A    between atoms: C_2  and  C_4
REMARK    4  A    between atoms: C_2  and  O_5
REMARK    5  A    between atoms: O_5  and  C_6
REMARK    6  A    between atoms: N_11  and  C_12
REMARK    7  A    between atoms: C_15  and  N_16
REMARK    8  A    between atoms: C_17  and  C_19
REMARK                            x       y       z     vdW  Elec       q    Type
REMARK                         _______ _______ _______ _____ _____    ______ ____
ROOT
ATOM      1  C   UNL     1       1.343   8.412  20.511  0.00  0.00    +0.000 A 
ATOM      2  C   UNL     1       0.726   9.421  19.766  0.00  0.00    +0.000 A 
ATOM      3  C   UNL     1      -0.118  10.369  20.356  0.00  0.00    +0.000 A 
ATOM      4  C   UNL     1      -0.383  10.338  21.723  0.00  0.00    +0.000 A 
ATOM      5  C   UNL     1       0.254   9.367  22.496  0.00  0.00    +0.000 A 
ATOM      6  C   UNL     1       1.096   8.418  21.893  0.00  0.00    +0.000 A 
ENDROOT
BRANCH   1  12
ATOM      7  C   UNL     1       3.255   4.082  17.843  0.00  0.00    +0.000 C 
ATOM      8  O   UNL     1       3.420   3.047  18.478  0.00  0.00    +0.000 OA
ATOM      9  N   UNL     1       2.524   5.132  18.345  0.00  0.00    +0.000 N 
ATOM     10  C   UNL     1       1.994   5.040  19.708  0.00  0.00    +0.000 C 
ATOM     11  C   UNL     1       2.508   6.208  20.557  0.00  0.00    +0.000 C 
ATOM     12  N   UNL     1       2.157   7.478  19.907  0.00  0.00    +0.000 N 
ATOM     13  C   UNL     1       2.632   7.628  18.515  0.00  0.00    +0.000 C 
ATOM     14  C   UNL     1       2.244   6.396  17.658  0.00  0.00    +0.000 C 
BRANCH   7  15
ATOM     15  O   UNL     1       3.776   4.302  16.601  0.00  0.00    +0.000 OA
BRANCH  15  17
ATOM     16  C   UNL     1       5.287   6.142  15.976  0.00  0.00    +0.000 C 
ATOM     17  C   UNL     1       5.170   4.699  16.492  0.00  0.00    +0.000 C 
ATOM     18  C   UNL     1       5.977   3.705  15.641  0.00  0.00    +0.000 C 
ATOM     19  C   UNL     1       5.750   4.667  17.916  0.00  0.00    +0.000 C 
ENDBRANCH  15  17
ENDBRANCH   7  15
ENDBRANCH   1  12
BRANCH   4  20
ATOM     20  N   UNL     1      -1.265  11.234  22.361  0.00  0.00    +0.000 N 
ATOM     21  C   UNL     1      -1.016  12.567  22.651  0.00  0.00    +0.000 C 
ATOM     22  O   UNL     1       0.019  13.167  22.375  0.00  0.00    +0.000 OA
ATOM     23  H   UNL     1      -2.207  10.914  22.554  0.00  0.00    +0.000 HD
BRANCH  21  24
ATOM     24  C   UNL     1      -2.125  13.248  23.291  0.00  0.00    +0.000 A 
ATOM     25  C   UNL     1      -2.307  14.594  23.548  0.00  0.00    +0.000 A 
ATOM     26  C   UNL     1      -3.561  14.722  24.187  0.00  0.00    +0.000 A 
ATOM     27  C   UNL     1      -4.068  13.447  24.287  0.00  0.00    +0.000 A 
ATOM     28  O   UNL     1      -3.209  12.543  23.744  0.00  0.00    +0.000 OA
ENDBRANCH  21  24
ENDBRANCH   4  20
TORSDOF 5
ENDMDL
