MODEL 1
REMARK VINA RESULT:      -7.4      0.000      0.000
REMARK  Name = 
REMARK  15 active torsions:
REMARK  status: ('A' for Active; 'I' for Inactive)
REMARK    1  A    between atoms: C_1  and  C_2
REMARK    2  A    between atoms: C_2  and  C_3
REMARK    3  A    between atoms: C_2  and  C_4
REMARK    4  A    between atoms: C_7  and  C_8
REMARK    5  A    between atoms: C_10  and  O_11
REMARK    6  A    between atoms: O_11  and  C_12
REMARK    7  A    between atoms: C_12  and  O_14
REMARK    8  A    between atoms: O_14  and  C_15
REMARK    9  A    between atoms: C_15  and  C_16
REMARK   10  A    between atoms: C_15  and  O_17
REMARK   11  A    between atoms: O_17  and  C_18
REMARK   12  A    between atoms: C_18  and  C_20
REMARK   13  A    between atoms: C_26  and  N_27
REMARK   14  A    between atoms: C_26  and  C_28
REMARK   15  A    between atoms: C_28  and  O_30
REMARK                            x       y       z     vdW  Elec       q    Type
REMARK                         _______ _______ _______ _____ _____    ______ ____
ROOT
ATOM      1  O   UNL     1       2.324   8.135  19.826  0.00  0.00    +0.000 OA
ENDROOT
BRANCH   1   2
ATOM      2  C   UNL     1       1.326   8.983  19.193  0.00  0.00    +0.000 C 
ATOM      3  C   UNL     1       1.846   9.283  17.782  0.00  0.00    +0.000 C 
BRANCH   2   4
ATOM      4  O   UNL     1       1.198  10.220  19.907  0.00  0.00    +0.000 OA
BRANCH   4   5
ATOM      5  C   UNL     1      -0.055  10.503  20.354  0.00  0.00    +0.000 C 
ATOM      6  O   UNL     1      -0.560  10.076  21.381  0.00  0.00    +0.000 OA
BRANCH   5   7
ATOM      7  O   UNL     1      -0.669  11.297  19.434  0.00  0.00    +0.000 OA
BRANCH   7  14
ATOM      8  C   UNL     1      -2.965  12.109  19.072  0.00  0.00    +0.000 C 
ATOM      9  C   UNL     1      -4.290  11.771  18.345  0.00  0.00    +0.000 C 
ATOM     10  C   UNL     1      -4.086  11.305  16.908  0.00  0.00    +0.000 C 
ATOM     11  C   UNL     1      -3.147  10.105  16.831  0.00  0.00    +0.000 C 
ATOM     12  C   UNL     1      -2.898   9.714  15.374  0.00  0.00    +0.000 C 
ATOM     13  C   UNL     1      -1.823  10.420  17.527  0.00  0.00    +0.000 C 
ATOM     14  C   UNL     1      -1.985  10.897  18.980  0.00  0.00    +0.000 C 
BRANCH   8  16
ATOM     15  C   UNL     1      -4.770  12.667  20.829  0.00  0.00    +0.000 C 
ATOM     16  C   UNL     1      -3.260  12.591  20.535  0.00  0.00    +0.000 C 
ATOM     17  C   UNL     1      -2.666  13.963  20.867  0.00  0.00    +0.000 C 
ENDBRANCH   8  16
ENDBRANCH   7  14
ENDBRANCH   5   7
ENDBRANCH   4   5
ENDBRANCH   2   4
ENDBRANCH   1   2
BRANCH   1  18
ATOM     18  C   UNL     1       2.036   6.804  19.861  0.00  0.00    +0.000 C 
ATOM     19  O   UNL     1       1.485   6.213  20.766  0.00  0.00    +0.000 OA
BRANCH  18  20
ATOM     20  C   UNL     1       2.513   6.055  18.631  0.00  0.00    +0.000 C 
ATOM     21  C   UNL     1       3.403   4.847  18.862  0.00  0.00    +0.000 C 
ATOM     22  C   UNL     1       3.965   6.089  18.191  0.00  0.00    +0.000 C 
ATOM     23  C   UNL     1       4.521   5.636  16.865  0.00  0.00    +0.000 C 
ATOM     24  C   UNL     1       4.866   4.159  17.122  0.00  0.00    +0.000 C 
ATOM     25  F   UNL     1       5.027   3.494  15.953  0.00  0.00    +0.000 F 
ATOM     26  C   UNL     1       3.637   3.659  17.923  0.00  0.00    +0.000 C 
BRANCH  26  27
ATOM     27  N   UNL     1       2.470   3.367  17.048  0.00  0.00    +0.000 NA
ATOM     28  H   UNL     1       2.783   2.875  16.209  0.00  0.00    +0.000 HD
ATOM     29  H   UNL     1       2.052   4.241  16.725  0.00  0.00    +0.000 HD
ENDBRANCH  26  27
BRANCH  26  30
ATOM     30  C   UNL     1       3.987   2.367  18.704  0.00  0.00    +0.000 C 
ATOM     31  O   UNL     1       3.421   1.297  18.577  0.00  0.00    +0.000 OA
BRANCH  30  32
ATOM     32  O   UNL     1       5.056   2.524  19.536  0.00  0.00    +0.000 OA
ATOM     33  H   UNL     1       4.735   2.772  20.433  0.00  0.00    +0.000 HD
ENDBRANCH  30  32
ENDBRANCH  26  30
ENDBRANCH  18  20
ENDBRANCH   1  18
TORSDOF 11
ENDMDL
MODEL 2
REMARK VINA RESULT:      -7.3      3.473      8.899
REMARK  Name = 
REMARK  15 active torsions:
REMARK  status: ('A' for Active; 'I' for Inactive)
REMARK    1  A    between atoms: C_1  and  C_2
REMARK    2  A    between atoms: C_2  and  C_3
REMARK    3  A    between atoms: C_2  and  C_4
REMARK    4  A    between atoms: C_7  and  C_8
REMARK    5  A    between atoms: C_10  and  O_11
REMARK    6  A    between atoms: O_11  and  C_12
REMARK    7  A    between atoms: C_12  and  O_14
REMARK    8  A    between atoms: O_14  and  C_15
REMARK    9  A    between atoms: C_15  and  C_16
REMARK   10  A    between atoms: C_15  and  O_17
REMARK   11  A    between atoms: O_17  and  C_18
REMARK   12  A    between atoms: C_18  and  C_20
REMARK   13  A    between atoms: C_26  and  N_27
REMARK   14  A    between atoms: C_26  and  C_28
REMARK   15  A    between atoms: C_28  and  O_30
REMARK                            x       y       z     vdW  Elec       q    Type
REMARK                         _______ _______ _______ _____ _____    ______ ____
ROOT
ATOM      1  O   UNL     1       1.027  10.506  20.247  0.00  0.00    +0.000 OA
ENDROOT
BRANCH   1   2
ATOM      2  C   UNL     1       0.909   9.069  20.054  0.00  0.00    +0.000 C 
ATOM      3  C   UNL     1       0.642   8.467  21.439  0.00  0.00    +0.000 C 
BRANCH   2   4
ATOM      4  O   UNL     1       2.139   8.530  19.550  0.00  0.00    +0.000 OA
BRANCH   4   5
ATOM      5  C   UNL     1       2.184   8.352  18.203  0.00  0.00    +0.000 C 
ATOM      6  O   UNL     1       2.349   9.229  17.370  0.00  0.00    +0.000 OA
BRANCH   5   7
ATOM      7  O   UNL     1       1.955   7.035  17.939  0.00  0.00    +0.000 OA
BRANCH   7  14
ATOM      8  C   UNL     1       2.544   4.644  17.934  0.00  0.00    +0.000 C 
ATOM      9  C   UNL     1       3.749   3.673  18.003  0.00  0.00    +0.000 C 
ATOM     10  C   UNL     1       4.916   4.099  17.119  0.00  0.00    +0.000 C 
ATOM     11  C   UNL     1       5.387   5.512  17.449  0.00  0.00    +0.000 C 
ATOM     12  C   UNL     1       6.501   5.940  16.493  0.00  0.00    +0.000 C 
ATOM     13  C   UNL     1       4.218   6.494  17.370  0.00  0.00    +0.000 C 
ATOM     14  C   UNL     1       3.017   6.099  18.246  0.00  0.00    +0.000 C 
BRANCH   8  16
ATOM     15  C   UNL     1       1.629   4.469  20.340  0.00  0.00    +0.000 C 
ATOM     16  C   UNL     1       1.384   4.131  18.857  0.00  0.00    +0.000 C 
ATOM     17  C   UNL     1       1.145   2.621  18.771  0.00  0.00    +0.000 C 
ENDBRANCH   8  16
ENDBRANCH   7  14
ENDBRANCH   5   7
ENDBRANCH   4   5
ENDBRANCH   2   4
ENDBRANCH   1   2
BRANCH   1  18
ATOM     18  C   UNL     1       0.362  11.282  19.346  0.00  0.00    +0.000 C 
ATOM     19  O   UNL     1       0.846  12.153  18.654  0.00  0.00    +0.000 OA
BRANCH  18  20
ATOM     20  C   UNL     1      -1.126  10.994  19.291  0.00  0.00    +0.000 C 
ATOM     21  C   UNL     1      -1.852  11.363  18.009  0.00  0.00    +0.000 C 
ATOM     22  C   UNL     1      -2.155  12.109  19.298  0.00  0.00    +0.000 C 
ATOM     23  C   UNL     1      -3.639  11.973  19.524  0.00  0.00    +0.000 C 
ATOM     24  C   UNL     1      -4.189  11.777  18.100  0.00  0.00    +0.000 C 
ATOM     25  F   UNL     1      -5.444  11.269  18.138  0.00  0.00    +0.000 F 
ATOM     26  C   UNL     1      -3.170  10.790  17.477  0.00  0.00    +0.000 C 
BRANCH  26  27
ATOM     27  N   UNL     1      -3.409   9.384  17.901  0.00  0.00    +0.000 NA
ATOM     28  H   UNL     1      -4.330   9.308  18.335  0.00  0.00    +0.000 HD
ATOM     29  H   UNL     1      -2.734   9.119  18.618  0.00  0.00    +0.000 HD
ENDBRANCH  26  27
BRANCH  26  30
ATOM     30  C   UNL     1      -3.239  10.843  15.930  0.00  0.00    +0.000 C 
ATOM     31  O   UNL     1      -4.044  10.243  15.244  0.00  0.00    +0.000 OA
BRANCH  30  32
ATOM     32  O   UNL     1      -2.320  11.694  15.388  0.00  0.00    +0.000 OA
ATOM     33  H   UNL     1      -2.541  12.618  15.649  0.00  0.00    +0.000 HD
ENDBRANCH  30  32
ENDBRANCH  26  30
ENDBRANCH  18  20
ENDBRANCH   1  18
TORSDOF 11
ENDMDL
MODEL 3
REMARK VINA RESULT:      -7.3      6.221      9.749
REMARK  Name = 
REMARK  15 active torsions:
REMARK  status: ('A' for Active; 'I' for Inactive)
REMARK    1  A    between atoms: C_1  and  C_2
REMARK    2  A    between atoms: C_2  and  C_3
REMARK    3  A    between atoms: C_2  and  C_4
REMARK    4  A    between atoms: C_7  and  C_8
REMARK    5  A    between atoms: C_10  and  O_11
REMARK    6  A    between atoms: O_11  and  C_12
REMARK    7  A    between atoms: C_12  and  O_14
REMARK    8  A    between atoms: O_14  and  C_15
REMARK    9  A    between atoms: C_15  and  C_16
REMARK   10  A    between atoms: C_15  and  O_17
REMARK   11  A    between atoms: O_17  and  C_18
REMARK   12  A    between atoms: C_18  and  C_20
REMARK   13  A    between atoms: C_26  and  N_27
REMARK   14  A    between atoms: C_26  and  C_28
REMARK   15  A    between atoms: C_28  and  O_30
REMARK                            x       y       z     vdW  Elec       q    Type
REMARK                         _______ _______ _______ _____ _____    ______ ____
ROOT
ATOM      1  O   UNL     1       8.617   7.754  18.578  0.00  0.00    +0.000 OA
ENDROOT
BRANCH   1   2
ATOM      2  C   UNL     1       7.540   6.834  18.250  0.00  0.00    +0.000 C 
ATOM      3  C   UNL     1       7.737   5.600  19.140  0.00  0.00    +0.000 C 
BRANCH   2   4
ATOM      4  O   UNL     1       7.630   6.427  16.878  0.00  0.00    +0.000 OA
BRANCH   4   5
ATOM      5  C   UNL     1       6.475   5.955  16.337  0.00  0.00    +0.000 C 
ATOM      6  O   UNL     1       6.089   6.147  15.195  0.00  0.00    +0.000 OA
BRANCH   5   7
ATOM      7  O   UNL     1       5.795   5.280  17.305  0.00  0.00    +0.000 OA
BRANCH   7  14
ATOM      8  C   UNL     1       3.762   4.595  18.515  0.00  0.00    +0.000 C 
ATOM      9  C   UNL     1       2.272   4.960  18.722  0.00  0.00    +0.000 C 
ATOM     10  C   UNL     1       2.038   6.455  18.906  0.00  0.00    +0.000 C 
ATOM     11  C   UNL     1       2.598   7.261  17.738  0.00  0.00    +0.000 C 
ATOM     12  C   UNL     1       2.421   8.759  17.990  0.00  0.00    +0.000 C 
ATOM     13  C   UNL     1       4.075   6.932  17.524  0.00  0.00    +0.000 C 
ATOM     14  C   UNL     1       4.355   5.431  17.338  0.00  0.00    +0.000 C 
BRANCH   8  16
ATOM     15  C   UNL     1       2.678   2.398  17.704  0.00  0.00    +0.000 C 
ATOM     16  C   UNL     1       3.921   3.044  18.348  0.00  0.00    +0.000 C 
ATOM     17  C   UNL     1       4.185   2.302  19.662  0.00  0.00    +0.000 C 
ENDBRANCH   8  16
ENDBRANCH   7  14
ENDBRANCH   5   7
ENDBRANCH   4   5
ENDBRANCH   2   4
ENDBRANCH   1   2
BRANCH   1  18
ATOM     18  C   UNL     1       8.399   9.061  18.262  0.00  0.00    +0.000 C 
ATOM     19  O   UNL     1       7.495   9.492  17.577  0.00  0.00    +0.000 OA
BRANCH  18  20
ATOM     20  C   UNL     1       9.449   9.997  18.828  0.00  0.00    +0.000 C 
ATOM     21  C   UNL     1       9.057  11.456  18.989  0.00  0.00    +0.000 C 
ATOM     22  C   UNL     1      10.115  11.059  17.972  0.00  0.00    +0.000 C 
ATOM     23  C   UNL     1      11.347  11.858  18.313  0.00  0.00    +0.000 C 
ATOM     24  C   UNL     1      10.770  13.101  19.012  0.00  0.00    +0.000 C 
ATOM     25  F   UNL     1      11.733  13.746  19.713  0.00  0.00    +0.000 F 
ATOM     26  C   UNL     1       9.675  12.497  19.927  0.00  0.00    +0.000 C 
BRANCH  26  27
ATOM     27  N   UNL     1      10.239  11.902  21.169  0.00  0.00    +0.000 NA
ATOM     28  H   UNL     1       9.541  11.302  21.611  0.00  0.00    +0.000 HD
ATOM     29  H   UNL     1      10.446  12.640  21.843  0.00  0.00    +0.000 HD
ENDBRANCH  26  27
BRANCH  26  30
ATOM     30  C   UNL     1       8.650  13.584  20.339  0.00  0.00    +0.000 C 
ATOM     31  O   UNL     1       8.073  13.634  21.408  0.00  0.00    +0.000 OA
BRANCH  30  32
ATOM     32  O   UNL     1       8.485  14.544  19.383  0.00  0.00    +0.000 OA
ATOM     33  H   UNL     1       9.357  14.743  18.970  0.00  0.00    +0.000 HD
ENDBRANCH  30  32
ENDBRANCH  26  30
ENDBRANCH  18  20
ENDBRANCH   1  18
TORSDOF 11
ENDMDL
MODEL 4
REMARK VINA RESULT:      -7.2      3.165      5.226
REMARK  Name = 
REMARK  15 active torsions:
REMARK  status: ('A' for Active; 'I' for Inactive)
REMARK    1  A    between atoms: C_1  and  C_2
REMARK    2  A    between atoms: C_2  and  C_3
REMARK    3  A    between atoms: C_2  and  C_4
REMARK    4  A    between atoms: C_7  and  C_8
REMARK    5  A    between atoms: C_10  and  O_11
REMARK    6  A    between atoms: O_11  and  C_12
REMARK    7  A    between atoms: C_12  and  O_14
REMARK    8  A    between atoms: O_14  and  C_15
REMARK    9  A    between atoms: C_15  and  C_16
REMARK   10  A    between atoms: C_15  and  O_17
REMARK   11  A    between atoms: O_17  and  C_18
REMARK   12  A    between atoms: C_18  and  C_20
REMARK   13  A    between atoms: C_26  and  N_27
REMARK   14  A    between atoms: C_26  and  C_28
REMARK   15  A    between atoms: C_28  and  O_30
REMARK                            x       y       z     vdW  Elec       q    Type
REMARK                         _______ _______ _______ _____ _____    ______ ____
ROOT
ATOM      1  O   UNL     1       2.797   3.704  18.679  0.00  0.00    +0.000 OA
ENDROOT
BRANCH   1   2
ATOM      2  C   UNL     1       1.698   3.395  19.581  0.00  0.00    +0.000 C 
ATOM      3  C   UNL     1       0.629   2.691  18.737  0.00  0.00    +0.000 C 
BRANCH   2   4
ATOM      4  O   UNL     1       1.138   4.602  20.116  0.00  0.00    +0.000 OA
BRANCH   4   5
ATOM      5  C   UNL     1       1.884   5.211  21.076  0.00  0.00    +0.000 C 
ATOM      6  O   UNL     1       2.768   4.686  21.734  0.00  0.00    +0.000 OA
BRANCH   5   7
ATOM      7  O   UNL     1       1.437   6.489  21.218  0.00  0.00    +0.000 OA
BRANCH   7  14
ATOM      8  C   UNL     1       1.146   8.783  20.369  0.00  0.00    +0.000 C 
ATOM      9  C   UNL     1       1.209   9.634  19.077  0.00  0.00    +0.000 C 
ATOM     10  C   UNL     1       2.426   9.326  18.213  0.00  0.00    +0.000 C 
ATOM     11  C   UNL     1       2.499   7.847  17.847  0.00  0.00    +0.000 C 
ATOM     12  C   UNL     1       3.771   7.556  17.050  0.00  0.00    +0.000 C 
ATOM     13  C   UNL     1       2.456   6.984  19.108  0.00  0.00    +0.000 C 
ATOM     14  C   UNL     1       1.244   7.266  20.011  0.00  0.00    +0.000 C 
BRANCH   8  16
ATOM     15  C   UNL     1      -0.779  10.468  20.707  0.00  0.00    +0.000 C 
ATOM     16  C   UNL     1      -0.123   9.167  21.208  0.00  0.00    +0.000 C 
ATOM     17  C   UNL     1       0.154   9.347  22.703  0.00  0.00    +0.000 C 
ENDBRANCH   8  16
ENDBRANCH   7  14
ENDBRANCH   5   7
ENDBRANCH   4   5
ENDBRANCH   2   4
ENDBRANCH   1   2
BRANCH   1  18
ATOM     18  C   UNL     1       3.958   3.029  18.906  0.00  0.00    +0.000 C 
ATOM     19  O   UNL     1       4.204   2.326  19.864  0.00  0.00    +0.000 OA
BRANCH  18  20
ATOM     20  C   UNL     1       5.004   3.259  17.832  0.00  0.00    +0.000 C 
ATOM     21  C   UNL     1       5.543   4.671  17.685  0.00  0.00    +0.000 C 
ATOM     22  C   UNL     1       4.698   4.060  16.580  0.00  0.00    +0.000 C 
ATOM     23  C   UNL     1       5.530   4.135  15.324  0.00  0.00    +0.000 C 
ATOM     24  C   UNL     1       6.457   5.333  15.595  0.00  0.00    +0.000 C 
ATOM     25  F   UNL     1       7.514   5.320  14.749  0.00  0.00    +0.000 F 
ATOM     26  C   UNL     1       6.876   5.109  17.070  0.00  0.00    +0.000 C 
BRANCH  26  27
ATOM     27  N   UNL     1       7.947   4.086  17.207  0.00  0.00    +0.000 NA
ATOM     28  H   UNL     1       8.474   4.020  16.335  0.00  0.00    +0.000 HD
ATOM     29  H   UNL     1       7.530   3.166  17.357  0.00  0.00    +0.000 HD
ENDBRANCH  26  27
BRANCH  26  30
ATOM     30  C   UNL     1       7.393   6.430  17.694  0.00  0.00    +0.000 C 
ATOM     31  O   UNL     1       7.859   6.542  18.812  0.00  0.00    +0.000 OA
BRANCH  30  32
ATOM     32  O   UNL     1       7.327   7.484  16.830  0.00  0.00    +0.000 OA
ATOM     33  H   UNL     1       7.961   8.180  17.119  0.00  0.00    +0.000 HD
ENDBRANCH  30  32
ENDBRANCH  26  30
ENDBRANCH  18  20
ENDBRANCH   1  18
TORSDOF 11
ENDMDL
MODEL 5
REMARK VINA RESULT:      -7.2      2.433      3.401
REMARK  Name = 
REMARK  15 active torsions:
REMARK  status: ('A' for Active; 'I' for Inactive)
REMARK    1  A    between atoms: C_1  and  C_2
REMARK    2  A    between atoms: C_2  and  C_3
REMARK    3  A    between atoms: C_2  and  C_4
REMARK    4  A    between atoms: C_7  and  C_8
REMARK    5  A    between atoms: C_10  and  O_11
REMARK    6  A    between atoms: O_11  and  C_12
REMARK    7  A    between atoms: C_12  and  O_14
REMARK    8  A    between atoms: O_14  and  C_15
REMARK    9  A    between atoms: C_15  and  C_16
REMARK   10  A    between atoms: C_15  and  O_17
REMARK   11  A    between atoms: O_17  and  C_18
REMARK   12  A    between atoms: C_18  and  C_20
REMARK   13  A    between atoms: C_26  and  N_27
REMARK   14  A    between atoms: C_26  and  C_28
REMARK   15  A    between atoms: C_28  and  O_30
REMARK                            x       y       z     vdW  Elec       q    Type
REMARK                         _______ _______ _______ _____ _____    ______ ____
ROOT
ATOM      1  O   UNL     1       3.446   5.926  19.833  0.00  0.00    +0.000 OA
ENDROOT
BRANCH   1   2
ATOM      2  C   UNL     1       2.184   6.615  19.614  0.00  0.00    +0.000 C 
ATOM      3  C   UNL     1       1.868   6.477  18.120  0.00  0.00    +0.000 C 
BRANCH   2   4
ATOM      4  O   UNL     1       2.315   8.009  19.928  0.00  0.00    +0.000 OA
BRANCH   4   5
ATOM      5  C   UNL     1       1.171   8.620  20.336  0.00  0.00    +0.000 C 
ATOM      6  O   UNL     1       0.392   8.192  21.174  0.00  0.00    +0.000 OA
BRANCH   5   7
ATOM      7  O   UNL     1       1.014   9.761  19.611  0.00  0.00    +0.000 OA
BRANCH   7  14
ATOM      8  C   UNL     1      -0.349  11.804  19.429  0.00  0.00    +0.000 C 
ATOM      9  C   UNL     1      -1.727  12.326  18.952  0.00  0.00    +0.000 C 
ATOM     10  C   UNL     1      -2.147  11.765  17.598  0.00  0.00    +0.000 C 
ATOM     11  C   UNL     1      -2.157  10.240  17.597  0.00  0.00    +0.000 C 
ATOM     12  C   UNL     1      -2.502   9.710  16.205  0.00  0.00    +0.000 C 
ATOM     13  C   UNL     1      -0.800   9.699  18.048  0.00  0.00    +0.000 C 
ATOM     14  C   UNL     1      -0.337  10.243  19.410  0.00  0.00    +0.000 C 
BRANCH   8  16
ATOM     15  C   UNL     1       1.525  12.718  20.950  0.00  0.00    +0.000 C 
ATOM     16  C   UNL     1       0.016  12.435  20.818  0.00  0.00    +0.000 C 
ATOM     17  C   UNL     1      -0.388  11.571  22.016  0.00  0.00    +0.000 C 
ENDBRANCH   8  16
ENDBRANCH   7  14
ENDBRANCH   5   7
ENDBRANCH   4   5
ENDBRANCH   2   4
ENDBRANCH   1   2
BRANCH   1  18
ATOM     18  C   UNL     1       3.471   4.609  19.486  0.00  0.00    +0.000 C 
ATOM     19  O   UNL     1       2.699   3.753  19.866  0.00  0.00    +0.000 OA
BRANCH  18  20
ATOM     20  C   UNL     1       4.623   4.253  18.566  0.00  0.00    +0.000 C 
ATOM     21  C   UNL     1       5.443   5.405  18.011  0.00  0.00    +0.000 C 
ATOM     22  C   UNL     1       4.583   4.565  17.082  0.00  0.00    +0.000 C 
ATOM     23  C   UNL     1       5.509   4.033  16.018  0.00  0.00    +0.000 C 
ATOM     24  C   UNL     1       6.633   5.084  15.981  0.00  0.00    +0.000 C 
ATOM     25  F   UNL     1       7.730   4.590  15.359  0.00  0.00    +0.000 F 
ATOM     26  C   UNL     1       6.881   5.366  17.484  0.00  0.00    +0.000 C 
BRANCH  26  27
ATOM     27  N   UNL     1       7.712   4.314  18.130  0.00  0.00    +0.000 NA
ATOM     28  H   UNL     1       7.631   3.442  17.605  0.00  0.00    +0.000 HD
ATOM     29  H   UNL     1       7.356   4.117  19.066  0.00  0.00    +0.000 HD
ENDBRANCH  26  27
BRANCH  26  30
ATOM     30  C   UNL     1       7.601   6.726  17.670  0.00  0.00    +0.000 C 
ATOM     31  O   UNL     1       7.572   7.648  16.878  0.00  0.00    +0.000 OA
BRANCH  30  32
ATOM     32  O   UNL     1       8.248   6.823  18.868  0.00  0.00    +0.000 OA
ATOM     33  H   UNL     1       8.237   5.945  19.314  0.00  0.00    +0.000 HD
ENDBRANCH  30  32
ENDBRANCH  26  30
ENDBRANCH  18  20
ENDBRANCH   1  18
TORSDOF 11
ENDMDL
MODEL 6
REMARK VINA RESULT:      -7.2      2.471      3.537
REMARK  Name = 
REMARK  15 active torsions:
REMARK  status: ('A' for Active; 'I' for Inactive)
REMARK    1  A    between atoms: C_1  and  C_2
REMARK    2  A    between atoms: C_2  and  C_3
REMARK    3  A    between atoms: C_2  and  C_4
REMARK    4  A    between atoms: C_7  and  C_8
REMARK    5  A    between atoms: C_10  and  O_11
REMARK    6  A    between atoms: O_11  and  C_12
REMARK    7  A    between atoms: C_12  and  O_14
REMARK    8  A    between atoms: O_14  and  C_15
REMARK    9  A    between atoms: C_15  and  C_16
REMARK   10  A    between atoms: C_15  and  O_17
REMARK   11  A    between atoms: O_17  and  C_18
REMARK   12  A    between atoms: C_18  and  C_20
REMARK   13  A    between atoms: C_26  and  N_27
REMARK   14  A    between atoms: C_26  and  C_28
REMARK   15  A    between atoms: C_28  and  O_30
REMARK                            x       y       z     vdW  Elec       q    Type
REMARK                         _______ _______ _______ _____ _____    ______ ____
ROOT
ATOM      1  O   UNL     1       1.639   5.793  18.384  0.00  0.00    +0.000 OA
ENDROOT
BRANCH   1   2
ATOM      2  C   UNL     1       2.164   6.725  19.369  0.00  0.00    +0.000 C 
ATOM      3  C   UNL     1       1.897   6.100  20.743  0.00  0.00    +0.000 C 
BRANCH   2   4
ATOM      4  O   UNL     1       1.468   7.977  19.292  0.00  0.00    +0.000 OA
BRANCH   4   5
ATOM      5  C   UNL     1       1.860   8.796  18.280  0.00  0.00    +0.000 C 
ATOM      6  O   UNL     1       2.612   8.495  17.367  0.00  0.00    +0.000 OA
BRANCH   5   7
ATOM      7  O   UNL     1       1.315  10.026  18.491  0.00  0.00    +0.000 OA
BRANCH   7  14
ATOM      8  C   UNL     1      -0.389  11.431  19.580  0.00  0.00    +0.000 C 
ATOM      9  C   UNL     1      -1.920  11.615  19.731  0.00  0.00    +0.000 C 
ATOM     10  C   UNL     1      -2.673  11.491  18.412  0.00  0.00    +0.000 C 
ATOM     11  C   UNL     1      -2.390  10.160  17.723  0.00  0.00    +0.000 C 
ATOM     12  C   UNL     1      -3.094  10.101  16.367  0.00  0.00    +0.000 C 
ATOM     13  C   UNL     1      -0.885   9.962  17.546  0.00  0.00    +0.000 C 
ATOM     14  C   UNL     1      -0.086  10.082  18.855  0.00  0.00    +0.000 C 
BRANCH   8  16
ATOM     15  C   UNL     1       0.275  10.280  21.792  0.00  0.00    +0.000 C 
ATOM     16  C   UNL     1       0.313  11.585  20.974  0.00  0.00    +0.000 C 
ATOM     17  C   UNL     1      -0.288  12.686  21.853  0.00  0.00    +0.000 C 
ENDBRANCH   8  16
ENDBRANCH   7  14
ENDBRANCH   5   7
ENDBRANCH   4   5
ENDBRANCH   2   4
ENDBRANCH   1   2
BRANCH   1  18
ATOM     18  C   UNL     1       2.546   4.941  17.830  0.00  0.00    +0.000 C 
ATOM     19  O   UNL     1       2.298   3.886  17.283  0.00  0.00    +0.000 OA
BRANCH  18  20
ATOM     20  C   UNL     1       3.980   5.408  17.987  0.00  0.00    +0.000 C 
ATOM     21  C   UNL     1       5.025   4.731  17.118  0.00  0.00    +0.000 C 
ATOM     22  C   UNL     1       5.040   4.527  18.623  0.00  0.00    +0.000 C 
ATOM     23  C   UNL     1       6.410   4.950  19.091  0.00  0.00    +0.000 C 
ATOM     24  C   UNL     1       7.285   4.722  17.846  0.00  0.00    +0.000 C 
ATOM     25  F   UNL     1       8.458   5.390  17.958  0.00  0.00    +0.000 F 
ATOM     26  C   UNL     1       6.396   5.273  16.703  0.00  0.00    +0.000 C 
BRANCH  26  27
ATOM     27  N   UNL     1       6.437   6.757  16.617  0.00  0.00    +0.000 NA
ATOM     28  H   UNL     1       6.478   7.155  17.557  0.00  0.00    +0.000 HD
ATOM     29  H   UNL     1       5.572   7.104  16.199  0.00  0.00    +0.000 HD
ENDBRANCH  26  27
BRANCH  26  30
ATOM     30  C   UNL     1       6.853   4.701  15.336  0.00  0.00    +0.000 C 
ATOM     31  O   UNL     1       7.659   5.226  14.592  0.00  0.00    +0.000 OA
BRANCH  30  32
ATOM     32  O   UNL     1       6.294   3.488  15.056  0.00  0.00    +0.000 OA
ATOM     33  H   UNL     1       6.251   2.953  15.882  0.00  0.00    +0.000 HD
ENDBRANCH  30  32
ENDBRANCH  26  30
ENDBRANCH  18  20
ENDBRANCH   1  18
TORSDOF 11
ENDMDL
MODEL 7
REMARK VINA RESULT:      -7.1      2.143      3.739
REMARK  Name = 
REMARK  15 active torsions:
REMARK  status: ('A' for Active; 'I' for Inactive)
REMARK    1  A    between atoms: C_1  and  C_2
REMARK    2  A    between atoms: C_2  and  C_3
REMARK    3  A    between atoms: C_2  and  C_4
REMARK    4  A    between atoms: C_7  and  C_8
REMARK    5  A    between atoms: C_10  and  O_11
REMARK    6  A    between atoms: O_11  and  C_12
REMARK    7  A    between atoms: C_12  and  O_14
REMARK    8  A    between atoms: O_14  and  C_15
REMARK    9  A    between atoms: C_15  and  C_16
REMARK   10  A    between atoms: C_15  and  O_17
REMARK   11  A    between atoms: O_17  and  C_18
REMARK   12  A    between atoms: C_18  and  C_20
REMARK   13  A    between atoms: C_26  and  N_27
REMARK   14  A    between atoms: C_26  and  C_28
REMARK   15  A    between atoms: C_28  and  O_30
REMARK                            x       y       z     vdW  Elec       q    Type
REMARK                         _______ _______ _______ _____ _____    ______ ____
ROOT
ATOM      1  O   UNL     1       2.824   7.249  19.716  0.00  0.00    +0.000 OA
ENDROOT
BRANCH   1   2
ATOM      2  C   UNL     1       1.725   8.078  19.246  0.00  0.00    +0.000 C 
ATOM      3  C   UNL     1       2.054   8.453  17.796  0.00  0.00    +0.000 C 
BRANCH   2   4
ATOM      4  O   UNL     1       1.641   9.282  20.022  0.00  0.00    +0.000 OA
BRANCH   4   5
ATOM      5  C   UNL     1       0.946   9.172  21.185  0.00  0.00    +0.000 C 
ATOM      6  O   UNL     1       1.367   8.696  22.228  0.00  0.00    +0.000 OA
BRANCH   5   7
ATOM      7  O   UNL     1      -0.318   9.633  20.973  0.00  0.00    +0.000 OA
BRANCH   7  14
ATOM      8  C   UNL     1      -1.703  11.317  19.828  0.00  0.00    +0.000 C 
ATOM      9  C   UNL     1      -2.049  12.826  19.820  0.00  0.00    +0.000 C 
ATOM     10  C   UNL     1      -2.269  13.400  21.216  0.00  0.00    +0.000 C 
ATOM     11  C   UNL     1      -1.063  13.164  22.120  0.00  0.00    +0.000 C 
ATOM     12  C   UNL     1      -1.346  13.677  23.532  0.00  0.00    +0.000 C 
ATOM     13  C   UNL     1      -0.711  11.677  22.158  0.00  0.00    +0.000 C 
ATOM     14  C   UNL     1      -0.484  11.057  20.769  0.00  0.00    +0.000 C 
BRANCH   8  16
ATOM     15  C   UNL     1      -1.500  11.950  17.335  0.00  0.00    +0.000 C 
ATOM     16  C   UNL     1      -1.505  10.801  18.360  0.00  0.00    +0.000 C 
ATOM     17  C   UNL     1      -2.570   9.797  17.908  0.00  0.00    +0.000 C 
ENDBRANCH   8  16
ENDBRANCH   7  14
ENDBRANCH   5   7
ENDBRANCH   4   5
ENDBRANCH   2   4
ENDBRANCH   1   2
BRANCH   1  18
ATOM     18  C   UNL     1       2.567   5.914  19.798  0.00  0.00    +0.000 C 
ATOM     19  O   UNL     1       1.668   5.394  20.425  0.00  0.00    +0.000 OA
BRANCH  18  20
ATOM     20  C   UNL     1       3.566   5.064  19.036  0.00  0.00    +0.000 C 
ATOM     21  C   UNL     1       4.637   5.798  18.248  0.00  0.00    +0.000 C 
ATOM     22  C   UNL     1       3.567   5.002  17.520  0.00  0.00    +0.000 C 
ATOM     23  C   UNL     1       4.299   4.009  16.653  0.00  0.00    +0.000 C 
ATOM     24  C   UNL     1       5.651   4.699  16.403  0.00  0.00    +0.000 C 
ATOM     25  F   UNL     1       6.570   3.807  15.962  0.00  0.00    +0.000 F 
ATOM     26  C   UNL     1       6.003   5.269  17.800  0.00  0.00    +0.000 C 
BRANCH  26  27
ATOM     27  N   UNL     1       6.556   4.232  18.713  0.00  0.00    +0.000 NA
ATOM     28  H   UNL     1       7.312   4.633  19.271  0.00  0.00    +0.000 HD
ATOM     29  H   UNL     1       6.974   3.477  18.168  0.00  0.00    +0.000 HD
ENDBRANCH  26  27
BRANCH  26  30
ATOM     30  C   UNL     1       7.050   6.406  17.676  0.00  0.00    +0.000 C 
ATOM     31  O   UNL     1       7.089   7.226  16.779  0.00  0.00    +0.000 OA
BRANCH  30  32
ATOM     32  O   UNL     1       7.921   6.439  18.725  0.00  0.00    +0.000 OA
ATOM     33  H   UNL     1       8.432   7.281  18.696  0.00  0.00    +0.000 HD
ENDBRANCH  30  32
ENDBRANCH  26  30
ENDBRANCH  18  20
ENDBRANCH   1  18
TORSDOF 11
ENDMDL
MODEL 8
REMARK VINA RESULT:      -7.1      2.510      4.667
REMARK  Name = 
REMARK  15 active torsions:
REMARK  status: ('A' for Active; 'I' for Inactive)
REMARK    1  A    between atoms: C_1  and  C_2
REMARK    2  A    between atoms: C_2  and  C_3
REMARK    3  A    between atoms: C_2  and  C_4
REMARK    4  A    between atoms: C_7  and  C_8
REMARK    5  A    between atoms: C_10  and  O_11
REMARK    6  A    between atoms: O_11  and  C_12
REMARK    7  A    between atoms: C_12  and  O_14
REMARK    8  A    between atoms: O_14  and  C_15
REMARK    9  A    between atoms: C_15  and  C_16
REMARK   10  A    between atoms: C_15  and  O_17
REMARK   11  A    between atoms: O_17  and  C_18
REMARK   12  A    between atoms: C_18  and  C_20
REMARK   13  A    between atoms: C_26  and  N_27
REMARK   14  A    between atoms: C_26  and  C_28
REMARK   15  A    between atoms: C_28  and  O_30
REMARK                            x       y       z     vdW  Elec       q    Type
REMARK                         _______ _______ _______ _____ _____    ______ ____
ROOT
ATOM      1  O   UNL     1       2.665   4.244  18.602  0.00  0.00    +0.000 OA
ENDROOT
BRANCH   1   2
ATOM      2  C   UNL     1       2.493   5.589  19.128  0.00  0.00    +0.000 C 
ATOM      3  C   UNL     1       1.686   5.448  20.425  0.00  0.00    +0.000 C 
BRANCH   2   4
ATOM      4  O   UNL     1       1.742   6.393  18.208  0.00  0.00    +0.000 OA
BRANCH   4   5
ATOM      5  C   UNL     1       2.228   7.647  18.005  0.00  0.00    +0.000 C 
ATOM      6  O   UNL     1       3.405   7.972  18.037  0.00  0.00    +0.000 OA
BRANCH   5   7
ATOM      7  O   UNL     1       1.174   8.489  17.817  0.00  0.00    +0.000 OA
BRANCH   7  14
ATOM      8  C   UNL     1      -0.565   9.896  18.846  0.00  0.00    +0.000 C 
ATOM      9  C   UNL     1      -0.862  10.777  20.085  0.00  0.00    +0.000 C 
ATOM     10  C   UNL     1      -0.411  10.144  21.396  0.00  0.00    +0.000 C 
ATOM     11  C   UNL     1       1.072   9.790  21.372  0.00  0.00    +0.000 C 
ATOM     12  C   UNL     1       1.474   9.084  22.667  0.00  0.00    +0.000 C 
ATOM     13  C   UNL     1       1.388   8.905  20.167  0.00  0.00    +0.000 C 
ATOM     14  C   UNL     1       0.946   9.507  18.822  0.00  0.00    +0.000 C 
BRANCH   8  16
ATOM     15  C   UNL     1      -1.589  12.032  17.822  0.00  0.00    +0.000 C 
ATOM     16  C   UNL     1      -1.069  10.609  17.543  0.00  0.00    +0.000 C 
ATOM     17  C   UNL     1      -2.185   9.855  16.816  0.00  0.00    +0.000 C 
ENDBRANCH   8  16
ENDBRANCH   7  14
ENDBRANCH   5   7
ENDBRANCH   4   5
ENDBRANCH   2   4
ENDBRANCH   1   2
BRANCH   1  18
ATOM     18  C   UNL     1       3.802   3.599  18.983  0.00  0.00    +0.000 C 
ATOM     19  O   UNL     1       3.989   3.043  20.046  0.00  0.00    +0.000 OA
BRANCH  18  20
ATOM     20  C   UNL     1       4.902   3.656  17.940  0.00  0.00    +0.000 C 
ATOM     21  C   UNL     1       5.541   5.010  17.686  0.00  0.00    +0.000 C 
ATOM     22  C   UNL     1       4.699   4.350  16.606  0.00  0.00    +0.000 C 
ATOM     23  C   UNL     1       5.582   4.250  15.388  0.00  0.00    +0.000 C 
ATOM     24  C   UNL     1       6.578   5.406  15.587  0.00  0.00    +0.000 C 
ATOM     25  F   UNL     1       7.663   5.244  14.794  0.00  0.00    +0.000 F 
ATOM     26  C   UNL     1       6.923   5.300  17.093  0.00  0.00    +0.000 C 
BRANCH  26  27
ATOM     27  N   UNL     1       7.916   4.227  17.374  0.00  0.00    +0.000 NA
ATOM     28  H   UNL     1       7.752   3.435  16.750  0.00  0.00    +0.000 HD
ATOM     29  H   UNL     1       7.786   3.874  18.322  0.00  0.00    +0.000 HD
ENDBRANCH  26  27
BRANCH  26  30
ATOM     30  C   UNL     1       7.505   6.639  17.613  0.00  0.00    +0.000 C 
ATOM     31  O   UNL     1       8.187   6.766  18.612  0.00  0.00    +0.000 OA
BRANCH  30  32
ATOM     32  O   UNL     1       7.219   7.693  16.795  0.00  0.00    +0.000 OA
ATOM     33  H   UNL     1       8.028   7.939  16.289  0.00  0.00    +0.000 HD
ENDBRANCH  30  32
ENDBRANCH  26  30
ENDBRANCH  18  20
ENDBRANCH   1  18
TORSDOF 11
ENDMDL
MODEL 9
REMARK VINA RESULT:      -7.1      1.266      1.831
REMARK  Name = 
REMARK  15 active torsions:
REMARK  status: ('A' for Active; 'I' for Inactive)
REMARK    1  A    between atoms: C_1  and  C_2
REMARK    2  A    between atoms: C_2  and  C_3
REMARK    3  A    between atoms: C_2  and  C_4
REMARK    4  A    between atoms: C_7  and  C_8
REMARK    5  A    between atoms: C_10  and  O_11
REMARK    6  A    between atoms: O_11  and  C_12
REMARK    7  A    between atoms: C_12  and  O_14
REMARK    8  A    between atoms: O_14  and  C_15
REMARK    9  A    between atoms: C_15  and  C_16
REMARK   10  A    between atoms: C_15  and  O_17
REMARK   11  A    between atoms: O_17  and  C_18
REMARK   12  A    between atoms: C_18  and  C_20
REMARK   13  A    between atoms: C_26  and  N_27
REMARK   14  A    between atoms: C_26  and  C_28
REMARK   15  A    between atoms: C_28  and  O_30
REMARK                            x       y       z     vdW  Elec       q    Type
REMARK                         _______ _______ _______ _____ _____    ______ ____
ROOT
ATOM      1  O   UNL     1       1.845   8.220  20.028  0.00  0.00    +0.000 OA
ENDROOT
BRANCH   1   2
ATOM      2  C   UNL     1       1.262   9.375  20.692  0.00  0.00    +0.000 C 
ATOM      3  C   UNL     1       1.165   9.016  22.180  0.00  0.00    +0.000 C 
BRANCH   2   4
ATOM      4  O   UNL     1      -0.060   9.622  20.194  0.00  0.00    +0.000 OA
BRANCH   4   5
ATOM      5  C   UNL     1      -0.528  10.883  20.394  0.00  0.00    +0.000 C 
ATOM      6  O   UNL     1      -0.615  11.451  21.471  0.00  0.00    +0.000 OA
BRANCH   5   7
ATOM      7  O   UNL     1      -0.934  11.383  19.194  0.00  0.00    +0.000 OA
BRANCH   7  14
ATOM      8  C   UNL     1      -3.268  12.053  18.780  0.00  0.00    +0.000 C 
ATOM      9  C   UNL     1      -4.538  11.659  17.987  0.00  0.00    +0.000 C 
ATOM     10  C   UNL     1      -4.250  11.278  16.539  0.00  0.00    +0.000 C 
ATOM     11  C   UNL     1      -3.227  10.151  16.445  0.00  0.00    +0.000 C 
ATOM     12  C   UNL     1      -2.899   9.849  14.982  0.00  0.00    +0.000 C 
ATOM     13  C   UNL     1      -1.955  10.523  17.206  0.00  0.00    +0.000 C 
ATOM     14  C   UNL     1      -2.202  10.917  18.672  0.00  0.00    +0.000 C 
BRANCH   8  16
ATOM     15  C   UNL     1      -5.173  12.522  20.456  0.00  0.00    +0.000 C 
ATOM     16  C   UNL     1      -3.648  12.442  20.251  0.00  0.00    +0.000 C 
ATOM     17  C   UNL     1      -3.060  13.779  20.710  0.00  0.00    +0.000 C 
ENDBRANCH   8  16
ENDBRANCH   7  14
ENDBRANCH   5   7
ENDBRANCH   4   5
ENDBRANCH   2   4
ENDBRANCH   1   2
BRANCH   1  18
ATOM     18  C   UNL     1       2.070   8.354  18.692  0.00  0.00    +0.000 C 
ATOM     19  O   UNL     1       2.053   9.391  18.062  0.00  0.00    +0.000 OA
BRANCH  18  20
ATOM     20  C   UNL     1       2.321   7.032  17.991  0.00  0.00    +0.000 C 
ATOM     21  C   UNL     1       2.379   5.790  18.862  0.00  0.00    +0.000 C 
ATOM     22  C   UNL     1       3.629   6.280  18.152  0.00  0.00    +0.000 C 
ATOM     23  C   UNL     1       4.120   5.125  17.317  0.00  0.00    +0.000 C 
ATOM     24  C   UNL     1       3.580   3.899  18.074  0.00  0.00    +0.000 C 
ATOM     25  F   UNL     1       3.600   2.800  17.282  0.00  0.00    +0.000 F 
ATOM     26  C   UNL     1       2.140   4.336  18.443  0.00  0.00    +0.000 C 
BRANCH  26  27
ATOM     27  N   UNL     1       1.197   4.205  17.300  0.00  0.00    +0.000 NA
ATOM     28  H   UNL     1       1.716   4.236  16.420  0.00  0.00    +0.000 HD
ATOM     29  H   UNL     1       0.561   5.003  17.282  0.00  0.00    +0.000 HD
ENDBRANCH  26  27
BRANCH  26  30
ATOM     30  C   UNL     1       1.595   3.480  19.614  0.00  0.00    +0.000 C 
ATOM     31  O   UNL     1       1.751   2.280  19.736  0.00  0.00    +0.000 OA
BRANCH  30  32
ATOM     32  O   UNL     1       0.948   4.224  20.557  0.00  0.00    +0.000 OA
ATOM     33  H   UNL     1       1.585   4.855  20.965  0.00  0.00    +0.000 HD
ENDBRANCH  30  32
ENDBRANCH  26  30
ENDBRANCH  18  20
ENDBRANCH   1  18
TORSDOF 11
ENDMDL
