MODEL 1
REMARK VINA RESULT:      -7.8      0.000      0.000
REMARK  Name = 
REMARK  4 active torsions:
REMARK  status: ('A' for Active; 'I' for Inactive)
REMARK    1  A    between atoms: C_2  and  C_3
REMARK    2  A    between atoms: C_14  and  C_15
REMARK    3  A    between atoms: C_15  and  O_16
REMARK    4  A    between atoms: O_16  and  C_17
REMARK                            x       y       z     vdW  Elec       q    Type
REMARK                         _______ _______ _______ _____ _____    ______ ____
ROOT
ATOM      1  O   UNL     1       6.002   5.563  19.706  0.00  0.00    +0.000 OA
ATOM      2  C   UNL     1       5.604   4.722  18.890  0.00  0.00    +0.000 C 
ATOM      3  N   UNL     1       4.496   3.931  19.166  0.00  0.00    +0.000 N 
ATOM      4  C   UNL     1       3.860   3.009  18.284  0.00  0.00    +0.000 C 
ATOM      5  C   UNL     1       2.581   2.782  19.049  0.00  0.00    +0.000 C 
ATOM      6  C   UNL     1       1.558   2.101  18.202  0.00  0.00    +0.000 C 
ATOM      7  O   UNL     1       0.418   2.265  19.004  0.00  0.00    +0.000 OA
ATOM      8  C   UNL     1       0.604   3.497  19.714  0.00  0.00    +0.000 C 
ATOM      9  C   UNL     1       2.041   4.204  19.523  0.00  0.00    +0.000 C 
ATOM     10  C   UNL     1       3.555   4.243  20.234  0.00  0.00    +0.000 C 
ENDROOT
BRANCH   2  11
ATOM     11  C   UNL     1       6.263   4.599  17.588  0.00  0.00    +0.000 A 
ATOM     12  C   UNL     1       7.630   4.530  17.409  0.00  0.00    +0.000 A 
ATOM     13  O   UNL     1       7.895   4.481  16.075  0.00  0.00    +0.000 OA
ATOM     14  C   UNL     1       6.663   4.516  15.501  0.00  0.00    +0.000 A 
ATOM     15  N   UNL     1       5.655   4.583  16.341  0.00  0.00    +0.000 NA
ENDBRANCH   2  11
BRANCH   9  16
ATOM     16  C   UNL     1       1.648   5.346  20.563  0.00  0.00    +0.000 C 
BRANCH  16  17
ATOM     17  O   UNL     1       2.551   6.464  20.456  0.00  0.00    +0.000 OA
BRANCH  17  18
ATOM     18  C   UNL     1       2.116   7.537  19.731  0.00  0.00    +0.000 A 
ATOM     19  C   UNL     1       2.361   7.783  18.381  0.00  0.00    +0.000 A 
ATOM     20  C   UNL     1       1.838   8.930  17.788  0.00  0.00    +0.000 A 
ATOM     21  C   UNL     1       1.085   9.794  18.568  0.00  0.00    +0.000 A 
ATOM     22  N   UNL     1       0.831   9.593  19.877  0.00  0.00    +0.000 NA
ATOM     23  C   UNL     1       1.355   8.470  20.426  0.00  0.00    +0.000 A 
ENDBRANCH  17  18
ENDBRANCH  16  17
ENDBRANCH   9  16
TORSDOF 4
ENDMDL
MODEL 2
REMARK VINA RESULT:      -7.7      1.029      1.172
REMARK  Name = 
REMARK  4 active torsions:
REMARK  status: ('A' for Active; 'I' for Inactive)
REMARK    1  A    between atoms: C_2  and  C_3
REMARK    2  A    between atoms: C_14  and  C_15
REMARK    3  A    between atoms: C_15  and  O_16
REMARK    4  A    between atoms: O_16  and  C_17
REMARK                            x       y       z     vdW  Elec       q    Type
REMARK                         _______ _______ _______ _____ _____    ______ ____
ROOT
ATOM      1  O   UNL     1       6.156   6.226  18.624  0.00  0.00    +0.000 OA
ATOM      2  C   UNL     1       5.749   5.308  17.902  0.00  0.00    +0.000 C 
ATOM      3  N   UNL     1       4.821   4.388  18.373  0.00  0.00    +0.000 N 
ATOM      4  C   UNL     1       4.181   3.356  17.625  0.00  0.00    +0.000 C 
ATOM      5  C   UNL     1       3.089   2.991  18.599  0.00  0.00    +0.000 C 
ATOM      6  C   UNL     1       2.044   2.148  17.947  0.00  0.00    +0.000 C 
ATOM      7  O   UNL     1       1.039   2.190  18.928  0.00  0.00    +0.000 OA
ATOM      8  C   UNL     1       1.169   3.463  19.575  0.00  0.00    +0.000 C 
ATOM      9  C   UNL     1       2.444   4.347  19.134  0.00  0.00    +0.000 C 
ATOM     10  C   UNL     1       4.034   4.614  19.578  0.00  0.00    +0.000 C 
ENDROOT
BRANCH   2  11
ATOM     11  C   UNL     1       6.195   5.223  16.509  0.00  0.00    +0.000 A 
ATOM     12  C   UNL     1       5.503   5.746  15.436  0.00  0.00    +0.000 A 
ATOM     13  O   UNL     1       6.171   5.435  14.291  0.00  0.00    +0.000 OA
ATOM     14  C   UNL     1       7.252   4.737  14.729  0.00  0.00    +0.000 A 
ATOM     15  N   UNL     1       7.327   4.580  16.031  0.00  0.00    +0.000 NA
ENDBRANCH   2  11
BRANCH   9  16
ATOM     16  C   UNL     1       2.074   5.467  20.206  0.00  0.00    +0.000 C 
BRANCH  16  17
ATOM     17  O   UNL     1       2.833   6.668  19.969  0.00  0.00    +0.000 OA
BRANCH  17  18
ATOM     18  C   UNL     1       2.141   7.749  19.502  0.00  0.00    +0.000 A 
ATOM     19  C   UNL     1       2.140   8.235  18.196  0.00  0.00    +0.000 A 
ATOM     20  C   UNL     1       1.370   9.354  17.882  0.00  0.00    +0.000 A 
ATOM     21  C   UNL     1       0.626   9.949  18.888  0.00  0.00    +0.000 A 
ATOM     22  N   UNL     1       0.606   9.511  20.164  0.00  0.00    +0.000 NA
ATOM     23  C   UNL     1       1.365   8.424  20.439  0.00  0.00    +0.000 A 
ENDBRANCH  17  18
ENDBRANCH  16  17
ENDBRANCH   9  16
TORSDOF 4
ENDMDL
MODEL 3
REMARK VINA RESULT:      -7.6      1.123      1.473
REMARK  Name = 
REMARK  4 active torsions:
REMARK  status: ('A' for Active; 'I' for Inactive)
REMARK    1  A    between atoms: C_2  and  C_3
REMARK    2  A    between atoms: C_14  and  C_15
REMARK    3  A    between atoms: C_15  and  O_16
REMARK    4  A    between atoms: O_16  and  C_17
REMARK                            x       y       z     vdW  Elec       q    Type
REMARK                         _______ _______ _______ _____ _____    ______ ____
ROOT
ATOM      1  O   UNL     1       6.083   6.155  18.790  0.00  0.00    +0.000 OA
ATOM      2  C   UNL     1       5.696   5.256  18.034  0.00  0.00    +0.000 C 
ATOM      3  N   UNL     1       4.757   4.324  18.458  0.00  0.00    +0.000 N 
ATOM      4  C   UNL     1       4.137   3.310  17.669  0.00  0.00    +0.000 C 
ATOM      5  C   UNL     1       3.021   2.921  18.605  0.00  0.00    +0.000 C 
ATOM      6  C   UNL     1       1.994   2.094  17.906  0.00  0.00    +0.000 C 
ATOM      7  O   UNL     1       0.965   2.112  18.861  0.00  0.00    +0.000 OA
ATOM      8  C   UNL     1       1.076   3.368  19.543  0.00  0.00    +0.000 C 
ATOM      9  C   UNL     1       2.361   4.263  19.157  0.00  0.00    +0.000 C 
ATOM     10  C   UNL     1       3.939   4.519  19.649  0.00  0.00    +0.000 C 
ENDROOT
BRANCH   2  11
ATOM     11  C   UNL     1       6.177   5.205  16.651  0.00  0.00    +0.000 A 
ATOM     12  C   UNL     1       5.551   5.819  15.585  0.00  0.00    +0.000 A 
ATOM     13  O   UNL     1       6.233   5.519  14.446  0.00  0.00    +0.000 OA
ATOM     14  C   UNL     1       7.255   4.735  14.879  0.00  0.00    +0.000 A 
ATOM     15  N   UNL     1       7.281   4.513  16.174  0.00  0.00    +0.000 NA
ENDBRANCH   2  11
BRANCH   9  16
ATOM     16  C   UNL     1       1.963   5.355  20.247  0.00  0.00    +0.000 C 
BRANCH  16  17
ATOM     17  O   UNL     1       2.791   6.527  20.119  0.00  0.00    +0.000 OA
BRANCH  17  18
ATOM     18  C   UNL     1       2.208   7.633  19.570  0.00  0.00    +0.000 A 
ATOM     19  C   UNL     1       1.350   8.525  20.211  0.00  0.00    +0.000 A 
ATOM     20  C   UNL     1       0.841   9.613  19.504  0.00  0.00    +0.000 A 
ATOM     21  C   UNL     1       1.210   9.772  18.178  0.00  0.00    +0.000 A 
ATOM     22  N   UNL     1       2.033   8.929  17.523  0.00  0.00    +0.000 NA
ATOM     23  C   UNL     1       2.510   7.879  18.235  0.00  0.00    +0.000 A 
ENDBRANCH  17  18
ENDBRANCH  16  17
ENDBRANCH   9  16
TORSDOF 4
ENDMDL
MODEL 4
REMARK VINA RESULT:      -7.6      2.133      6.525
REMARK  Name = 
REMARK  4 active torsions:
REMARK  status: ('A' for Active; 'I' for Inactive)
REMARK    1  A    between atoms: C_2  and  C_3
REMARK    2  A    between atoms: C_14  and  C_15
REMARK    3  A    between atoms: C_15  and  O_16
REMARK    4  A    between atoms: O_16  and  C_17
REMARK                            x       y       z     vdW  Elec       q    Type
REMARK                         _______ _______ _______ _____ _____    ______ ____
ROOT
ATOM      1  O   UNL     1       1.867   8.967  19.132  0.00  0.00    +0.000 OA
ATOM      2  C   UNL     1       1.513   8.184  20.021  0.00  0.00    +0.000 C 
ATOM      3  N   UNL     1       1.720   6.816  19.891  0.00  0.00    +0.000 N 
ATOM      4  C   UNL     1       1.471   5.814  20.874  0.00  0.00    +0.000 C 
ATOM      5  C   UNL     1       2.218   4.665  20.245  0.00  0.00    +0.000 C 
ATOM      6  C   UNL     1       2.411   3.549  21.217  0.00  0.00    +0.000 C 
ATOM      7  O   UNL     1       3.344   2.766  20.519  0.00  0.00    +0.000 OA
ATOM      8  C   UNL     1       4.123   3.680  19.735  0.00  0.00    +0.000 C 
ATOM      9  C   UNL     1       3.630   5.215  19.754  0.00  0.00    +0.000 C 
ATOM     10  C   UNL     1       2.630   6.251  18.903  0.00  0.00    +0.000 C 
ENDROOT
BRANCH   2  11
ATOM     11  C   UNL     1       0.928   8.702  21.261  0.00  0.00    +0.000 A 
ATOM     12  C   UNL     1       1.656   9.258  22.293  0.00  0.00    +0.000 A 
ATOM     13  O   UNL     1       0.805   9.577  23.306  0.00  0.00    +0.000 OA
ATOM     14  C   UNL     1      -0.413   9.204  22.832  0.00  0.00    +0.000 A 
ATOM     15  N   UNL     1      -0.409   8.682  21.627  0.00  0.00    +0.000 NA
ENDBRANCH   2  11
BRANCH   9  16
ATOM     16  C   UNL     1       4.757   5.619  18.702  0.00  0.00    +0.000 C 
BRANCH  16  17
ATOM     17  O   UNL     1       5.394   4.443  18.164  0.00  0.00    +0.000 OA
BRANCH  17  18
ATOM     18  C   UNL     1       5.837   4.522  16.874  0.00  0.00    +0.000 A 
ATOM     19  C   UNL     1       5.252   3.929  15.757  0.00  0.00    +0.000 A 
ATOM     20  C   UNL     1       5.831   4.112  14.502  0.00  0.00    +0.000 A 
ATOM     21  C   UNL     1       6.978   4.884  14.409  0.00  0.00    +0.000 A 
ATOM     22  N   UNL     1       7.575   5.469  15.467  0.00  0.00    +0.000 NA
ATOM     23  C   UNL     1       6.991   5.271  16.673  0.00  0.00    +0.000 A 
ENDBRANCH  17  18
ENDBRANCH  16  17
ENDBRANCH   9  16
TORSDOF 4
ENDMDL
MODEL 5
REMARK VINA RESULT:      -7.5      0.664      1.175
REMARK  Name = 
REMARK  4 active torsions:
REMARK  status: ('A' for Active; 'I' for Inactive)
REMARK    1  A    between atoms: C_2  and  C_3
REMARK    2  A    between atoms: C_14  and  C_15
REMARK    3  A    between atoms: C_15  and  O_16
REMARK    4  A    between atoms: O_16  and  C_17
REMARK                            x       y       z     vdW  Elec       q    Type
REMARK                         _______ _______ _______ _____ _____    ______ ____
ROOT
ATOM      1  O   UNL     1       6.031   5.662  19.643  0.00  0.00    +0.000 OA
ATOM      2  C   UNL     1       5.623   4.796  18.860  0.00  0.00    +0.000 C 
ATOM      3  N   UNL     1       4.519   4.013  19.176  0.00  0.00    +0.000 N 
ATOM      4  C   UNL     1       3.871   3.064  18.331  0.00  0.00    +0.000 C 
ATOM      5  C   UNL     1       2.603   2.861  19.121  0.00  0.00    +0.000 C 
ATOM      6  C   UNL     1       1.569   2.154  18.310  0.00  0.00    +0.000 C 
ATOM      7  O   UNL     1       0.440   2.342  19.124  0.00  0.00    +0.000 OA
ATOM      8  C   UNL     1       0.636   3.595  19.793  0.00  0.00    +0.000 C 
ATOM      9  C   UNL     1       2.069   4.297  19.560  0.00  0.00    +0.000 C 
ATOM     10  C   UNL     1       3.593   4.358  20.247  0.00  0.00    +0.000 C 
ENDROOT
BRANCH   2  11
ATOM     11  C   UNL     1       6.263   4.634  17.552  0.00  0.00    +0.000 A 
ATOM     12  C   UNL     1       7.627   4.561  17.356  0.00  0.00    +0.000 A 
ATOM     13  O   UNL     1       7.872   4.471  16.020  0.00  0.00    +0.000 OA
ATOM     14  C   UNL     1       6.632   4.486  15.463  0.00  0.00    +0.000 A 
ATOM     15  N   UNL     1       5.637   4.577  16.316  0.00  0.00    +0.000 NA
ENDBRANCH   2  11
BRANCH   9  16
ATOM     16  C   UNL     1       1.690   5.470  20.570  0.00  0.00    +0.000 C 
BRANCH  16  17
ATOM     17  O   UNL     1       2.386   6.684  20.223  0.00  0.00    +0.000 OA
BRANCH  17  18
ATOM     18  C   UNL     1       1.654   7.836  20.240  0.00  0.00    +0.000 A 
ATOM     19  C   UNL     1       0.831   8.284  21.272  0.00  0.00    +0.000 A 
ATOM     20  C   UNL     1       0.152   9.493  21.130  0.00  0.00    +0.000 A 
ATOM     21  C   UNL     1       0.319  10.213  19.958  0.00  0.00    +0.000 A 
ATOM     22  N   UNL     1       1.101   9.810  18.936  0.00  0.00    +0.000 NA
ATOM     23  C   UNL     1       1.747   8.631  19.102  0.00  0.00    +0.000 A 
ENDBRANCH  17  18
ENDBRANCH  16  17
ENDBRANCH   9  16
TORSDOF 4
ENDMDL
MODEL 6
REMARK VINA RESULT:      -7.2      2.957      7.020
REMARK  Name = 
REMARK  4 active torsions:
REMARK  status: ('A' for Active; 'I' for Inactive)
REMARK    1  A    between atoms: C_2  and  C_3
REMARK    2  A    between atoms: C_14  and  C_15
REMARK    3  A    between atoms: C_15  and  O_16
REMARK    4  A    between atoms: O_16  and  C_17
REMARK                            x       y       z     vdW  Elec       q    Type
REMARK                         _______ _______ _______ _____ _____    ______ ____
ROOT
ATOM      1  O   UNL     1       2.501   3.038  16.878  0.00  0.00    +0.000 OA
ATOM      2  C   UNL     1       3.001   3.354  17.965  0.00  0.00    +0.000 C 
ATOM      3  N   UNL     1       4.337   3.726  18.053  0.00  0.00    +0.000 N 
ATOM      4  C   UNL     1       5.015   4.220  19.206  0.00  0.00    +0.000 C 
ATOM      5  C   UNL     1       6.266   4.744  18.548  0.00  0.00    +0.000 C 
ATOM      6  C   UNL     1       7.036   5.624  19.475  0.00  0.00    +0.000 C 
ATOM      7  O   UNL     1       7.951   6.196  18.576  0.00  0.00    +0.000 OA
ATOM      8  C   UNL     1       7.277   6.264  17.312  0.00  0.00    +0.000 C 
ATOM      9  C   UNL     1       5.826   5.563  17.253  0.00  0.00    +0.000 C 
ATOM     10  C   UNL     1       5.130   4.087  16.885  0.00  0.00    +0.000 C 
ENDROOT
BRANCH   2  11
ATOM     11  C   UNL     1       2.165   3.403  19.167  0.00  0.00    +0.000 A 
ATOM     12  C   UNL     1       1.862   2.308  19.950  0.00  0.00    +0.000 A 
ATOM     13  O   UNL     1       1.021   2.702  20.945  0.00  0.00    +0.000 OA
ATOM     14  C   UNL     1       0.857   4.032  20.721  0.00  0.00    +0.000 A 
ATOM     15  N   UNL     1       1.510   4.510  19.686  0.00  0.00    +0.000 NA
ENDBRANCH   2  11
BRANCH   9  16
ATOM     16  C   UNL     1       5.704   5.882  15.696  0.00  0.00    +0.000 C 
BRANCH  16  17
ATOM     17  O   UNL     1       6.963   5.659  15.032  0.00  0.00    +0.000 OA
BRANCH  17  18
ATOM     18  C   UNL     1       6.922   4.961  13.859  0.00  0.00    +0.000 A 
ATOM     19  C   UNL     1       7.714   5.180  12.733  0.00  0.00    +0.000 A 
ATOM     20  C   UNL     1       7.547   4.370  11.611  0.00  0.00    +0.000 A 
ATOM     21  C   UNL     1       6.592   3.367  11.654  0.00  0.00    +0.000 A 
ATOM     22  N   UNL     1       5.804   3.129  12.722  0.00  0.00    +0.000 NA
ATOM     23  C   UNL     1       5.987   3.933  13.796  0.00  0.00    +0.000 A 
ENDBRANCH  17  18
ENDBRANCH  16  17
ENDBRANCH   9  16
TORSDOF 4
ENDMDL
MODEL 7
REMARK VINA RESULT:      -7.2      2.954      7.058
REMARK  Name = 
REMARK  4 active torsions:
REMARK  status: ('A' for Active; 'I' for Inactive)
REMARK    1  A    between atoms: C_2  and  C_3
REMARK    2  A    between atoms: C_14  and  C_15
REMARK    3  A    between atoms: C_15  and  O_16
REMARK    4  A    between atoms: O_16  and  C_17
REMARK                            x       y       z     vdW  Elec       q    Type
REMARK                         _______ _______ _______ _____ _____    ______ ____
ROOT
ATOM      1  O   UNL     1       2.499   3.093  16.865  0.00  0.00    +0.000 OA
ATOM      2  C   UNL     1       3.001   3.388  17.956  0.00  0.00    +0.000 C 
ATOM      3  N   UNL     1       4.337   3.758  18.050  0.00  0.00    +0.000 N 
ATOM      4  C   UNL     1       5.017   4.230  19.211  0.00  0.00    +0.000 C 
ATOM      5  C   UNL     1       6.267   4.765  18.560  0.00  0.00    +0.000 C 
ATOM      6  C   UNL     1       7.040   5.628  19.502  0.00  0.00    +0.000 C 
ATOM      7  O   UNL     1       7.954   6.216  18.612  0.00  0.00    +0.000 OA
ATOM      8  C   UNL     1       7.278   6.307  17.351  0.00  0.00    +0.000 C 
ATOM      9  C   UNL     1       5.826   5.608  17.282  0.00  0.00    +0.000 C 
ATOM     10  C   UNL     1       5.129   4.140  16.887  0.00  0.00    +0.000 C 
ENDROOT
BRANCH   2  11
ATOM     11  C   UNL     1       2.166   3.416  19.160  0.00  0.00    +0.000 A 
ATOM     12  C   UNL     1       1.834   2.302  19.903  0.00  0.00    +0.000 A 
ATOM     13  O   UNL     1       1.003   2.681  20.912  0.00  0.00    +0.000 OA
ATOM     14  C   UNL     1       0.876   4.023  20.737  0.00  0.00    +0.000 A 
ATOM     15  N   UNL     1       1.542   4.521  19.720  0.00  0.00    +0.000 NA
ENDBRANCH   2  11
BRANCH   9  16
ATOM     16  C   UNL     1       5.703   5.956  15.731  0.00  0.00    +0.000 C 
BRANCH  16  17
ATOM     17  O   UNL     1       6.913   5.602  15.033  0.00  0.00    +0.000 OA
BRANCH  17  18
ATOM     18  C   UNL     1       6.770   4.853  13.900  0.00  0.00    +0.000 A 
ATOM     19  C   UNL     1       5.843   3.834  13.688  0.00  0.00    +0.000 A 
ATOM     20  C   UNL     1       5.828   3.166  12.465  0.00  0.00    +0.000 A 
ATOM     21  C   UNL     1       6.742   3.541  11.494  0.00  0.00    +0.000 A 
ATOM     22  N   UNL     1       7.657   4.517  11.664  0.00  0.00    +0.000 NA
ATOM     23  C   UNL     1       7.649   5.147  12.863  0.00  0.00    +0.000 A 
ENDBRANCH  17  18
ENDBRANCH  16  17
ENDBRANCH   9  16
TORSDOF 4
ENDMDL
MODEL 8
REMARK VINA RESULT:      -7.1      2.162      5.722
REMARK  Name = 
REMARK  4 active torsions:
REMARK  status: ('A' for Active; 'I' for Inactive)
REMARK    1  A    between atoms: C_2  and  C_3
REMARK    2  A    between atoms: C_14  and  C_15
REMARK    3  A    between atoms: C_15  and  O_16
REMARK    4  A    between atoms: O_16  and  C_17
REMARK                            x       y       z     vdW  Elec       q    Type
REMARK                         _______ _______ _______ _____ _____    ______ ____
ROOT
ATOM      1  O   UNL     1       2.436   7.768  17.923  0.00  0.00    +0.000 OA
ATOM      2  C   UNL     1       2.007   7.379  19.016  0.00  0.00    +0.000 C 
ATOM      3  N   UNL     1       1.984   6.026  19.332  0.00  0.00    +0.000 N 
ATOM      4  C   UNL     1       1.627   5.443  20.583  0.00  0.00    +0.000 C 
ATOM      5  C   UNL     1       2.145   4.046  20.359  0.00  0.00    +0.000 C 
ATOM      6  C   UNL     1       2.207   3.280  21.638  0.00  0.00    +0.000 C 
ATOM      7  O   UNL     1       2.964   2.170  21.230  0.00  0.00    +0.000 OA
ATOM      8  C   UNL     1       3.839   2.643  20.197  0.00  0.00    +0.000 C 
ATOM      9  C   UNL     1       3.601   4.165  19.721  0.00  0.00    +0.000 C 
ATOM     10  C   UNL     1       2.739   5.031  18.580  0.00  0.00    +0.000 C 
ENDROOT
BRANCH   2  11
ATOM     11  C   UNL     1       1.578   8.354  20.022  0.00  0.00    +0.000 A 
ATOM     12  C   UNL     1       1.042   9.591  19.728  0.00  0.00    +0.000 A 
ATOM     13  O   UNL     1       0.813  10.256  20.894  0.00  0.00    +0.000 OA
ATOM     14  C   UNL     1       1.217   9.378  21.850  0.00  0.00    +0.000 A 
ATOM     15  N   UNL     1       1.678   8.233  21.400  0.00  0.00    +0.000 NA
ENDBRANCH   2  11
BRANCH   9  16
ATOM     16  C   UNL     1       4.722   4.018  18.598  0.00  0.00    +0.000 C 
BRANCH  16  17
ATOM     17  O   UNL     1       6.023   4.334  19.133  0.00  0.00    +0.000 OA
BRANCH  17  18
ATOM     18  C   UNL     1       6.626   5.461  18.653  0.00  0.00    +0.000 A 
ATOM     19  C   UNL     1       7.762   6.080  19.170  0.00  0.00    +0.000 A 
ATOM     20  C   UNL     1       8.255   7.230  18.555  0.00  0.00    +0.000 A 
ATOM     21  C   UNL     1       7.593   7.721  17.442  0.00  0.00    +0.000 A 
ATOM     22  N   UNL     1       6.489   7.153  16.916  0.00  0.00    +0.000 NA
ATOM     23  C   UNL     1       6.032   6.038  17.536  0.00  0.00    +0.000 A 
ENDBRANCH  17  18
ENDBRANCH  16  17
ENDBRANCH   9  16
TORSDOF 4
ENDMDL
MODEL 9
REMARK VINA RESULT:      -7.1      2.659      6.772
REMARK  Name = 
REMARK  4 active torsions:
REMARK  status: ('A' for Active; 'I' for Inactive)
REMARK    1  A    between atoms: C_2  and  C_3
REMARK    2  A    between atoms: C_14  and  C_15
REMARK    3  A    between atoms: C_15  and  O_16
REMARK    4  A    between atoms: O_16  and  C_17
REMARK                            x       y       z     vdW  Elec       q    Type
REMARK                         _______ _______ _______ _____ _____    ______ ____
ROOT
ATOM      1  O   UNL     1       5.165   2.150  20.097  0.00  0.00    +0.000 OA
ATOM      2  C   UNL     1       4.298   3.032  20.077  0.00  0.00    +0.000 C 
ATOM      3  N   UNL     1       4.554   4.269  19.499  0.00  0.00    +0.000 N 
ATOM      4  C   UNL     1       3.625   5.333  19.301  0.00  0.00    +0.000 C 
ATOM      5  C   UNL     1       4.425   6.182  18.347  0.00  0.00    +0.000 C 
ATOM      6  C   UNL     1       3.569   7.220  17.699  0.00  0.00    +0.000 C 
ATOM      7  O   UNL     1       4.435   7.662  16.686  0.00  0.00    +0.000 OA
ATOM      8  C   UNL     1       5.240   6.531  16.328  0.00  0.00    +0.000 C 
ATOM      9  C   UNL     1       5.046   5.216  17.242  0.00  0.00    +0.000 C 
ATOM     10  C   UNL     1       5.687   4.502  18.612  0.00  0.00    +0.000 C 
ENDROOT
BRANCH   2  11
ATOM     11  C   UNL     1       2.961   2.755  20.607  0.00  0.00    +0.000 A 
ATOM     12  C   UNL     1       1.848   2.515  19.827  0.00  0.00    +0.000 A 
ATOM     13  O   UNL     1       0.769   2.355  20.642  0.00  0.00    +0.000 OA
ATOM     14  C   UNL     1       1.285   2.500  21.891  0.00  0.00    +0.000 A 
ATOM     15  N   UNL     1       2.576   2.736  21.940  0.00  0.00    +0.000 NA
ENDBRANCH   2  11
BRANCH   9  16
ATOM     16  C   UNL     1       6.199   4.458  16.444  0.00  0.00    +0.000 C 
BRANCH  16  17
ATOM     17  O   UNL     1       5.655   3.760  15.307  0.00  0.00    +0.000 OA
BRANCH  17  18
ATOM     18  C   UNL     1       6.241   4.007  14.098  0.00  0.00    +0.000 A 
ATOM     19  C   UNL     1       5.962   3.366  12.893  0.00  0.00    +0.000 A 
ATOM     20  C   UNL     1       6.653   3.742  11.742  0.00  0.00    +0.000 A 
ATOM     21  C   UNL     1       7.600   4.749  11.837  0.00  0.00    +0.000 A 
ATOM     22  N   UNL     1       7.901   5.388  12.986  0.00  0.00    +0.000 NA
ATOM     23  C   UNL     1       7.215   4.999  14.088  0.00  0.00    +0.000 A 
ENDBRANCH  17  18
ENDBRANCH  16  17
ENDBRANCH   9  16
TORSDOF 4
ENDMDL
