MODEL 1
REMARK VINA RESULT:      -7.1      0.000      0.000
REMARK  Name = 
REMARK  9 active torsions:
REMARK  status: ('A' for Active; 'I' for Inactive)
REMARK    1  A    between atoms: C_1  and  N_2
REMARK    2  A    between atoms: N_2  and  C_3
REMARK    3  A    between atoms: N_2  and  S_16
REMARK    4  A    between atoms: C_3  and  C_4
REMARK    5  A    between atoms: N_6  and  C_7
REMARK    6  A    between atoms: C_7  and  C_8
REMARK    7  A    between atoms: C_8  and  C_9
REMARK    8  A    between atoms: C_9  and  N_10
REMARK    9  A    between atoms: S_16  and  C_19
REMARK                            x       y       z     vdW  Elec       q    Type
REMARK                         _______ _______ _______ _____ _____    ______ ____
ROOT
ATOM      1  C   UNL     1       3.059   6.142  19.405  0.00  0.00    +0.000 C 
ENDROOT
BRANCH   1   2
ATOM      2  C   UNL     1       2.933   7.267  18.379  0.00  0.00    +0.000 C 
ATOM      3  O   UNL     1       3.631   7.322  17.370  0.00  0.00    +0.000 OA
ATOM      4  N   UNL     1       1.988   8.221  18.693  0.00  0.00    +0.000 N 
ATOM      5  H   UNL     1       1.592   8.200  19.626  0.00  0.00    +0.000 HD
BRANCH   4   6
ATOM      6  C   UNL     1       1.739   9.392  17.859  0.00  0.00    +0.000 C 
BRANCH   6   7
ATOM      7  C   UNL     1       0.622  10.229  18.477  0.00  0.00    +0.000 C 
BRANCH   7   8
ATOM      8  C   UNL     1       0.098   9.717  19.827  0.00  0.00    +0.000 C 
BRANCH   8   9
ATOM      9  N   UNL     1       0.866  10.312  20.937  0.00  0.00    +0.000 NA
ATOM     10  C   UNL     1       0.972   9.456  22.141  0.00  0.00    +0.000 C 
ATOM     11  C   UNL     1      -0.295   9.422  23.008  0.00  0.00    +0.000 C 
ATOM     12  O   UNL     1      -0.677  10.739  23.411  0.00  0.00    +0.000 OA
ATOM     13  C   UNL     1      -0.896  11.574  22.269  0.00  0.00    +0.000 C 
ATOM     14  C   UNL     1       0.346  11.632  21.360  0.00  0.00    +0.000 C 
ENDBRANCH   8   9
ENDBRANCH   7   8
ENDBRANCH   6   7
ENDBRANCH   4   6
ENDBRANCH   1   2
BRANCH   1  16
ATOM     15  C   UNL     1       2.437   3.762  19.207  0.00  0.00    +0.000 C 
ATOM     16  N   UNL     1       3.383   4.826  18.773  0.00  0.00    +0.000 NA
BRANCH  16  17
ATOM     17  S   UNL     1       5.033   4.404  18.987  0.00  0.00    +0.000 S 
ATOM     18  O   UNL     1       5.674   5.470  19.726  0.00  0.00    +0.000 OA
ATOM     19  O   UNL     1       5.079   3.034  19.448  0.00  0.00    +0.000 OA
BRANCH  17  20
ATOM     20  C   UNL     1       5.670   4.468  17.328  0.00  0.00    +0.000 A 
ATOM     21  C   UNL     1       4.798   4.188  16.266  0.00  0.00    +0.000 A 
ATOM     22  C   UNL     1       5.279   4.213  14.959  0.00  0.00    +0.000 A 
ATOM     23  C   UNL     1       6.617   4.519  14.724  0.00  0.00    +0.000 A 
ATOM     24  F   UNL     1       7.074   4.539  13.471  0.00  0.00    +0.000 F 
ATOM     25  C   UNL     1       7.485   4.814  15.777  0.00  0.00    +0.000 A 
ATOM     26  C   UNL     1       7.009   4.792  17.091  0.00  0.00    +0.000 A 
ENDBRANCH  17  20
ENDBRANCH  16  17
ENDBRANCH   1  16
TORSDOF 8
ENDMDL
MODEL 2
REMARK VINA RESULT:      -6.9      5.387      7.349
REMARK  Name = 
REMARK  9 active torsions:
REMARK  status: ('A' for Active; 'I' for Inactive)
REMARK    1  A    between atoms: C_1  and  N_2
REMARK    2  A    between atoms: N_2  and  C_3
REMARK    3  A    between atoms: N_2  and  S_16
REMARK    4  A    between atoms: C_3  and  C_4
REMARK    5  A    between atoms: N_6  and  C_7
REMARK    6  A    between atoms: C_7  and  C_8
REMARK    7  A    between atoms: C_8  and  C_9
REMARK    8  A    between atoms: C_9  and  N_10
REMARK    9  A    between atoms: S_16  and  C_19
REMARK                            x       y       z     vdW  Elec       q    Type
REMARK                         _______ _______ _______ _____ _____    ______ ____
ROOT
ATOM      1  C   UNL     1       7.326   4.690  17.670  0.00  0.00    +0.000 C 
ENDROOT
BRANCH   1   2
ATOM      2  C   UNL     1       7.538   6.082  17.077  0.00  0.00    +0.000 C 
ATOM      3  O   UNL     1       7.638   6.277  15.868  0.00  0.00    +0.000 OA
ATOM      4  N   UNL     1       7.627   7.092  18.012  0.00  0.00    +0.000 N 
ATOM      5  H   UNL     1       7.721   6.823  18.986  0.00  0.00    +0.000 HD
BRANCH   4   6
ATOM      6  C   UNL     1       7.862   8.486  17.651  0.00  0.00    +0.000 C 
BRANCH   6   7
ATOM      7  C   UNL     1       8.784   9.131  18.682  0.00  0.00    +0.000 C 
BRANCH   7   8
ATOM      8  C   UNL     1       8.997  10.642  18.507  0.00  0.00    +0.000 C 
BRANCH   8   9
ATOM      9  N   UNL     1      10.350  11.026  18.952  0.00  0.00    +0.000 NA
ATOM     10  C   UNL     1      10.390  11.757  20.239  0.00  0.00    +0.000 C 
ATOM     11  C   UNL     1       9.979  13.233  20.144  0.00  0.00    +0.000 C 
ATOM     12  O   UNL     1      10.788  13.931  19.192  0.00  0.00    +0.000 OA
ATOM     13  C   UNL     1      10.692  13.318  17.902  0.00  0.00    +0.000 C 
ATOM     14  C   UNL     1      11.085  11.830  17.949  0.00  0.00    +0.000 C 
ENDBRANCH   8   9
ENDBRANCH   7   8
ENDBRANCH   6   7
ENDBRANCH   4   6
ENDBRANCH   1   2
BRANCH   1  16
ATOM     15  C   UNL     1       5.459   4.001  16.209  0.00  0.00    +0.000 C 
ATOM     16  N   UNL     1       5.896   4.255  17.609  0.00  0.00    +0.000 NA
BRANCH  16  17
ATOM     17  S   UNL     1       4.865   5.328  18.465  0.00  0.00    +0.000 S 
ATOM     18  O   UNL     1       5.437   5.546  19.777  0.00  0.00    +0.000 OA
ATOM     19  O   UNL     1       4.557   6.433  17.584  0.00  0.00    +0.000 OA
BRANCH  17  20
ATOM     20  C   UNL     1       3.394   4.357  18.695  0.00  0.00    +0.000 A 
ATOM     21  C   UNL     1       2.349   4.497  17.770  0.00  0.00    +0.000 A 
ATOM     22  C   UNL     1       1.180   3.760  17.941  0.00  0.00    +0.000 A 
ATOM     23  C   UNL     1       1.064   2.892  19.023  0.00  0.00    +0.000 A 
ATOM     24  F   UNL     1      -0.059   2.191  19.185  0.00  0.00    +0.000 F 
ATOM     25  C   UNL     1       2.108   2.738  19.937  0.00  0.00    +0.000 A 
ATOM     26  C   UNL     1       3.285   3.472  19.772  0.00  0.00    +0.000 A 
ENDBRANCH  17  20
ENDBRANCH  16  17
ENDBRANCH   1  16
TORSDOF 8
ENDMDL
MODEL 3
REMARK VINA RESULT:      -6.8      4.113      5.392
REMARK  Name = 
REMARK  9 active torsions:
REMARK  status: ('A' for Active; 'I' for Inactive)
REMARK    1  A    between atoms: C_1  and  N_2
REMARK    2  A    between atoms: N_2  and  C_3
REMARK    3  A    between atoms: N_2  and  S_16
REMARK    4  A    between atoms: C_3  and  C_4
REMARK    5  A    between atoms: N_6  and  C_7
REMARK    6  A    between atoms: C_7  and  C_8
REMARK    7  A    between atoms: C_8  and  C_9
REMARK    8  A    between atoms: C_9  and  N_10
REMARK    9  A    between atoms: S_16  and  C_19
REMARK                            x       y       z     vdW  Elec       q    Type
REMARK                         _______ _______ _______ _____ _____    ______ ____
ROOT
ATOM      1  C   UNL     1       5.641   4.740  19.005  0.00  0.00    +0.000 C 
ENDROOT
BRANCH   1   2
ATOM      2  C   UNL     1       4.952   3.382  19.131  0.00  0.00    +0.000 C 
ATOM      3  O   UNL     1       5.132   2.636  20.090  0.00  0.00    +0.000 OA
ATOM      4  N   UNL     1       4.131   3.060  18.071  0.00  0.00    +0.000 N 
ATOM      5  H   UNL     1       4.184   3.642  17.242  0.00  0.00    +0.000 HD
BRANCH   4   6
ATOM      6  C   UNL     1       3.410   1.794  17.985  0.00  0.00    +0.000 C 
BRANCH   6   7
ATOM      7  C   UNL     1       1.925   2.035  18.241  0.00  0.00    +0.000 C 
BRANCH   7   8
ATOM      8  C   UNL     1       1.523   3.511  18.387  0.00  0.00    +0.000 C 
BRANCH   8   9
ATOM      9  N   UNL     1       0.740   3.712  19.621  0.00  0.00    +0.000 NA
ATOM     10  C   UNL     1       1.099   4.928  20.386  0.00  0.00    +0.000 C 
ATOM     11  C   UNL     1       2.394   4.805  21.202  0.00  0.00    +0.000 C 
ATOM     12  O   UNL     1       2.331   3.696  22.102  0.00  0.00    +0.000 OA
ATOM     13  C   UNL     1       2.093   2.478  21.388  0.00  0.00    +0.000 C 
ATOM     14  C   UNL     1       0.807   2.556  20.544  0.00  0.00    +0.000 C 
ENDBRANCH   8   9
ENDBRANCH   7   8
ENDBRANCH   6   7
ENDBRANCH   4   6
ENDBRANCH   1   2
BRANCH   1  16
ATOM     15  C   UNL     1       7.949   5.022  18.177  0.00  0.00    +0.000 C 
ATOM     16  N   UNL     1       6.523   4.824  17.799  0.00  0.00    +0.000 NA
BRANCH  16  17
ATOM     17  S   UNL     1       5.948   5.978  16.666  0.00  0.00    +0.000 S 
ATOM     18  O   UNL     1       4.511   6.069  16.813  0.00  0.00    +0.000 OA
ATOM     19  O   UNL     1       6.791   7.148  16.766  0.00  0.00    +0.000 OA
BRANCH  17  20
ATOM     20  C   UNL     1       6.260   5.182  15.106  0.00  0.00    +0.000 A 
ATOM     21  C   UNL     1       5.330   4.245  14.636  0.00  0.00    +0.000 A 
ATOM     22  C   UNL     1       5.563   3.596  13.426  0.00  0.00    +0.000 A 
ATOM     23  C   UNL     1       6.714   3.888  12.699  0.00  0.00    +0.000 A 
ATOM     24  F   UNL     1       6.936   3.261  11.542  0.00  0.00    +0.000 F 
ATOM     25  C   UNL     1       7.635   4.832  13.156  0.00  0.00    +0.000 A 
ATOM     26  C   UNL     1       7.407   5.489  14.368  0.00  0.00    +0.000 A 
ENDBRANCH  17  20
ENDBRANCH  16  17
ENDBRANCH   1  16
TORSDOF 8
ENDMDL
MODEL 4
REMARK VINA RESULT:      -6.7      0.886      1.325
REMARK  Name = 
REMARK  9 active torsions:
REMARK  status: ('A' for Active; 'I' for Inactive)
REMARK    1  A    between atoms: C_1  and  N_2
REMARK    2  A    between atoms: N_2  and  C_3
REMARK    3  A    between atoms: N_2  and  S_16
REMARK    4  A    between atoms: C_3  and  C_4
REMARK    5  A    between atoms: N_6  and  C_7
REMARK    6  A    between atoms: C_7  and  C_8
REMARK    7  A    between atoms: C_8  and  C_9
REMARK    8  A    between atoms: C_9  and  N_10
REMARK    9  A    between atoms: S_16  and  C_19
REMARK                            x       y       z     vdW  Elec       q    Type
REMARK                         _______ _______ _______ _____ _____    ______ ____
ROOT
ATOM      1  C   UNL     1       2.711   5.892  19.068  0.00  0.00    +0.000 C 
ENDROOT
BRANCH   1   2
ATOM      2  C   UNL     1       2.901   7.162  18.240  0.00  0.00    +0.000 C 
ATOM      3  O   UNL     1       3.800   7.283  17.412  0.00  0.00    +0.000 OA
ATOM      4  N   UNL     1       1.994   8.162  18.517  0.00  0.00    +0.000 N 
ATOM      5  H   UNL     1       1.408   8.051  19.337  0.00  0.00    +0.000 HD
BRANCH   4   6
ATOM      6  C   UNL     1       2.027   9.464  17.859  0.00  0.00    +0.000 C 
BRANCH   6   7
ATOM      7  C   UNL     1       1.057  10.413  18.558  0.00  0.00    +0.000 C 
BRANCH   7   8
ATOM      8  C   UNL     1       1.059  10.330  20.092  0.00  0.00    +0.000 C 
BRANCH   8   9
ATOM      9  N   UNL     1      -0.271   9.934  20.588  0.00  0.00    +0.000 NA
ATOM     10  C   UNL     1      -1.101  11.054  21.089  0.00  0.00    +0.000 C 
ATOM     11  C   UNL     1      -0.708  11.560  22.485  0.00  0.00    +0.000 C 
ATOM     12  O   UNL     1      -0.739  10.499  23.443  0.00  0.00    +0.000 OA
ATOM     13  C   UNL     1       0.137   9.437  23.050  0.00  0.00    +0.000 C 
ATOM     14  C   UNL     1      -0.212   8.902  21.648  0.00  0.00    +0.000 C 
ENDBRANCH   8   9
ENDBRANCH   7   8
ENDBRANCH   6   7
ENDBRANCH   4   6
ENDBRANCH   1   2
BRANCH   1  16
ATOM     15  C   UNL     1       1.447   3.901  18.339  0.00  0.00    +0.000 C 
ATOM     16  N   UNL     1       2.725   4.654  18.227  0.00  0.00    +0.000 NA
BRANCH  16  17
ATOM     17  S   UNL     1       4.116   3.694  18.528  0.00  0.00    +0.000 S 
ATOM     18  O   UNL     1       4.722   4.160  19.757  0.00  0.00    +0.000 OA
ATOM     19  O   UNL     1       3.738   2.309  18.352  0.00  0.00    +0.000 OA
BRANCH  17  20
ATOM     20  C   UNL     1       5.206   4.159  17.203  0.00  0.00    +0.000 A 
ATOM     21  C   UNL     1       4.720   4.108  15.889  0.00  0.00    +0.000 A 
ATOM     22  C   UNL     1       5.562   4.450  14.833  0.00  0.00    +0.000 A 
ATOM     23  C   UNL     1       6.873   4.841  15.096  0.00  0.00    +0.000 A 
ATOM     24  F   UNL     1       7.677   5.164  14.082  0.00  0.00    +0.000 F 
ATOM     25  C   UNL     1       7.355   4.908  16.404  0.00  0.00    +0.000 A 
ATOM     26  C   UNL     1       6.516   4.569  17.469  0.00  0.00    +0.000 A 
ENDBRANCH  17  20
ENDBRANCH  16  17
ENDBRANCH   1  16
TORSDOF 8
ENDMDL
MODEL 5
REMARK VINA RESULT:      -6.7      5.198      7.348
REMARK  Name = 
REMARK  9 active torsions:
REMARK  status: ('A' for Active; 'I' for Inactive)
REMARK    1  A    between atoms: C_1  and  N_2
REMARK    2  A    between atoms: N_2  and  C_3
REMARK    3  A    between atoms: N_2  and  S_16
REMARK    4  A    between atoms: C_3  and  C_4
REMARK    5  A    between atoms: N_6  and  C_7
REMARK    6  A    between atoms: C_7  and  C_8
REMARK    7  A    between atoms: C_8  and  C_9
REMARK    8  A    between atoms: C_9  and  N_10
REMARK    9  A    between atoms: S_16  and  C_19
REMARK                            x       y       z     vdW  Elec       q    Type
REMARK                         _______ _______ _______ _____ _____    ______ ____
ROOT
ATOM      1  C   UNL     1       6.799   4.385  17.206  0.00  0.00    +0.000 C 
ENDROOT
BRANCH   1   2
ATOM      2  C   UNL     1       6.946   5.807  16.667  0.00  0.00    +0.000 C 
ATOM      3  O   UNL     1       6.637   6.114  15.518  0.00  0.00    +0.000 OA
ATOM      4  N   UNL     1       7.471   6.707  17.570  0.00  0.00    +0.000 N 
ATOM      5  H   UNL     1       7.869   6.335  18.426  0.00  0.00    +0.000 HD
BRANCH   4   6
ATOM      6  C   UNL     1       7.721   8.106  17.240  0.00  0.00    +0.000 C 
BRANCH   6   7
ATOM      7  C   UNL     1       8.450   8.781  18.399  0.00  0.00    +0.000 C 
BRANCH   7   8
ATOM      8  C   UNL     1       8.579  10.307  18.283  0.00  0.00    +0.000 C 
BRANCH   8   9
ATOM      9  N   UNL     1       9.865  10.759  18.845  0.00  0.00    +0.000 NA
ATOM     10  C   UNL     1       9.745  11.625  20.040  0.00  0.00    +0.000 C 
ATOM     11  C   UNL     1       9.345  13.076  19.734  0.00  0.00    +0.000 C 
ATOM     12  O   UNL     1      10.262  13.680  18.818  0.00  0.00    +0.000 OA
ATOM     13  C   UNL     1      10.327  12.930  17.600  0.00  0.00    +0.000 C 
ATOM     14  C   UNL     1      10.715  11.461  17.857  0.00  0.00    +0.000 C 
ENDBRANCH   8   9
ENDBRANCH   7   8
ENDBRANCH   6   7
ENDBRANCH   4   6
ENDBRANCH   1   2
BRANCH   1  16
ATOM     15  C   UNL     1       4.451   3.872  16.643  0.00  0.00    +0.000 C 
ATOM     16  N   UNL     1       5.428   4.115  17.739  0.00  0.00    +0.000 NA
BRANCH  16  17
ATOM     17  S   UNL     1       4.926   5.324  18.850  0.00  0.00    +0.000 S 
ATOM     18  O   UNL     1       6.014   5.559  19.776  0.00  0.00    +0.000 OA
ATOM     19  O   UNL     1       4.339   6.402  18.087  0.00  0.00    +0.000 OA
BRANCH  17  20
ATOM     20  C   UNL     1       3.637   4.505  19.762  0.00  0.00    +0.000 A 
ATOM     21  C   UNL     1       3.851   3.184  20.181  0.00  0.00    +0.000 A 
ATOM     22  C   UNL     1       2.848   2.516  20.879  0.00  0.00    +0.000 A 
ATOM     23  C   UNL     1       1.650   3.169  21.157  0.00  0.00    +0.000 A 
ATOM     24  F   UNL     1       0.691   2.525  21.824  0.00  0.00    +0.000 F 
ATOM     25  C   UNL     1       1.440   4.490  20.756  0.00  0.00    +0.000 A 
ATOM     26  C   UNL     1       2.441   5.167  20.056  0.00  0.00    +0.000 A 
ENDBRANCH  17  20
ENDBRANCH  16  17
ENDBRANCH   1  16
TORSDOF 8
ENDMDL
MODEL 6
REMARK VINA RESULT:      -6.6      5.668      7.359
REMARK  Name = 
REMARK  9 active torsions:
REMARK  status: ('A' for Active; 'I' for Inactive)
REMARK    1  A    between atoms: C_1  and  N_2
REMARK    2  A    between atoms: N_2  and  C_3
REMARK    3  A    between atoms: N_2  and  S_16
REMARK    4  A    between atoms: C_3  and  C_4
REMARK    5  A    between atoms: N_6  and  C_7
REMARK    6  A    between atoms: C_7  and  C_8
REMARK    7  A    between atoms: C_8  and  C_9
REMARK    8  A    between atoms: C_9  and  N_10
REMARK    9  A    between atoms: S_16  and  C_19
REMARK                            x       y       z     vdW  Elec       q    Type
REMARK                         _______ _______ _______ _____ _____    ______ ____
ROOT
ATOM      1  C   UNL     1       7.349   5.708  18.217  0.00  0.00    +0.000 C 
ENDROOT
BRANCH   1   2
ATOM      2  C   UNL     1       7.794   7.019  17.572  0.00  0.00    +0.000 C 
ATOM      3  O   UNL     1       7.862   7.167  16.355  0.00  0.00    +0.000 OA
ATOM      4  N   UNL     1       8.132   8.009  18.470  0.00  0.00    +0.000 N 
ATOM      5  H   UNL     1       8.226   7.747  19.445  0.00  0.00    +0.000 HD
BRANCH   4   6
ATOM      6  C   UNL     1       8.613   9.323  18.056  0.00  0.00    +0.000 C 
BRANCH   6   7
ATOM      7  C   UNL     1       9.127  10.085  19.274  0.00  0.00    +0.000 C 
BRANCH   7   8
ATOM      8  C   UNL     1      10.203  11.140  18.974  0.00  0.00    +0.000 C 
BRANCH   8   9
ATOM      9  N   UNL     1       9.812  11.956  17.809  0.00  0.00    +0.000 NA
ATOM     10  C   UNL     1      10.920  12.727  17.198  0.00  0.00    +0.000 C 
ATOM     11  C   UNL     1      11.319  13.989  17.976  0.00  0.00    +0.000 C 
ATOM     12  O   UNL     1      10.197  14.858  18.156  0.00  0.00    +0.000 OA
ATOM     13  C   UNL     1       9.139  14.181  18.843  0.00  0.00    +0.000 C 
ATOM     14  C   UNL     1       8.710  12.899  18.105  0.00  0.00    +0.000 C 
ENDBRANCH   8   9
ENDBRANCH   7   8
ENDBRANCH   6   7
ENDBRANCH   4   6
ENDBRANCH   1   2
BRANCH   1  16
ATOM     15  C   UNL     1       5.444   4.811  19.505  0.00  0.00    +0.000 C 
ATOM     16  N   UNL     1       5.860   5.593  18.309  0.00  0.00    +0.000 NA
BRANCH  16  17
ATOM     17  S   UNL     1       5.173   5.021  16.843  0.00  0.00    +0.000 S 
ATOM     18  O   UNL     1       4.690   6.165  16.100  0.00  0.00    +0.000 OA
ATOM     19  O   UNL     1       6.105   4.083  16.260  0.00  0.00    +0.000 OA
BRANCH  17  20
ATOM     20  C   UNL     1       3.742   4.126  17.406  0.00  0.00    +0.000 A 
ATOM     21  C   UNL     1       2.546   4.831  17.596  0.00  0.00    +0.000 A 
ATOM     22  C   UNL     1       1.418   4.155  18.055  0.00  0.00    +0.000 A 
ATOM     23  C   UNL     1       1.491   2.789  18.314  0.00  0.00    +0.000 A 
ATOM     24  F   UNL     1       0.410   2.146  18.756  0.00  0.00    +0.000 F 
ATOM     25  C   UNL     1       2.677   2.080  18.111  0.00  0.00    +0.000 A 
ATOM     26  C   UNL     1       3.813   2.751  17.649  0.00  0.00    +0.000 A 
ENDBRANCH  17  20
ENDBRANCH  16  17
ENDBRANCH   1  16
TORSDOF 8
ENDMDL
MODEL 7
REMARK VINA RESULT:      -6.6      4.177      5.579
REMARK  Name = 
REMARK  9 active torsions:
REMARK  status: ('A' for Active; 'I' for Inactive)
REMARK    1  A    between atoms: C_1  and  N_2
REMARK    2  A    between atoms: N_2  and  C_3
REMARK    3  A    between atoms: N_2  and  S_16
REMARK    4  A    between atoms: C_3  and  C_4
REMARK    5  A    between atoms: N_6  and  C_7
REMARK    6  A    between atoms: C_7  and  C_8
REMARK    7  A    between atoms: C_8  and  C_9
REMARK    8  A    between atoms: C_9  and  N_10
REMARK    9  A    between atoms: S_16  and  C_19
REMARK                            x       y       z     vdW  Elec       q    Type
REMARK                         _______ _______ _______ _____ _____    ______ ____
ROOT
ATOM      1  C   UNL     1       5.382   4.937  18.268  0.00  0.00    +0.000 C 
ENDROOT
BRANCH   1   2
ATOM      2  C   UNL     1       4.854   3.589  18.755  0.00  0.00    +0.000 C 
ATOM      3  O   UNL     1       5.141   3.125  19.856  0.00  0.00    +0.000 OA
ATOM      4  N   UNL     1       4.049   2.932  17.849  0.00  0.00    +0.000 N 
ATOM      5  H   UNL     1       4.015   3.294  16.902  0.00  0.00    +0.000 HD
BRANCH   4   6
ATOM      6  C   UNL     1       3.474   1.617  18.109  0.00  0.00    +0.000 C 
BRANCH   6   7
ATOM      7  C   UNL     1       1.989   1.764  18.431  0.00  0.00    +0.000 C 
BRANCH   7   8
ATOM      8  C   UNL     1       1.477   3.212  18.482  0.00  0.00    +0.000 C 
BRANCH   8   9
ATOM      9  N   UNL     1       0.755   3.459  19.744  0.00  0.00    +0.000 NA
ATOM     10  C   UNL     1       0.978   4.801  20.328  0.00  0.00    +0.000 C 
ATOM     11  C   UNL     1       2.328   4.965  21.043  0.00  0.00    +0.000 C 
ATOM     12  O   UNL     1       2.488   3.982  22.070  0.00  0.00    +0.000 OA
ATOM     13  C   UNL     1       2.387   2.662  21.526  0.00  0.00    +0.000 C 
ATOM     14  C   UNL     1       1.051   2.452  20.788  0.00  0.00    +0.000 C 
ENDBRANCH   8   9
ENDBRANCH   7   8
ENDBRANCH   6   7
ENDBRANCH   4   6
ENDBRANCH   1   2
BRANCH   1  16
ATOM     15  C   UNL     1       7.839   4.722  18.178  0.00  0.00    +0.000 C 
ATOM     16  N   UNL     1       6.582   4.797  17.385  0.00  0.00    +0.000 NA
BRANCH  16  17
ATOM     17  S   UNL     1       6.616   5.997  16.158  0.00  0.00    +0.000 S 
ATOM     18  O   UNL     1       5.386   6.756  16.242  0.00  0.00    +0.000 OA
ATOM     19  O   UNL     1       7.906   6.646  16.216  0.00  0.00    +0.000 OA
BRANCH  17  20
ATOM     20  C   UNL     1       6.529   5.033  14.667  0.00  0.00    +0.000 A 
ATOM     21  C   UNL     1       7.546   5.185  13.713  0.00  0.00    +0.000 A 
ATOM     22  C   UNL     1       7.488   4.455  12.529  0.00  0.00    +0.000 A 
ATOM     23  C   UNL     1       6.427   3.580  12.309  0.00  0.00    +0.000 A 
ATOM     24  F   UNL     1       6.375   2.884  11.172  0.00  0.00    +0.000 F 
ATOM     25  C   UNL     1       5.422   3.413  13.264  0.00  0.00    +0.000 A 
ATOM     26  C   UNL     1       5.473   4.142  14.455  0.00  0.00    +0.000 A 
ENDBRANCH  17  20
ENDBRANCH  16  17
ENDBRANCH   1  16
TORSDOF 8
ENDMDL
MODEL 8
REMARK VINA RESULT:      -6.5      6.289      7.879
REMARK  Name = 
REMARK  9 active torsions:
REMARK  status: ('A' for Active; 'I' for Inactive)
REMARK    1  A    between atoms: C_1  and  N_2
REMARK    2  A    between atoms: N_2  and  C_3
REMARK    3  A    between atoms: N_2  and  S_16
REMARK    4  A    between atoms: C_3  and  C_4
REMARK    5  A    between atoms: N_6  and  C_7
REMARK    6  A    between atoms: C_7  and  C_8
REMARK    7  A    between atoms: C_8  and  C_9
REMARK    8  A    between atoms: C_9  and  N_10
REMARK    9  A    between atoms: S_16  and  C_19
REMARK                            x       y       z     vdW  Elec       q    Type
REMARK                         _______ _______ _______ _____ _____    ______ ____
ROOT
ATOM      1  C   UNL     1       7.824   6.729  17.972  0.00  0.00    +0.000 C 
ENDROOT
BRANCH   1   2
ATOM      2  C   UNL     1       7.796   8.249  17.823  0.00  0.00    +0.000 C 
ATOM      3  O   UNL     1       7.019   8.826  17.067  0.00  0.00    +0.000 OA
ATOM      4  N   UNL     1       8.729   8.913  18.592  0.00  0.00    +0.000 N 
ATOM      5  H   UNL     1       9.449   8.358  19.041  0.00  0.00    +0.000 HD
BRANCH   4   6
ATOM      6  C   UNL     1       8.886  10.363  18.567  0.00  0.00    +0.000 C 
BRANCH   6   7
ATOM      7  C   UNL     1      10.023  10.769  19.501  0.00  0.00    +0.000 C 
BRANCH   7   8
ATOM      8  C   UNL     1      10.071  12.263  19.855  0.00  0.00    +0.000 C 
BRANCH   8   9
ATOM      9  N   UNL     1      11.397  12.825  19.536  0.00  0.00    +0.000 NA
ATOM     10  C   UNL     1      11.467  14.303  19.581  0.00  0.00    +0.000 C 
ATOM     11  C   UNL     1      10.853  15.004  18.360  0.00  0.00    +0.000 C 
ATOM     12  O   UNL     1      11.461  14.551  17.148  0.00  0.00    +0.000 OA
ATOM     13  C   UNL     1      11.321  13.132  17.012  0.00  0.00    +0.000 C 
ATOM     14  C   UNL     1      11.913  12.384  18.220  0.00  0.00    +0.000 C 
ENDBRANCH   8   9
ENDBRANCH   7   8
ENDBRANCH   6   7
ENDBRANCH   4   6
ENDBRANCH   1   2
BRANCH   1  16
ATOM     15  C   UNL     1       6.355   5.304  19.352  0.00  0.00    +0.000 C 
ATOM     16  N   UNL     1       6.455   6.145  18.129  0.00  0.00    +0.000 NA
BRANCH  16  17
ATOM     17  S   UNL     1       5.935   5.345  16.701  0.00  0.00    +0.000 S 
ATOM     18  O   UNL     1       5.680   6.352  15.693  0.00  0.00    +0.000 OA
ATOM     19  O   UNL     1       6.846   4.249  16.458  0.00  0.00    +0.000 OA
BRANCH  17  20
ATOM     20  C   UNL     1       4.358   4.679  17.180  0.00  0.00    +0.000 A 
ATOM     21  C   UNL     1       3.354   5.567  17.590  0.00  0.00    +0.000 A 
ATOM     22  C   UNL     1       2.116   5.067  17.988  0.00  0.00    +0.000 A 
ATOM     23  C   UNL     1       1.891   3.693  17.970  0.00  0.00    +0.000 A 
ATOM     24  F   UNL     1       0.706   3.217  18.354  0.00  0.00    +0.000 F 
ATOM     25  C   UNL     1       2.883   2.806  17.546  0.00  0.00    +0.000 A 
ATOM     26  C   UNL     1       4.126   3.300  17.144  0.00  0.00    +0.000 A 
ENDBRANCH  17  20
ENDBRANCH  16  17
ENDBRANCH   1  16
TORSDOF 8
ENDMDL
MODEL 9
REMARK VINA RESULT:      -6.4      3.433      5.224
REMARK  Name = 
REMARK  9 active torsions:
REMARK  status: ('A' for Active; 'I' for Inactive)
REMARK    1  A    between atoms: C_1  and  N_2
REMARK    2  A    between atoms: N_2  and  C_3
REMARK    3  A    between atoms: N_2  and  S_16
REMARK    4  A    between atoms: C_3  and  C_4
REMARK    5  A    between atoms: N_6  and  C_7
REMARK    6  A    between atoms: C_7  and  C_8
REMARK    7  A    between atoms: C_8  and  C_9
REMARK    8  A    between atoms: C_9  and  N_10
REMARK    9  A    between atoms: S_16  and  C_19
REMARK                            x       y       z     vdW  Elec       q    Type
REMARK                         _______ _______ _______ _____ _____    ______ ____
ROOT
ATOM      1  C   UNL     1       5.048   6.803  16.887  0.00  0.00    +0.000 C 
ENDROOT
BRANCH   1   2
ATOM      2  C   UNL     1       3.818   7.132  17.732  0.00  0.00    +0.000 C 
ATOM      3  O   UNL     1       3.113   8.115  17.518  0.00  0.00    +0.000 OA
ATOM      4  N   UNL     1       3.581   6.247  18.762  0.00  0.00    +0.000 N 
ATOM      5  H   UNL     1       4.310   5.576  18.981  0.00  0.00    +0.000 HD
BRANCH   4   6
ATOM      6  C   UNL     1       2.477   6.403  19.702  0.00  0.00    +0.000 C 
BRANCH   6   7
ATOM      7  C   UNL     1       2.270   5.099  20.468  0.00  0.00    +0.000 C 
BRANCH   7   8
ATOM      8  C   UNL     1       0.904   4.430  20.252  0.00  0.00    +0.000 C 
BRANCH   8   9
ATOM      9  N   UNL     1       1.019   2.967  20.403  0.00  0.00    +0.000 NA
ATOM     10  C   UNL     1       2.230   2.515  21.125  0.00  0.00    +0.000 C 
ATOM     11  C   UNL     1       3.517   2.551  20.288  0.00  0.00    +0.000 C 
ATOM     12  O   UNL     1       3.376   1.776  19.095  0.00  0.00    +0.000 OA
ATOM     13  C   UNL     1       2.277   2.251  18.311  0.00  0.00    +0.000 C 
ATOM     14  C   UNL     1       0.961   2.244  19.112  0.00  0.00    +0.000 C 
ENDBRANCH   8   9
ENDBRANCH   7   8
ENDBRANCH   6   7
ENDBRANCH   4   6
ENDBRANCH   1   2
BRANCH   1  16
ATOM     15  C   UNL     1       7.377   7.352  17.496  0.00  0.00    +0.000 C 
ATOM     16  N   UNL     1       6.232   6.429  17.723  0.00  0.00    +0.000 NA
BRANCH  16  17
ATOM     17  S   UNL     1       6.641   4.771  17.542  0.00  0.00    +0.000 S 
ATOM     18  O   UNL     1       8.015   4.602  17.966  0.00  0.00    +0.000 OA
ATOM     19  O   UNL     1       5.571   3.991  18.124  0.00  0.00    +0.000 OA
BRANCH  17  20
ATOM     20  C   UNL     1       6.611   4.552  15.778  0.00  0.00    +0.000 A 
ATOM     21  C   UNL     1       5.583   3.780  15.218  0.00  0.00    +0.000 A 
ATOM     22  C   UNL     1       5.550   3.578  13.840  0.00  0.00    +0.000 A 
ATOM     23  C   UNL     1       6.535   4.148  13.037  0.00  0.00    +0.000 A 
ATOM     24  F   UNL     1       6.501   3.951  11.719  0.00  0.00    +0.000 F 
ATOM     25  C   UNL     1       7.551   4.931  13.589  0.00  0.00    +0.000 A 
ATOM     26  C   UNL     1       7.589   5.139  14.970  0.00  0.00    +0.000 A 
ENDBRANCH  17  20
ENDBRANCH  16  17
ENDBRANCH   1  16
TORSDOF 8
ENDMDL
