MODEL 1
REMARK VINA RESULT:      -7.7      0.000      0.000
REMARK  Name = 
REMARK  11 active torsions:
REMARK  status: ('A' for Active; 'I' for Inactive)
REMARK    1  A    between atoms: C_1  and  C_2
REMARK    2  A    between atoms: C_2  and  O_3
REMARK    3  A    between atoms: O_3  and  C_4
REMARK    4  A    between atoms: C_6  and  C_7
REMARK    5  A    between atoms: C_7  and  N_8
REMARK    6  A    between atoms: C_9  and  C_11
REMARK    7  A    between atoms: C_14  and  S_15
REMARK    8  A    between atoms: S_15  and  N_16
REMARK    9  A    between atoms: C_21  and  O_22
REMARK   10  A    between atoms: C_23  and  O_24
REMARK   11  A    between atoms: C_25  and  O_26
REMARK                            x       y       z     vdW  Elec       q    Type
REMARK                         _______ _______ _______ _____ _____    ______ ____
ROOT
ATOM      1  C   UNL     1       1.063   7.965  21.241  0.00  0.00    +0.000 C 
ENDROOT
BRANCH   1   4
ATOM      2  C   UNL     1      -0.129  11.100  19.572  0.00  0.00    +0.000 C 
ATOM      3  O   UNL     1       0.055   9.706  19.866  0.00  0.00    +0.000 OA
ATOM      4  C   UNL     1       0.779   9.469  21.085  0.00  0.00    +0.000 C 
ATOM      5  C   UNL     1      -0.048   9.971  22.272  0.00  0.00    +0.000 C 
ATOM      6  C   UNL     1      -0.271  11.474  22.096  0.00  0.00    +0.000 C 
ATOM      7  C   UNL     1      -0.891  11.803  20.731  0.00  0.00    +0.000 C 
BRANCH   5   8
ATOM      8  O   UNL     1       0.604   9.688  23.512  0.00  0.00    +0.000 OA
ATOM      9  H   UNL     1       1.476  10.122  23.514  0.00  0.00    +0.000 HD
ENDBRANCH   5   8
BRANCH   6  10
ATOM     10  O   UNL     1      -1.078  11.985  23.164  0.00  0.00    +0.000 OA
ATOM     11  H   UNL     1      -0.541  11.995  23.976  0.00  0.00    +0.000 HD
ENDBRANCH   6  10
BRANCH   7  12
ATOM     12  O   UNL     1      -0.912  13.235  20.586  0.00  0.00    +0.000 OA
ATOM     13  H   UNL     1      -1.756  13.571  20.936  0.00  0.00    +0.000 HD
ENDBRANCH   7  12
BRANCH   2  14
ATOM     14  O   UNL     1      -0.846  11.167  18.328  0.00  0.00    +0.000 OA
BRANCH  14  16
ATOM     15  C   UNL     1      -2.696   9.879  17.485  0.00  0.00    +0.000 C 
ATOM     16  C   UNL     1      -2.253  10.971  18.439  0.00  0.00    +0.000 C 
ENDBRANCH  14  16
ENDBRANCH   2  14
ENDBRANCH   1   4
BRANCH   1  17
ATOM     17  N   UNL     1       2.102   7.483  20.352  0.00  0.00    +0.000 N 
ATOM     18  C   UNL     1       2.279   6.144  20.083  0.00  0.00    +0.000 C 
ATOM     19  O   UNL     1       1.578   5.252  20.546  0.00  0.00    +0.000 OA
ATOM     20  H   UNL     1       2.580   8.171  19.788  0.00  0.00    +0.000 HD
BRANCH  18  21
ATOM     21  C   UNL     1       3.389   5.821  19.152  0.00  0.00    +0.000 A 
ATOM     22  C   UNL     1       4.254   4.744  19.403  0.00  0.00    +0.000 A 
ATOM     23  C   UNL     1       5.313   4.483  18.535  0.00  0.00    +0.000 A 
ATOM     24  C   UNL     1       5.489   5.284  17.403  0.00  0.00    +0.000 A 
ATOM     25  C   UNL     1       4.619   6.348  17.130  0.00  0.00    +0.000 A 
ATOM     26  C   UNL     1       3.561   6.608  18.006  0.00  0.00    +0.000 A 
BRANCH  24  27
ATOM     27  S   UNL     1       6.862   4.974  16.333  0.00  0.00    +0.000 S 
ATOM     28  O   UNL     1       6.489   3.990  15.351  0.00  0.00    +0.000 OA
ATOM     29  O   UNL     1       7.475   6.233  15.981  0.00  0.00    +0.000 OA
BRANCH  27  30
ATOM     30  N   UNL     1       7.933   4.210  17.377  0.00  0.00    +0.000 NA
ATOM     31  H   UNL     1       7.695   4.439  18.342  0.00  0.00    +0.000 HD
ATOM     32  H   UNL     1       7.954   3.209  17.181  0.00  0.00    +0.000 HD
ENDBRANCH  27  30
ENDBRANCH  24  27
ENDBRANCH  18  21
ENDBRANCH   1  17
TORSDOF 10
ENDMDL
MODEL 2
REMARK VINA RESULT:      -7.5      0.903      1.321
REMARK  Name = 
REMARK  11 active torsions:
REMARK  status: ('A' for Active; 'I' for Inactive)
REMARK    1  A    between atoms: C_1  and  C_2
REMARK    2  A    between atoms: C_2  and  O_3
REMARK    3  A    between atoms: O_3  and  C_4
REMARK    4  A    between atoms: C_6  and  C_7
REMARK    5  A    between atoms: C_7  and  N_8
REMARK    6  A    between atoms: C_9  and  C_11
REMARK    7  A    between atoms: C_14  and  S_15
REMARK    8  A    between atoms: S_15  and  N_16
REMARK    9  A    between atoms: C_21  and  O_22
REMARK   10  A    between atoms: C_23  and  O_24
REMARK   11  A    between atoms: C_25  and  O_26
REMARK                            x       y       z     vdW  Elec       q    Type
REMARK                         _______ _______ _______ _____ _____    ______ ____
ROOT
ATOM      1  C   UNL     1       0.845   8.066  21.348  0.00  0.00    +0.000 C 
ENDROOT
BRANCH   1   4
ATOM      2  C   UNL     1      -0.641  11.163  19.853  0.00  0.00    +0.000 C 
ATOM      3  O   UNL     1      -0.351   9.776  20.091  0.00  0.00    +0.000 OA
ATOM      4  C   UNL     1       0.458   9.552  21.257  0.00  0.00    +0.000 C 
ATOM      5  C   UNL     1      -0.326   9.966  22.506  0.00  0.00    +0.000 C 
ATOM      6  C   UNL     1      -0.653  11.456  22.391  0.00  0.00    +0.000 C 
ATOM      7  C   UNL     1      -1.374  11.782  21.076  0.00  0.00    +0.000 C 
BRANCH   5   8
ATOM      8  O   UNL     1       0.416   9.691  23.695  0.00  0.00    +0.000 OA
ATOM      9  H   UNL     1       1.342   9.507  23.453  0.00  0.00    +0.000 HD
ENDBRANCH   5   8
BRANCH   6  10
ATOM     10  O   UNL     1      -1.426  11.883  23.520  0.00  0.00    +0.000 OA
ATOM     11  H   UNL     1      -1.672  12.816  23.386  0.00  0.00    +0.000 HD
ENDBRANCH   6  10
BRANCH   7  12
ATOM     12  O   UNL     1      -1.494  13.213  20.978  0.00  0.00    +0.000 OA
ATOM     13  H   UNL     1      -0.997  13.619  21.709  0.00  0.00    +0.000 HD
ENDBRANCH   7  12
BRANCH   2  14
ATOM     14  O   UNL     1      -1.434  11.218  18.655  0.00  0.00    +0.000 OA
BRANCH  14  16
ATOM     15  C   UNL     1      -2.393  10.137  16.731  0.00  0.00    +0.000 C 
ATOM     16  C   UNL     1      -1.355  10.057  17.834  0.00  0.00    +0.000 C 
ENDBRANCH  14  16
ENDBRANCH   2  14
ENDBRANCH   1   4
BRANCH   1  17
ATOM     17  N   UNL     1       1.939   7.704  20.468  0.00  0.00    +0.000 N 
ATOM     18  C   UNL     1       2.180   6.403  20.089  0.00  0.00    +0.000 C 
ATOM     19  O   UNL     1       1.496   5.448  20.438  0.00  0.00    +0.000 OA
ATOM     20  H   UNL     1       2.413   8.457  19.989  0.00  0.00    +0.000 HD
BRANCH  18  21
ATOM     21  C   UNL     1       3.341   6.205  19.185  0.00  0.00    +0.000 A 
ATOM     22  C   UNL     1       3.456   6.928  17.986  0.00  0.00    +0.000 A 
ATOM     23  C   UNL     1       4.535   6.698  17.135  0.00  0.00    +0.000 A 
ATOM     24  C   UNL     1       5.511   5.765  17.496  0.00  0.00    +0.000 A 
ATOM     25  C   UNL     1       5.418   5.054  18.699  0.00  0.00    +0.000 A 
ATOM     26  C   UNL     1       4.333   5.285  19.549  0.00  0.00    +0.000 A 
BRANCH  24  27
ATOM     27  S   UNL     1       6.851   5.447  16.388  0.00  0.00    +0.000 S 
ATOM     28  O   UNL     1       7.673   4.394  16.923  0.00  0.00    +0.000 OA
ATOM     29  O   UNL     1       6.346   5.431  15.035  0.00  0.00    +0.000 OA
BRANCH  27  30
ATOM     30  N   UNL     1       7.748   6.860  16.533  0.00  0.00    +0.000 NA
ATOM     31  H   UNL     1       7.300   7.608  16.005  0.00  0.00    +0.000 HD
ATOM     32  H   UNL     1       7.894   7.079  17.520  0.00  0.00    +0.000 HD
ENDBRANCH  27  30
ENDBRANCH  24  27
ENDBRANCH  18  21
ENDBRANCH   1  17
TORSDOF 10
ENDMDL
MODEL 3
REMARK VINA RESULT:      -7.5      3.120      8.665
REMARK  Name = 
REMARK  11 active torsions:
REMARK  status: ('A' for Active; 'I' for Inactive)
REMARK    1  A    between atoms: C_1  and  C_2
REMARK    2  A    between atoms: C_2  and  O_3
REMARK    3  A    between atoms: O_3  and  C_4
REMARK    4  A    between atoms: C_6  and  C_7
REMARK    5  A    between atoms: C_7  and  N_8
REMARK    6  A    between atoms: C_9  and  C_11
REMARK    7  A    between atoms: C_14  and  S_15
REMARK    8  A    between atoms: S_15  and  N_16
REMARK    9  A    between atoms: C_21  and  O_22
REMARK   10  A    between atoms: C_23  and  O_24
REMARK   11  A    between atoms: C_25  and  O_26
REMARK                            x       y       z     vdW  Elec       q    Type
REMARK                         _______ _______ _______ _____ _____    ______ ____
ROOT
ATOM      1  C   UNL     1       4.523   4.048  18.836  0.00  0.00    +0.000 C 
ENDROOT
BRANCH   1   4
ATOM      2  C   UNL     1       5.973   4.183  15.385  0.00  0.00    +0.000 C 
ATOM      3  O   UNL     1       5.012   4.135  16.451  0.00  0.00    +0.000 OA
ATOM      4  C   UNL     1       5.598   4.264  17.756  0.00  0.00    +0.000 C 
ATOM      5  C   UNL     1       6.213   5.658  17.902  0.00  0.00    +0.000 C 
ATOM      6  C   UNL     1       7.302   5.812  16.838  0.00  0.00    +0.000 C 
ATOM      7  C   UNL     1       6.767   5.519  15.430  0.00  0.00    +0.000 C 
BRANCH   5   8
ATOM      8  O   UNL     1       6.744   5.854  19.215  0.00  0.00    +0.000 OA
ATOM      9  H   UNL     1       6.223   5.325  19.846  0.00  0.00    +0.000 HD
ENDBRANCH   5   8
BRANCH   6  10
ATOM     10  O   UNL     1       7.881   7.121  16.906  0.00  0.00    +0.000 OA
ATOM     11  H   UNL     1       7.253   7.754  16.515  0.00  0.00    +0.000 HD
ENDBRANCH   6  10
BRANCH   7  12
ATOM     12  O   UNL     1       7.884   5.526  14.521  0.00  0.00    +0.000 OA
ATOM     13  H   UNL     1       8.702   5.646  15.033  0.00  0.00    +0.000 HD
ENDBRANCH   7  12
BRANCH   2  14
ATOM     14  O   UNL     1       5.238   4.025  14.159  0.00  0.00    +0.000 OA
BRANCH  14  16
ATOM     15  C   UNL     1       5.081   3.180  11.913  0.00  0.00    +0.000 C 
ATOM     16  C   UNL     1       6.002   3.523  13.067  0.00  0.00    +0.000 C 
ENDBRANCH  14  16
ENDBRANCH   2  14
ENDBRANCH   1   4
BRANCH   1  17
ATOM     17  N   UNL     1       3.860   5.274  19.238  0.00  0.00    +0.000 N 
ATOM     18  C   UNL     1       2.690   5.704  18.653  0.00  0.00    +0.000 C 
ATOM     19  O   UNL     1       2.100   5.095  17.768  0.00  0.00    +0.000 OA
ATOM     20  H   UNL     1       4.182   5.714  20.088  0.00  0.00    +0.000 HD
BRANCH  18  21
ATOM     21  C   UNL     1       2.144   6.980  19.181  0.00  0.00    +0.000 A 
ATOM     22  C   UNL     1       1.773   7.106  20.529  0.00  0.00    +0.000 A 
ATOM     23  C   UNL     1       1.227   8.301  20.993  0.00  0.00    +0.000 A 
ATOM     24  C   UNL     1       1.079   9.378  20.114  0.00  0.00    +0.000 A 
ATOM     25  C   UNL     1       1.466   9.271  18.772  0.00  0.00    +0.000 A 
ATOM     26  C   UNL     1       2.009   8.069  18.310  0.00  0.00    +0.000 A 
BRANCH  24  27
ATOM     27  S   UNL     1       0.342  10.874  20.701  0.00  0.00    +0.000 S 
ATOM     28  O   UNL     1      -0.925  11.070  20.047  0.00  0.00    +0.000 OA
ATOM     29  O   UNL     1       0.500  10.943  22.134  0.00  0.00    +0.000 OA
BRANCH  27  30
ATOM     30  N   UNL     1       1.381  12.030  20.063  0.00  0.00    +0.000 NA
ATOM     31  H   UNL     1       1.064  12.301  19.132  0.00  0.00    +0.000 HD
ATOM     32  H   UNL     1       1.473  12.812  20.713  0.00  0.00    +0.000 HD
ENDBRANCH  27  30
ENDBRANCH  24  27
ENDBRANCH  18  21
ENDBRANCH   1  17
TORSDOF 10
ENDMDL
MODEL 4
REMARK VINA RESULT:      -7.4      3.145      8.751
REMARK  Name = 
REMARK  11 active torsions:
REMARK  status: ('A' for Active; 'I' for Inactive)
REMARK    1  A    between atoms: C_1  and  C_2
REMARK    2  A    between atoms: C_2  and  O_3
REMARK    3  A    between atoms: O_3  and  C_4
REMARK    4  A    between atoms: C_6  and  C_7
REMARK    5  A    between atoms: C_7  and  N_8
REMARK    6  A    between atoms: C_9  and  C_11
REMARK    7  A    between atoms: C_14  and  S_15
REMARK    8  A    between atoms: S_15  and  N_16
REMARK    9  A    between atoms: C_21  and  O_22
REMARK   10  A    between atoms: C_23  and  O_24
REMARK   11  A    between atoms: C_25  and  O_26
REMARK                            x       y       z     vdW  Elec       q    Type
REMARK                         _______ _______ _______ _____ _____    ______ ____
ROOT
ATOM      1  C   UNL     1       3.982   4.266  18.352  0.00  0.00    +0.000 C 
ENDROOT
BRANCH   1   4
ATOM      2  C   UNL     1       5.780   4.241  15.066  0.00  0.00    +0.000 C 
ATOM      3  O   UNL     1       4.717   4.301  16.029  0.00  0.00    +0.000 OA
ATOM      4  C   UNL     1       5.178   4.360  17.389  0.00  0.00    +0.000 C 
ATOM      5  C   UNL     1       5.929   5.676  17.613  0.00  0.00    +0.000 C 
ATOM      6  C   UNL     1       7.129   5.707  16.666  0.00  0.00    +0.000 C 
ATOM      7  C   UNL     1       6.711   5.479  15.207  0.00  0.00    +0.000 C 
BRANCH   5   8
ATOM      8  O   UNL     1       6.342   5.808  18.975  0.00  0.00    +0.000 OA
ATOM      9  H   UNL     1       6.157   6.717  19.273  0.00  0.00    +0.000 HD
ENDBRANCH   5   8
BRANCH   6  10
ATOM     10  O   UNL     1       7.842   6.942  16.808  0.00  0.00    +0.000 OA
ATOM     11  H   UNL     1       8.560   6.958  16.150  0.00  0.00    +0.000 HD
ENDBRANCH   6  10
BRANCH   7  12
ATOM     12  O   UNL     1       7.906   5.361  14.415  0.00  0.00    +0.000 OA
ATOM     13  H   UNL     1       8.675   5.339  15.011  0.00  0.00    +0.000 HD
ENDBRANCH   7  12
BRANCH   2  14
ATOM     14  O   UNL     1       5.159   4.169  13.771  0.00  0.00    +0.000 OA
BRANCH  14  16
ATOM     15  C   UNL     1       4.950   3.067  11.643  0.00  0.00    +0.000 C 
ATOM     16  C   UNL     1       5.857   3.370  12.820  0.00  0.00    +0.000 C 
ENDBRANCH  14  16
ENDBRANCH   2  14
ENDBRANCH   1   4
BRANCH   1  17
ATOM     17  N   UNL     1       3.308   5.534  18.555  0.00  0.00    +0.000 N 
ATOM     18  C   UNL     1       2.677   5.852  19.736  0.00  0.00    +0.000 C 
ATOM     19  O   UNL     1       2.641   5.117  20.715  0.00  0.00    +0.000 OA
ATOM     20  H   UNL     1       3.471   6.256  17.868  0.00  0.00    +0.000 HD
BRANCH  18  21
ATOM     21  C   UNL     1       2.036   7.190  19.777  0.00  0.00    +0.000 A 
ATOM     22  C   UNL     1       2.041   8.031  18.652  0.00  0.00    +0.000 A 
ATOM     23  C   UNL     1       1.467   9.298  18.725  0.00  0.00    +0.000 A 
ATOM     24  C   UNL     1       0.863   9.712  19.916  0.00  0.00    +0.000 A 
ATOM     25  C   UNL     1       0.832   8.874  21.038  0.00  0.00    +0.000 A 
ATOM     26  C   UNL     1       1.413   7.606  20.961  0.00  0.00    +0.000 A 
BRANCH  24  27
ATOM     27  S   UNL     1       0.178  11.339  20.014  0.00  0.00    +0.000 S 
ATOM     28  O   UNL     1       0.386  12.020  18.763  0.00  0.00    +0.000 OA
ATOM     29  O   UNL     1      -1.113  11.266  20.657  0.00  0.00    +0.000 OA
BRANCH  27  30
ATOM     30  N   UNL     1       1.208  12.070  21.120  0.00  0.00    +0.000 NA
ATOM     31  H   UNL     1       1.263  13.071  20.931  0.00  0.00    +0.000 HD
ATOM     32  H   UNL     1       0.914  11.844  22.071  0.00  0.00    +0.000 HD
ENDBRANCH  27  30
ENDBRANCH  24  27
ENDBRANCH  18  21
ENDBRANCH   1  17
TORSDOF 10
ENDMDL
MODEL 5
REMARK VINA RESULT:      -7.3      3.556      9.068
REMARK  Name = 
REMARK  11 active torsions:
REMARK  status: ('A' for Active; 'I' for Inactive)
REMARK    1  A    between atoms: C_1  and  C_2
REMARK    2  A    between atoms: C_2  and  O_3
REMARK    3  A    between atoms: O_3  and  C_4
REMARK    4  A    between atoms: C_6  and  C_7
REMARK    5  A    between atoms: C_7  and  N_8
REMARK    6  A    between atoms: C_9  and  C_11
REMARK    7  A    between atoms: C_14  and  S_15
REMARK    8  A    between atoms: S_15  and  N_16
REMARK    9  A    between atoms: C_21  and  O_22
REMARK   10  A    between atoms: C_23  and  O_24
REMARK   11  A    between atoms: C_25  and  O_26
REMARK                            x       y       z     vdW  Elec       q    Type
REMARK                         _______ _______ _______ _____ _____    ______ ____
ROOT
ATOM      1  C   UNL     1       2.891   7.173  17.916  0.00  0.00    +0.000 C 
ENDROOT
BRANCH   1   4
ATOM      2  C   UNL     1       3.154   3.771  19.461  0.00  0.00    +0.000 C 
ATOM      3  O   UNL     1       2.666   4.868  18.674  0.00  0.00    +0.000 OA
ATOM      4  C   UNL     1       3.557   5.995  18.649  0.00  0.00    +0.000 C 
ATOM      5  C   UNL     1       4.854   5.601  17.935  0.00  0.00    +0.000 C 
ATOM      6  C   UNL     1       5.500   4.458  18.720  0.00  0.00    +0.000 C 
ATOM      7  C   UNL     1       4.530   3.287  18.924  0.00  0.00    +0.000 C 
BRANCH   5   8
ATOM      8  O   UNL     1       5.741   6.717  17.824  0.00  0.00    +0.000 OA
ATOM      9  H   UNL     1       5.314   7.498  18.220  0.00  0.00    +0.000 HD
ENDBRANCH   5   8
BRANCH   6  10
ATOM     10  O   UNL     1       6.700   4.024  18.067  0.00  0.00    +0.000 OA
ATOM     11  H   UNL     1       6.798   3.066  18.213  0.00  0.00    +0.000 HD
ENDBRANCH   6  10
BRANCH   7  12
ATOM     12  O   UNL     1       5.160   2.336  19.802  0.00  0.00    +0.000 OA
ATOM     13  H   UNL     1       5.062   1.447  19.421  0.00  0.00    +0.000 HD
ENDBRANCH   7  12
BRANCH   2  14
ATOM     14  O   UNL     1       2.151   2.742  19.399  0.00  0.00    +0.000 OA
BRANCH  14  16
ATOM     15  C   UNL     1       1.623   2.681  21.745  0.00  0.00    +0.000 C 
ATOM     16  C   UNL     1       1.091   2.886  20.340  0.00  0.00    +0.000 C 
ENDBRANCH  14  16
ENDBRANCH   2  14
ENDBRANCH   1   4
BRANCH   1  17
ATOM     17  N   UNL     1       2.113   8.027  18.793  0.00  0.00    +0.000 N 
ATOM     18  C   UNL     1       1.734   9.301  18.433  0.00  0.00    +0.000 C 
ATOM     19  O   UNL     1       1.996   9.817  17.353  0.00  0.00    +0.000 OA
ATOM     20  H   UNL     1       1.698   7.595  19.605  0.00  0.00    +0.000 HD
BRANCH  18  21
ATOM     21  C   UNL     1       0.941  10.041  19.447  0.00  0.00    +0.000 A 
ATOM     22  C   UNL     1       0.619  11.396  19.267  0.00  0.00    +0.000 A 
ATOM     23  C   UNL     1      -0.093  12.080  20.251  0.00  0.00    +0.000 A 
ATOM     24  C   UNL     1      -0.506  11.400  21.400  0.00  0.00    +0.000 A 
ATOM     25  C   UNL     1      -0.210  10.043  21.580  0.00  0.00    +0.000 A 
ATOM     26  C   UNL     1       0.508   9.362  20.594  0.00  0.00    +0.000 A 
BRANCH  24  27
ATOM     27  S   UNL     1      -1.368  12.288  22.662  0.00  0.00    +0.000 S 
ATOM     28  O   UNL     1      -2.193  11.375  23.409  0.00  0.00    +0.000 OA
ATOM     29  O   UNL     1      -0.454  13.210  23.295  0.00  0.00    +0.000 OA
BRANCH  27  30
ATOM     30  N   UNL     1      -2.421  13.228  21.751  0.00  0.00    +0.000 NA
ATOM     31  H   UNL     1      -1.889  13.817  21.110  0.00  0.00    +0.000 HD
ATOM     32  H   UNL     1      -3.110  12.631  21.291  0.00  0.00    +0.000 HD
ENDBRANCH  27  30
ENDBRANCH  24  27
ENDBRANCH  18  21
ENDBRANCH   1  17
TORSDOF 10
ENDMDL
MODEL 6
REMARK VINA RESULT:      -7.3      3.092      8.974
REMARK  Name = 
REMARK  11 active torsions:
REMARK  status: ('A' for Active; 'I' for Inactive)
REMARK    1  A    between atoms: C_1  and  C_2
REMARK    2  A    between atoms: C_2  and  O_3
REMARK    3  A    between atoms: O_3  and  C_4
REMARK    4  A    between atoms: C_6  and  C_7
REMARK    5  A    between atoms: C_7  and  N_8
REMARK    6  A    between atoms: C_9  and  C_11
REMARK    7  A    between atoms: C_14  and  S_15
REMARK    8  A    between atoms: S_15  and  N_16
REMARK    9  A    between atoms: C_21  and  O_22
REMARK   10  A    between atoms: C_23  and  O_24
REMARK   11  A    between atoms: C_25  and  O_26
REMARK                            x       y       z     vdW  Elec       q    Type
REMARK                         _______ _______ _______ _____ _____    ______ ____
ROOT
ATOM      1  C   UNL     1       4.475   5.124  19.377  0.00  0.00    +0.000 C 
ENDROOT
BRANCH   1   4
ATOM      2  C   UNL     1       6.718   6.435  16.678  0.00  0.00    +0.000 C 
ATOM      3  O   UNL     1       6.217   6.103  17.982  0.00  0.00    +0.000 OA
ATOM      4  C   UNL     1       5.025   5.302  17.951  0.00  0.00    +0.000 C 
ATOM      5  C   UNL     1       5.348   3.934  17.341  0.00  0.00    +0.000 C 
ATOM      6  C   UNL     1       5.850   4.156  15.913  0.00  0.00    +0.000 C 
ATOM      7  C   UNL     1       7.024   5.142  15.869  0.00  0.00    +0.000 C 
BRANCH   5   8
ATOM      8  O   UNL     1       4.203   3.078  17.358  0.00  0.00    +0.000 OA
ATOM      9  H   UNL     1       4.019   2.818  18.279  0.00  0.00    +0.000 HD
ENDBRANCH   5   8
BRANCH   6  10
ATOM     10  O   UNL     1       6.207   2.905  15.312  0.00  0.00    +0.000 OA
ATOM     11  H   UNL     1       6.340   3.051  14.359  0.00  0.00    +0.000 HD
ENDBRANCH   6  10
BRANCH   7  12
ATOM     12  O   UNL     1       7.323   5.416  14.488  0.00  0.00    +0.000 OA
ATOM     13  H   UNL     1       8.125   4.925  14.239  0.00  0.00    +0.000 HD
ENDBRANCH   7  12
BRANCH   2  14
ATOM     14  O   UNL     1       7.889   7.244  16.880  0.00  0.00    +0.000 OA
BRANCH  14  16
ATOM     15  C   UNL     1       8.337   9.288  18.066  0.00  0.00    +0.000 C 
ATOM     16  C   UNL     1       8.002   7.814  18.180  0.00  0.00    +0.000 C 
ENDBRANCH  14  16
ENDBRANCH   2  14
ENDBRANCH   1   4
BRANCH   1  17
ATOM     17  N   UNL     1       3.659   6.239  19.819  0.00  0.00    +0.000 N 
ATOM     18  C   UNL     1       2.545   6.656  19.127  0.00  0.00    +0.000 C 
ATOM     19  O   UNL     1       2.135   6.125  18.102  0.00  0.00    +0.000 OA
ATOM     20  H   UNL     1       3.824   6.587  20.753  0.00  0.00    +0.000 HD
BRANCH  18  21
ATOM     21  C   UNL     1       1.823   7.811  19.716  0.00  0.00    +0.000 A 
ATOM     22  C   UNL     1       1.527   8.949  18.948  0.00  0.00    +0.000 A 
ATOM     23  C   UNL     1       0.883  10.037  19.532  0.00  0.00    +0.000 A 
ATOM     24  C   UNL     1       0.510   9.975  20.878  0.00  0.00    +0.000 A 
ATOM     25  C   UNL     1       0.780   8.837  21.649  0.00  0.00    +0.000 A 
ATOM     26  C   UNL     1       1.431   7.750  21.060  0.00  0.00    +0.000 A 
BRANCH  24  27
ATOM     27  S   UNL     1      -0.265  11.378  21.623  0.00  0.00    +0.000 S 
ATOM     28  O   UNL     1      -1.363  11.810  20.798  0.00  0.00    +0.000 OA
ATOM     29  O   UNL     1      -0.401  11.142  23.041  0.00  0.00    +0.000 OA
BRANCH  27  30
ATOM     30  N   UNL     1       0.930  12.547  21.459  0.00  0.00    +0.000 NA
ATOM     31  H   UNL     1       0.520  13.412  21.106  0.00  0.00    +0.000 HD
ATOM     32  H   UNL     1       1.433  12.656  22.341  0.00  0.00    +0.000 HD
ENDBRANCH  27  30
ENDBRANCH  24  27
ENDBRANCH  18  21
ENDBRANCH   1  17
TORSDOF 10
ENDMDL
MODEL 7
REMARK VINA RESULT:      -7.2      1.461      2.133
REMARK  Name = 
REMARK  11 active torsions:
REMARK  status: ('A' for Active; 'I' for Inactive)
REMARK    1  A    between atoms: C_1  and  C_2
REMARK    2  A    between atoms: C_2  and  O_3
REMARK    3  A    between atoms: O_3  and  C_4
REMARK    4  A    between atoms: C_6  and  C_7
REMARK    5  A    between atoms: C_7  and  N_8
REMARK    6  A    between atoms: C_9  and  C_11
REMARK    7  A    between atoms: C_14  and  S_15
REMARK    8  A    between atoms: S_15  and  N_16
REMARK    9  A    between atoms: C_21  and  O_22
REMARK   10  A    between atoms: C_23  and  O_24
REMARK   11  A    between atoms: C_25  and  O_26
REMARK                            x       y       z     vdW  Elec       q    Type
REMARK                         _______ _______ _______ _____ _____    ______ ____
ROOT
ATOM      1  C   UNL     1       1.018   7.918  21.230  0.00  0.00    +0.000 C 
ENDROOT
BRANCH   1   4
ATOM      2  C   UNL     1       1.018  11.483  20.081  0.00  0.00    +0.000 C 
ATOM      3  O   UNL     1       0.953  10.049  20.050  0.00  0.00    +0.000 OA
ATOM      4  C   UNL     1       0.933   9.449  21.356  0.00  0.00    +0.000 C 
ATOM      5  C   UNL     1      -0.360   9.844  22.076  0.00  0.00    +0.000 C 
ATOM      6  C   UNL     1      -0.382  11.367  22.215  0.00  0.00    +0.000 C 
ATOM      7  C   UNL     1      -0.194  12.065  20.861  0.00  0.00    +0.000 C 
BRANCH   5   8
ATOM      8  O   UNL     1      -0.455   9.208  23.353  0.00  0.00    +0.000 OA
ATOM      9  H   UNL     1      -1.250   9.536  23.809  0.00  0.00    +0.000 HD
ENDBRANCH   5   8
BRANCH   6  10
ATOM     10  O   UNL     1      -1.597  11.791  22.846  0.00  0.00    +0.000 OA
ATOM     11  H   UNL     1      -2.141  12.253  22.184  0.00  0.00    +0.000 HD
ENDBRANCH   6  10
BRANCH   7  12
ATOM     12  O   UNL     1      -0.063  13.478  21.104  0.00  0.00    +0.000 OA
ATOM     13  H   UNL     1       0.767  13.789  20.703  0.00  0.00    +0.000 HD
ENDBRANCH   7  12
BRANCH   2  14
ATOM     14  O   UNL     1       1.049  11.923  18.712  0.00  0.00    +0.000 OA
BRANCH  14  16
ATOM     15  C   UNL     1       2.690  13.670  18.502  0.00  0.00    +0.000 C 
ATOM     16  C   UNL     1       2.349  12.222  18.211  0.00  0.00    +0.000 C 
ENDBRANCH  14  16
ENDBRANCH   2  14
ENDBRANCH   1   4
BRANCH   1  17
ATOM     17  N   UNL     1       2.115   7.472  20.393  0.00  0.00    +0.000 N 
ATOM     18  C   UNL     1       2.288   6.150  20.050  0.00  0.00    +0.000 C 
ATOM     19  O   UNL     1       1.537   5.246  20.397  0.00  0.00    +0.000 OA
ATOM     20  H   UNL     1       2.647   8.184  19.915  0.00  0.00    +0.000 HD
BRANCH  18  21
ATOM     21  C   UNL     1       3.462   5.864  19.187  0.00  0.00    +0.000 A 
ATOM     22  C   UNL     1       3.655   6.548  17.977  0.00  0.00    +0.000 A 
ATOM     23  C   UNL     1       4.744   6.235  17.165  0.00  0.00    +0.000 A 
ATOM     24  C   UNL     1       5.653   5.257  17.578  0.00  0.00    +0.000 A 
ATOM     25  C   UNL     1       5.482   4.583  18.794  0.00  0.00    +0.000 A 
ATOM     26  C   UNL     1       4.387   4.897  19.603  0.00  0.00    +0.000 A 
BRANCH  24  27
ATOM     27  S   UNL     1       7.004   4.835  16.520  0.00  0.00    +0.000 S 
ATOM     28  O   UNL     1       7.247   5.916  15.601  0.00  0.00    +0.000 OA
ATOM     29  O   UNL     1       8.051   4.235  17.314  0.00  0.00    +0.000 OA
BRANCH  27  30
ATOM     30  N   UNL     1       6.340   3.589  15.610  0.00  0.00    +0.000 NA
ATOM     31  H   UNL     1       5.522   3.930  15.105  0.00  0.00    +0.000 HD
ATOM     32  H   UNL     1       7.055   3.176  15.010  0.00  0.00    +0.000 HD
ENDBRANCH  27  30
ENDBRANCH  24  27
ENDBRANCH  18  21
ENDBRANCH   1  17
TORSDOF 10
ENDMDL
MODEL 8
REMARK VINA RESULT:      -7.2      3.178      8.708
REMARK  Name = 
REMARK  11 active torsions:
REMARK  status: ('A' for Active; 'I' for Inactive)
REMARK    1  A    between atoms: C_1  and  C_2
REMARK    2  A    between atoms: C_2  and  O_3
REMARK    3  A    between atoms: O_3  and  C_4
REMARK    4  A    between atoms: C_6  and  C_7
REMARK    5  A    between atoms: C_7  and  N_8
REMARK    6  A    between atoms: C_9  and  C_11
REMARK    7  A    between atoms: C_14  and  S_15
REMARK    8  A    between atoms: S_15  and  N_16
REMARK    9  A    between atoms: C_21  and  O_22
REMARK   10  A    between atoms: C_23  and  O_24
REMARK   11  A    between atoms: C_25  and  O_26
REMARK                            x       y       z     vdW  Elec       q    Type
REMARK                         _______ _______ _______ _____ _____    ______ ____
ROOT
ATOM      1  C   UNL     1       3.347   3.805  18.075  0.00  0.00    +0.000 C 
ENDROOT
BRANCH   1   4
ATOM      2  C   UNL     1       5.671   4.023  15.145  0.00  0.00    +0.000 C 
ATOM      3  O   UNL     1       4.486   4.141  15.947  0.00  0.00    +0.000 OA
ATOM      4  C   UNL     1       4.692   3.800  17.327  0.00  0.00    +0.000 C 
ATOM      5  C   UNL     1       5.648   4.813  17.964  0.00  0.00    +0.000 C 
ATOM      6  C   UNL     1       6.982   4.743  17.217  0.00  0.00    +0.000 C 
ATOM      7  C   UNL     1       6.799   4.935  15.706  0.00  0.00    +0.000 C 
BRANCH   5   8
ATOM      8  O   UNL     1       5.824   4.551  19.358  0.00  0.00    +0.000 OA
ATOM      9  H   UNL     1       5.961   3.595  19.483  0.00  0.00    +0.000 HD
ENDBRANCH   5   8
BRANCH   6  10
ATOM     10  O   UNL     1       7.900   5.706  17.750  0.00  0.00    +0.000 OA
ATOM     11  H   UNL     1       7.704   5.824  18.696  0.00  0.00    +0.000 HD
ENDBRANCH   6  10
BRANCH   7  12
ATOM     12  O   UNL     1       8.068   4.693  15.070  0.00  0.00    +0.000 OA
ATOM     13  H   UNL     1       8.072   5.134  14.203  0.00  0.00    +0.000 HD
ENDBRANCH   7  12
BRANCH   2  14
ATOM     14  O   UNL     1       5.298   4.379  13.803  0.00  0.00    +0.000 OA
BRANCH  14  16
ATOM     15  C   UNL     1       4.768   3.256  11.742  0.00  0.00    +0.000 C 
ATOM     16  C   UNL     1       5.828   3.526  12.791  0.00  0.00    +0.000 C 
ENDBRANCH  14  16
ENDBRANCH   2  14
ENDBRANCH   1   4
BRANCH   1  17
ATOM     17  N   UNL     1       2.822   5.138  18.299  0.00  0.00    +0.000 N 
ATOM     18  C   UNL     1       2.642   5.655  19.562  0.00  0.00    +0.000 C 
ATOM     19  O   UNL     1       2.919   5.058  20.595  0.00  0.00    +0.000 OA
ATOM     20  H   UNL     1       2.763   5.750  17.498  0.00  0.00    +0.000 HD
BRANCH  18  21
ATOM     21  C   UNL     1       2.094   7.034  19.615  0.00  0.00    +0.000 A 
ATOM     22  C   UNL     1       1.496   7.532  20.784  0.00  0.00    +0.000 A 
ATOM     23  C   UNL     1       0.955   8.816  20.798  0.00  0.00    +0.000 A 
ATOM     24  C   UNL     1       1.036   9.610  19.651  0.00  0.00    +0.000 A 
ATOM     25  C   UNL     1       1.649   9.133  18.485  0.00  0.00    +0.000 A 
ATOM     26  C   UNL     1       2.187   7.843  18.474  0.00  0.00    +0.000 A 
BRANCH  24  27
ATOM     27  S   UNL     1       0.305  11.220  19.664  0.00  0.00    +0.000 S 
ATOM     28  O   UNL     1       1.291  12.188  20.067  0.00  0.00    +0.000 OA
ATOM     29  O   UNL     1      -0.504  11.377  18.478  0.00  0.00    +0.000 OA
BRANCH  27  30
ATOM     30  N   UNL     1      -0.771  11.088  20.947  0.00  0.00    +0.000 NA
ATOM     31  H   UNL     1      -1.397  10.297  20.791  0.00  0.00    +0.000 HD
ATOM     32  H   UNL     1      -0.258  11.043  21.828  0.00  0.00    +0.000 HD
ENDBRANCH  27  30
ENDBRANCH  24  27
ENDBRANCH  18  21
ENDBRANCH   1  17
TORSDOF 10
ENDMDL
MODEL 9
REMARK VINA RESULT:      -7.2      1.437      1.886
REMARK  Name = 
REMARK  11 active torsions:
REMARK  status: ('A' for Active; 'I' for Inactive)
REMARK    1  A    between atoms: C_1  and  C_2
REMARK    2  A    between atoms: C_2  and  O_3
REMARK    3  A    between atoms: O_3  and  C_4
REMARK    4  A    between atoms: C_6  and  C_7
REMARK    5  A    between atoms: C_7  and  N_8
REMARK    6  A    between atoms: C_9  and  C_11
REMARK    7  A    between atoms: C_14  and  S_15
REMARK    8  A    between atoms: S_15  and  N_16
REMARK    9  A    between atoms: C_21  and  O_22
REMARK   10  A    between atoms: C_23  and  O_24
REMARK   11  A    between atoms: C_25  and  O_26
REMARK                            x       y       z     vdW  Elec       q    Type
REMARK                         _______ _______ _______ _____ _____    ______ ____
ROOT
ATOM      1  C   UNL     1       1.056   7.773  21.308  0.00  0.00    +0.000 C 
ENDROOT
BRANCH   1   4
ATOM      2  C   UNL     1       1.048  11.271  19.968  0.00  0.00    +0.000 C 
ATOM      3  O   UNL     1       0.991   9.837  20.014  0.00  0.00    +0.000 OA
ATOM      4  C   UNL     1       0.961   9.308  21.350  0.00  0.00    +0.000 C 
ATOM      5  C   UNL     1      -0.341   9.733  22.035  0.00  0.00    +0.000 C 
ATOM      6  C   UNL     1      -0.373  11.261  22.092  0.00  0.00    +0.000 C 
ATOM      7  C   UNL     1      -0.175  11.887  20.705  0.00  0.00    +0.000 C 
BRANCH   5   8
ATOM      8  O   UNL     1      -0.445   9.166  23.343  0.00  0.00    +0.000 OA
ATOM      9  H   UNL     1      -0.070   9.793  23.988  0.00  0.00    +0.000 HD
ENDBRANCH   5   8
BRANCH   6  10
ATOM     10  O   UNL     1      -1.596  11.711  22.688  0.00  0.00    +0.000 OA
ATOM     11  H   UNL     1      -1.607  11.423  23.618  0.00  0.00    +0.000 HD
ENDBRANCH   6  10
BRANCH   7  12
ATOM     12  O   UNL     1      -0.055  13.311  20.873  0.00  0.00    +0.000 OA
ATOM     13  H   UNL     1      -0.665  13.751  20.256  0.00  0.00    +0.000 HD
ENDBRANCH   7  12
BRANCH   2  14
ATOM     14  O   UNL     1       1.090  11.637  18.578  0.00  0.00    +0.000 OA
BRANCH  14  16
ATOM     15  C   UNL     1       2.404  13.626  18.258  0.00  0.00    +0.000 C 
ATOM     16  C   UNL     1       2.353  12.117  18.126  0.00  0.00    +0.000 C 
ENDBRANCH  14  16
ENDBRANCH   2  14
ENDBRANCH   1   4
BRANCH   1  17
ATOM     17  N   UNL     1       2.122   7.288  20.452  0.00  0.00    +0.000 N 
ATOM     18  C   UNL     1       2.241   5.961  20.105  0.00  0.00    +0.000 C 
ATOM     19  O   UNL     1       1.464   5.085  20.462  0.00  0.00    +0.000 OA
ATOM     20  H   UNL     1       2.673   7.981  19.966  0.00  0.00    +0.000 HD
BRANCH  18  21
ATOM     21  C   UNL     1       3.390   5.633  19.223  0.00  0.00    +0.000 A 
ATOM     22  C   UNL     1       4.244   4.558  19.515  0.00  0.00    +0.000 A 
ATOM     23  C   UNL     1       5.338   4.293  18.694  0.00  0.00    +0.000 A 
ATOM     24  C   UNL     1       5.560   5.087  17.565  0.00  0.00    +0.000 A 
ATOM     25  C   UNL     1       4.702   6.149  17.251  0.00  0.00    +0.000 A 
ATOM     26  C   UNL     1       3.609   6.414  18.080  0.00  0.00    +0.000 A 
BRANCH  24  27
ATOM     27  S   UNL     1       6.977   4.772  16.555  0.00  0.00    +0.000 S 
ATOM     28  O   UNL     1       8.031   4.228  17.369  0.00  0.00    +0.000 OA
ATOM     29  O   UNL     1       6.546   4.156  15.322  0.00  0.00    +0.000 OA
BRANCH  27  30
ATOM     30  N   UNL     1       7.455   6.332  16.154  0.00  0.00    +0.000 NA
ATOM     31  H   UNL     1       8.467   6.415  16.245  0.00  0.00    +0.000 HD
ATOM     32  H   UNL     1       7.100   6.577  15.229  0.00  0.00    +0.000 HD
ENDBRANCH  27  30
ENDBRANCH  24  27
ENDBRANCH  18  21
ENDBRANCH   1  17
TORSDOF 10
ENDMDL
