MODEL 1
REMARK VINA RESULT:      -7.4      0.000      0.000
REMARK  Name = 
REMARK  12 active torsions:
REMARK  status: ('A' for Active; 'I' for Inactive)
REMARK    1  A    between atoms: C_1  and  C_2
REMARK    2  A    between atoms: C_2  and  O_4
REMARK    3  A    between atoms: O_4  and  C_5
REMARK    4  A    between atoms: C_7  and  C_8
REMARK    5  A    between atoms: C_8  and  C_9
REMARK    6  A    between atoms: C_8  and  C_10
REMARK    7  A    between atoms: C_8  and  C_11
REMARK    8  A    between atoms: C_12  and  O_13
REMARK    9  A    between atoms: C_14  and  C_15
REMARK   10  A    between atoms: C_15  and  C_16
REMARK   11  A    between atoms: C_15  and  C_17
REMARK   12  A    between atoms: C_15  and  C_18
REMARK                            x       y       z     vdW  Elec       q    Type
REMARK                         _______ _______ _______ _____ _____    ______ ____
ROOT
ATOM      1  C   UNL     1       3.119   6.451  17.939  0.00  0.00    +0.000 A 
ATOM      2  C   UNL     1       4.503   6.584  17.919  0.00  0.00    +0.000 A 
ATOM      3  C   UNL     1       5.357   5.507  18.236  0.00  0.00    +0.000 A 
ATOM      4  C   UNL     1       4.719   4.320  18.686  0.00  0.00    +0.000 A 
ATOM      5  C   UNL     1       3.306   4.160  18.751  0.00  0.00    +0.000 A 
ATOM      6  C   UNL     1       2.526   5.257  18.343  0.00  0.00    +0.000 A 
ENDROOT
BRANCH   3   7
ATOM      7  C   UNL     1       6.893   5.694  18.107  0.00  0.00    +0.000 C 
ATOM      8  C   UNL     1       7.291   7.038  17.430  0.00  0.00    +0.000 C 
ATOM      9  C   UNL     1       7.575   5.691  19.491  0.00  0.00    +0.000 C 
ATOM     10  C   UNL     1       7.524   4.602  17.213  0.00  0.00    +0.000 C 
ENDBRANCH   3   7
BRANCH   5  11
ATOM     11  C   UNL     1       2.631   2.865  19.272  0.00  0.00    +0.000 C 
ATOM     12  C   UNL     1       2.832   2.737  20.798  0.00  0.00    +0.000 C 
ATOM     13  C   UNL     1       1.097   2.832  19.029  0.00  0.00    +0.000 C 
ATOM     14  C   UNL     1       3.190   1.603  18.575  0.00  0.00    +0.000 C 
ENDBRANCH   5  11
BRANCH   4  15
ATOM     15  O   UNL     1       5.474   3.274  19.140  0.00  0.00    +0.000 OA
ATOM     16  H   UNL     1       6.084   3.620  19.804  0.00  0.00    +0.000 HD
ENDBRANCH   4  15
BRANCH   1  17
ATOM     17  O   UNL     1       2.244   7.529  17.661  0.00  0.00    +0.000 OA
BRANCH  17  19
ATOM     18  C   UNL     1       1.878   9.840  17.975  0.00  0.00    +0.000 C 
ATOM     19  C   UNL     1       1.939   8.491  18.625  0.00  0.00    +0.000 C 
ATOM     20  O   UNL     1       1.755   8.305  19.822  0.00  0.00    +0.000 OA
ENDBRANCH  17  19
ENDBRANCH   1  17
TORSDOF 5
ENDMDL
MODEL 2
REMARK VINA RESULT:      -7.4      0.064      1.402
REMARK  Name = 
REMARK  12 active torsions:
REMARK  status: ('A' for Active; 'I' for Inactive)
REMARK    1  A    between atoms: C_1  and  C_2
REMARK    2  A    between atoms: C_2  and  O_4
REMARK    3  A    between atoms: O_4  and  C_5
REMARK    4  A    between atoms: C_7  and  C_8
REMARK    5  A    between atoms: C_8  and  C_9
REMARK    6  A    between atoms: C_8  and  C_10
REMARK    7  A    between atoms: C_8  and  C_11
REMARK    8  A    between atoms: C_12  and  O_13
REMARK    9  A    between atoms: C_14  and  C_15
REMARK   10  A    between atoms: C_15  and  C_16
REMARK   11  A    between atoms: C_15  and  C_17
REMARK   12  A    between atoms: C_15  and  C_18
REMARK                            x       y       z     vdW  Elec       q    Type
REMARK                         _______ _______ _______ _____ _____    ______ ____
ROOT
ATOM      1  C   UNL     1       3.126   6.488  17.931  0.00  0.00    +0.000 A 
ATOM      2  C   UNL     1       4.510   6.619  17.899  0.00  0.00    +0.000 A 
ATOM      3  C   UNL     1       5.365   5.540  18.203  0.00  0.00    +0.000 A 
ATOM      4  C   UNL     1       4.730   4.351  18.652  0.00  0.00    +0.000 A 
ATOM      5  C   UNL     1       3.318   4.194  18.731  0.00  0.00    +0.000 A 
ATOM      6  C   UNL     1       2.535   5.294  18.335  0.00  0.00    +0.000 A 
ENDROOT
BRANCH   3   7
ATOM      7  C   UNL     1       6.900   5.726  18.059  0.00  0.00    +0.000 C 
ATOM      8  C   UNL     1       7.649   5.709  19.423  0.00  0.00    +0.000 C 
ATOM      9  C   UNL     1       7.522   4.598  17.212  0.00  0.00    +0.000 C 
ATOM     10  C   UNL     1       7.249   7.097  17.437  0.00  0.00    +0.000 C 
ENDBRANCH   3   7
BRANCH   5  11
ATOM     11  C   UNL     1       2.646   2.897  19.251  0.00  0.00    +0.000 C 
ATOM     12  C   UNL     1       1.134   2.918  18.936  0.00  0.00    +0.000 C 
ATOM     13  C   UNL     1       3.210   1.607  18.596  0.00  0.00    +0.000 C 
ATOM     14  C   UNL     1       2.848   2.713  20.773  0.00  0.00    +0.000 C 
ENDBRANCH   5  11
BRANCH   4  15
ATOM     15  O   UNL     1       5.488   3.303  19.094  0.00  0.00    +0.000 OA
ATOM     16  H   UNL     1       6.328   3.660  19.407  0.00  0.00    +0.000 HD
ENDBRANCH   4  15
BRANCH   1  17
ATOM     17  O   UNL     1       2.250   7.570  17.668  0.00  0.00    +0.000 OA
BRANCH  17  19
ATOM     18  C   UNL     1       1.761   9.851  18.031  0.00  0.00    +0.000 C 
ATOM     19  C   UNL     1       1.912   8.497  18.655  0.00  0.00    +0.000 C 
ATOM     20  O   UNL     1       1.766   8.280  19.853  0.00  0.00    +0.000 OA
ENDBRANCH  17  19
ENDBRANCH   1  17
TORSDOF 5
ENDMDL
MODEL 3
REMARK VINA RESULT:      -7.3      0.098      1.419
REMARK  Name = 
REMARK  12 active torsions:
REMARK  status: ('A' for Active; 'I' for Inactive)
REMARK    1  A    between atoms: C_1  and  C_2
REMARK    2  A    between atoms: C_2  and  O_4
REMARK    3  A    between atoms: O_4  and  C_5
REMARK    4  A    between atoms: C_7  and  C_8
REMARK    5  A    between atoms: C_8  and  C_9
REMARK    6  A    between atoms: C_8  and  C_10
REMARK    7  A    between atoms: C_8  and  C_11
REMARK    8  A    between atoms: C_12  and  O_13
REMARK    9  A    between atoms: C_14  and  C_15
REMARK   10  A    between atoms: C_15  and  C_16
REMARK   11  A    between atoms: C_15  and  C_17
REMARK   12  A    between atoms: C_15  and  C_18
REMARK                            x       y       z     vdW  Elec       q    Type
REMARK                         _______ _______ _______ _____ _____    ______ ____
ROOT
ATOM      1  C   UNL     1       3.178   6.503  17.947  0.00  0.00    +0.000 A 
ATOM      2  C   UNL     1       4.564   6.617  17.927  0.00  0.00    +0.000 A 
ATOM      3  C   UNL     1       5.403   5.535  18.263  0.00  0.00    +0.000 A 
ATOM      4  C   UNL     1       4.749   4.363  18.730  0.00  0.00    +0.000 A 
ATOM      5  C   UNL     1       3.335   4.223  18.796  0.00  0.00    +0.000 A 
ATOM      6  C   UNL     1       2.569   5.324  18.370  0.00  0.00    +0.000 A 
ENDROOT
BRANCH   3   7
ATOM      7  C   UNL     1       6.941   5.700  18.132  0.00  0.00    +0.000 C 
ATOM      8  C   UNL     1       7.613   4.557  17.318  0.00  0.00    +0.000 C 
ATOM      9  C   UNL     1       7.303   7.014  17.409  0.00  0.00    +0.000 C 
ATOM     10  C   UNL     1       7.635   5.658  19.513  0.00  0.00    +0.000 C 
ENDBRANCH   3   7
BRANCH   5  11
ATOM     11  C   UNL     1       2.642   2.946  19.337  0.00  0.00    +0.000 C 
ATOM     12  C   UNL     1       3.171   1.699  18.594  0.00  0.00    +0.000 C 
ATOM     13  C   UNL     1       2.904   2.697  20.847  0.00  0.00    +0.000 C 
ATOM     14  C   UNL     1       1.104   3.016  19.188  0.00  0.00    +0.000 C 
ENDBRANCH   5  11
BRANCH   4  15
ATOM     15  O   UNL     1       5.490   3.315  19.202  0.00  0.00    +0.000 OA
ATOM     16  H   UNL     1       6.109   3.058  18.506  0.00  0.00    +0.000 HD
ENDBRANCH   4  15
BRANCH   1  17
ATOM     17  O   UNL     1       2.318   7.588  17.652  0.00  0.00    +0.000 OA
BRANCH  17  19
ATOM     18  C   UNL     1       1.763   9.855  18.007  0.00  0.00    +0.000 C 
ATOM     19  C   UNL     1       1.929   8.503  18.632  0.00  0.00    +0.000 C 
ATOM     20  O   UNL     1       1.754   8.279  19.823  0.00  0.00    +0.000 OA
ENDBRANCH  17  19
ENDBRANCH   1  17
TORSDOF 5
ENDMDL
MODEL 4
REMARK VINA RESULT:      -7.3      0.176      4.274
REMARK  Name = 
REMARK  12 active torsions:
REMARK  status: ('A' for Active; 'I' for Inactive)
REMARK    1  A    between atoms: C_1  and  C_2
REMARK    2  A    between atoms: C_2  and  O_4
REMARK    3  A    between atoms: O_4  and  C_5
REMARK    4  A    between atoms: C_7  and  C_8
REMARK    5  A    between atoms: C_8  and  C_9
REMARK    6  A    between atoms: C_8  and  C_10
REMARK    7  A    between atoms: C_8  and  C_11
REMARK    8  A    between atoms: C_12  and  O_13
REMARK    9  A    between atoms: C_14  and  C_15
REMARK   10  A    between atoms: C_15  and  C_16
REMARK   11  A    between atoms: C_15  and  C_17
REMARK   12  A    between atoms: C_15  and  C_18
REMARK                            x       y       z     vdW  Elec       q    Type
REMARK                         _______ _______ _______ _____ _____    ______ ____
ROOT
ATOM      1  C   UNL     1       3.098   6.550  18.102  0.00  0.00    +0.000 A 
ATOM      2  C   UNL     1       2.528   5.348  18.505  0.00  0.00    +0.000 A 
ATOM      3  C   UNL     1       3.318   4.242  18.882  0.00  0.00    +0.000 A 
ATOM      4  C   UNL     1       4.721   4.394  18.716  0.00  0.00    +0.000 A 
ATOM      5  C   UNL     1       5.335   5.599  18.273  0.00  0.00    +0.000 A 
ATOM      6  C   UNL     1       4.480   6.680  17.991  0.00  0.00    +0.000 A 
ENDROOT
BRANCH   3   7
ATOM      7  C   UNL     1       2.622   2.959  19.410  0.00  0.00    +0.000 C 
ATOM      8  C   UNL     1       1.069   3.031  19.339  0.00  0.00    +0.000 C 
ATOM      9  C   UNL     1       3.033   1.721  18.587  0.00  0.00    +0.000 C 
ATOM     10  C   UNL     1       2.936   2.717  20.904  0.00  0.00    +0.000 C 
ENDBRANCH   3   7
BRANCH   5  11
ATOM     11  C   UNL     1       6.866   5.735  18.070  0.00  0.00    +0.000 C 
ATOM     12  C   UNL     1       7.377   4.633  17.116  0.00  0.00    +0.000 C 
ATOM     13  C   UNL     1       7.285   7.089  17.436  0.00  0.00    +0.000 C 
ATOM     14  C   UNL     1       7.636   5.648  19.409  0.00  0.00    +0.000 C 
ENDBRANCH   5  11
BRANCH   4  15
ATOM     15  O   UNL     1       5.549   3.328  18.931  0.00  0.00    +0.000 OA
ATOM     16  H   UNL     1       5.997   3.471  19.774  0.00  0.00    +0.000 HD
ENDBRANCH   4  15
BRANCH   1  17
ATOM     17  O   UNL     1       2.324   7.660  17.682  0.00  0.00    +0.000 OA
BRANCH  17  19
ATOM     18  C   UNL     1       1.883   9.969  17.900  0.00  0.00    +0.000 C 
ATOM     19  C   UNL     1       1.891   8.635  18.583  0.00  0.00    +0.000 C 
ATOM     20  O   UNL     1       1.573   8.468  19.754  0.00  0.00    +0.000 OA
ENDBRANCH  17  19
ENDBRANCH   1  17
TORSDOF 5
ENDMDL
MODEL 5
REMARK VINA RESULT:      -7.2      0.176      4.217
REMARK  Name = 
REMARK  12 active torsions:
REMARK  status: ('A' for Active; 'I' for Inactive)
REMARK    1  A    between atoms: C_1  and  C_2
REMARK    2  A    between atoms: C_2  and  O_4
REMARK    3  A    between atoms: O_4  and  C_5
REMARK    4  A    between atoms: C_7  and  C_8
REMARK    5  A    between atoms: C_8  and  C_9
REMARK    6  A    between atoms: C_8  and  C_10
REMARK    7  A    between atoms: C_8  and  C_11
REMARK    8  A    between atoms: C_12  and  O_13
REMARK    9  A    between atoms: C_14  and  C_15
REMARK   10  A    between atoms: C_15  and  C_16
REMARK   11  A    between atoms: C_15  and  C_17
REMARK   12  A    between atoms: C_15  and  C_18
REMARK                            x       y       z     vdW  Elec       q    Type
REMARK                         _______ _______ _______ _____ _____    ______ ____
ROOT
ATOM      1  C   UNL     1       3.143   6.574  18.106  0.00  0.00    +0.000 A 
ATOM      2  C   UNL     1       2.564   5.371  18.496  0.00  0.00    +0.000 A 
ATOM      3  C   UNL     1       3.345   4.258  18.870  0.00  0.00    +0.000 A 
ATOM      4  C   UNL     1       4.750   4.404  18.715  0.00  0.00    +0.000 A 
ATOM      5  C   UNL     1       5.374   5.609  18.287  0.00  0.00    +0.000 A 
ATOM      6  C   UNL     1       4.527   6.697  18.007  0.00  0.00    +0.000 A 
ENDROOT
BRANCH   3   7
ATOM      7  C   UNL     1       2.638   2.974  19.382  0.00  0.00    +0.000 C 
ATOM      8  C   UNL     1       3.015   1.702  18.569  0.00  0.00    +0.000 C 
ATOM      9  C   UNL     1       3.014   2.676  20.848  0.00  0.00    +0.000 C 
ATOM     10  C   UNL     1       1.101   3.082  19.251  0.00  0.00    +0.000 C 
ENDBRANCH   3   7
BRANCH   5  11
ATOM     11  C   UNL     1       6.908   5.738  18.098  0.00  0.00    +0.000 C 
ATOM     12  C   UNL     1       7.252   7.100  17.455  0.00  0.00    +0.000 C 
ATOM     13  C   UNL     1       7.699   5.674  19.433  0.00  0.00    +0.000 C 
ATOM     14  C   UNL     1       7.479   4.600  17.221  0.00  0.00    +0.000 C 
ENDBRANCH   5  11
BRANCH   4  15
ATOM     15  O   UNL     1       5.571   3.332  18.928  0.00  0.00    +0.000 OA
ATOM     16  H   UNL     1       6.345   3.438  18.360  0.00  0.00    +0.000 HD
ENDBRANCH   4  15
BRANCH   1  17
ATOM     17  O   UNL     1       2.378   7.690  17.689  0.00  0.00    +0.000 OA
BRANCH  17  19
ATOM     18  C   UNL     1       1.735   9.951  17.911  0.00  0.00    +0.000 C 
ATOM     19  C   UNL     1       1.897   8.631  18.601  0.00  0.00    +0.000 C 
ATOM     20  O   UNL     1       1.648   8.449  19.787  0.00  0.00    +0.000 OA
ENDBRANCH  17  19
ENDBRANCH   1  17
TORSDOF 5
ENDMDL
MODEL 6
REMARK VINA RESULT:      -7.2      0.244      4.208
REMARK  Name = 
REMARK  12 active torsions:
REMARK  status: ('A' for Active; 'I' for Inactive)
REMARK    1  A    between atoms: C_1  and  C_2
REMARK    2  A    between atoms: C_2  and  O_4
REMARK    3  A    between atoms: O_4  and  C_5
REMARK    4  A    between atoms: C_7  and  C_8
REMARK    5  A    between atoms: C_8  and  C_9
REMARK    6  A    between atoms: C_8  and  C_10
REMARK    7  A    between atoms: C_8  and  C_11
REMARK    8  A    between atoms: C_12  and  O_13
REMARK    9  A    between atoms: C_14  and  C_15
REMARK   10  A    between atoms: C_15  and  C_16
REMARK   11  A    between atoms: C_15  and  C_17
REMARK   12  A    between atoms: C_15  and  C_18
REMARK                            x       y       z     vdW  Elec       q    Type
REMARK                         _______ _______ _______ _____ _____    ______ ____
ROOT
ATOM      1  C   UNL     1       3.087   6.598  18.131  0.00  0.00    +0.000 A 
ATOM      2  C   UNL     1       2.505   5.408  18.552  0.00  0.00    +0.000 A 
ATOM      3  C   UNL     1       3.283   4.298  18.941  0.00  0.00    +0.000 A 
ATOM      4  C   UNL     1       4.688   4.432  18.768  0.00  0.00    +0.000 A 
ATOM      5  C   UNL     1       5.315   5.624  18.307  0.00  0.00    +0.000 A 
ATOM      6  C   UNL     1       4.470   6.711  18.014  0.00  0.00    +0.000 A 
ENDROOT
BRANCH   3   7
ATOM      7  C   UNL     1       2.575   3.030  19.488  0.00  0.00    +0.000 C 
ATOM      8  C   UNL     1       2.995   2.672  20.943  0.00  0.00    +0.000 C 
ATOM      9  C   UNL     1       1.043   3.213  19.515  0.00  0.00    +0.000 C 
ATOM     10  C   UNL     1       2.934   1.777  18.656  0.00  0.00    +0.000 C 
ENDBRANCH   3   7
BRANCH   5  11
ATOM     11  C   UNL     1       6.846   5.739  18.098  0.00  0.00    +0.000 C 
ATOM     12  C   UNL     1       7.577   5.649  19.456  0.00  0.00    +0.000 C 
ATOM     13  C   UNL     1       7.433   4.607  17.211  0.00  0.00    +0.000 C 
ATOM     14  C   UNL     1       7.235   7.061  17.395  0.00  0.00    +0.000 C 
ENDBRANCH   5  11
BRANCH   4  15
ATOM     15  O   UNL     1       5.505   3.360  18.994  0.00  0.00    +0.000 OA
ATOM     16  H   UNL     1       5.238   2.656  18.389  0.00  0.00    +0.000 HD
ENDBRANCH   4  15
BRANCH   1  17
ATOM     17  O   UNL     1       2.324   7.711  17.699  0.00  0.00    +0.000 OA
BRANCH  17  19
ATOM     18  C   UNL     1       1.895  10.023  17.904  0.00  0.00    +0.000 C 
ATOM     19  C   UNL     1       1.889   8.692  18.591  0.00  0.00    +0.000 C 
ATOM     20  O   UNL     1       1.558   8.532  19.760  0.00  0.00    +0.000 OA
ENDBRANCH  17  19
ENDBRANCH   1  17
TORSDOF 5
ENDMDL
MODEL 7
REMARK VINA RESULT:      -7.2      0.666      1.275
REMARK  Name = 
REMARK  12 active torsions:
REMARK  status: ('A' for Active; 'I' for Inactive)
REMARK    1  A    between atoms: C_1  and  C_2
REMARK    2  A    between atoms: C_2  and  O_4
REMARK    3  A    between atoms: O_4  and  C_5
REMARK    4  A    between atoms: C_7  and  C_8
REMARK    5  A    between atoms: C_8  and  C_9
REMARK    6  A    between atoms: C_8  and  C_10
REMARK    7  A    between atoms: C_8  and  C_11
REMARK    8  A    between atoms: C_12  and  O_13
REMARK    9  A    between atoms: C_14  and  C_15
REMARK   10  A    between atoms: C_15  and  C_16
REMARK   11  A    between atoms: C_15  and  C_17
REMARK   12  A    between atoms: C_15  and  C_18
REMARK                            x       y       z     vdW  Elec       q    Type
REMARK                         _______ _______ _______ _____ _____    ______ ____
ROOT
ATOM      1  C   UNL     1       3.027   6.365  17.826  0.00  0.00    +0.000 A 
ATOM      2  C   UNL     1       4.407   6.538  17.817  0.00  0.00    +0.000 A 
ATOM      3  C   UNL     1       5.287   5.501  18.190  0.00  0.00    +0.000 A 
ATOM      4  C   UNL     1       4.678   4.316  18.683  0.00  0.00    +0.000 A 
ATOM      5  C   UNL     1       3.270   4.118  18.739  0.00  0.00    +0.000 A 
ATOM      6  C   UNL     1       2.463   5.174  18.274  0.00  0.00    +0.000 A 
ENDROOT
BRANCH   3   7
ATOM      7  C   UNL     1       6.818   5.728  18.071  0.00  0.00    +0.000 C 
ATOM      8  C   UNL     1       7.186   7.083  17.401  0.00  0.00    +0.000 C 
ATOM      9  C   UNL     1       7.492   5.736  19.459  0.00  0.00    +0.000 C 
ATOM     10  C   UNL     1       7.482   4.655  17.177  0.00  0.00    +0.000 C 
ENDBRANCH   3   7
BRANCH   5  11
ATOM     11  C   UNL     1       2.625   2.828  19.307  0.00  0.00    +0.000 C 
ATOM     12  C   UNL     1       1.107   2.821  19.022  0.00  0.00    +0.000 C 
ATOM     13  C   UNL     1       3.193   1.527  18.674  0.00  0.00    +0.000 C 
ATOM     14  C   UNL     1       2.861   2.686  20.829  0.00  0.00    +0.000 C 
ENDBRANCH   5  11
BRANCH   4  15
ATOM     15  O   UNL     1       5.457   3.313  19.191  0.00  0.00    +0.000 OA
ATOM     16  H   UNL     1       5.468   2.596  18.544  0.00  0.00    +0.000 HD
ENDBRANCH   4  15
BRANCH   1  17
ATOM     17  O   UNL     1       2.125   7.405  17.492  0.00  0.00    +0.000 OA
BRANCH  17  19
ATOM     18  C   UNL     1       1.794   8.409  19.603  0.00  0.00    +0.000 C 
ATOM     19  C   UNL     1       2.138   8.630  18.161  0.00  0.00    +0.000 C 
ATOM     20  O   UNL     1       2.376   9.731  17.680  0.00  0.00    +0.000 OA
ENDBRANCH  17  19
ENDBRANCH   1  17
TORSDOF 5
ENDMDL
MODEL 8
REMARK VINA RESULT:      -7.1      0.693      4.316
REMARK  Name = 
REMARK  12 active torsions:
REMARK  status: ('A' for Active; 'I' for Inactive)
REMARK    1  A    between atoms: C_1  and  C_2
REMARK    2  A    between atoms: C_2  and  O_4
REMARK    3  A    between atoms: O_4  and  C_5
REMARK    4  A    between atoms: C_7  and  C_8
REMARK    5  A    between atoms: C_8  and  C_9
REMARK    6  A    between atoms: C_8  and  C_10
REMARK    7  A    between atoms: C_8  and  C_11
REMARK    8  A    between atoms: C_12  and  O_13
REMARK    9  A    between atoms: C_14  and  C_15
REMARK   10  A    between atoms: C_15  and  C_16
REMARK   11  A    between atoms: C_15  and  C_17
REMARK   12  A    between atoms: C_15  and  C_18
REMARK                            x       y       z     vdW  Elec       q    Type
REMARK                         _______ _______ _______ _____ _____    ______ ____
ROOT
ATOM      1  C   UNL     1       2.913   6.512  17.978  0.00  0.00    +0.000 A 
ATOM      2  C   UNL     1       2.370   5.329  18.467  0.00  0.00    +0.000 A 
ATOM      3  C   UNL     1       3.184   4.274  18.930  0.00  0.00    +0.000 A 
ATOM      4  C   UNL     1       4.584   4.450  18.760  0.00  0.00    +0.000 A 
ATOM      5  C   UNL     1       5.172   5.633  18.232  0.00  0.00    +0.000 A 
ATOM      6  C   UNL     1       4.292   6.668  17.866  0.00  0.00    +0.000 A 
ENDROOT
BRANCH   3   7
ATOM      7  C   UNL     1       2.517   3.017  19.548  0.00  0.00    +0.000 C 
ATOM      8  C   UNL     1       2.979   2.732  21.007  0.00  0.00    +0.000 C 
ATOM      9  C   UNL     1       0.983   3.169  19.605  0.00  0.00    +0.000 C 
ATOM     10  C   UNL     1       2.883   1.736  18.763  0.00  0.00    +0.000 C 
ENDBRANCH   3   7
BRANCH   5  11
ATOM     11  C   UNL     1       6.701   5.792  18.029  0.00  0.00    +0.000 C 
ATOM     12  C   UNL     1       7.224   4.709  17.060  0.00  0.00    +0.000 C 
ATOM     13  C   UNL     1       7.100   7.160  17.410  0.00  0.00    +0.000 C 
ATOM     14  C   UNL     1       7.474   5.699  19.365  0.00  0.00    +0.000 C 
ENDBRANCH   5  11
BRANCH   4  15
ATOM     15  O   UNL     1       5.438   3.424  19.059  0.00  0.00    +0.000 OA
ATOM     16  H   UNL     1       5.179   3.069  19.919  0.00  0.00    +0.000 HD
ENDBRANCH   4  15
BRANCH   1  17
ATOM     17  O   UNL     1       2.114   7.567  17.472  0.00  0.00    +0.000 OA
BRANCH  17  19
ATOM     18  C   UNL     1       1.615   8.624  19.523  0.00  0.00    +0.000 C 
ATOM     19  C   UNL     1       2.057   8.810  18.104  0.00  0.00    +0.000 C 
ATOM     20  O   UNL     1       2.309   9.902  17.608  0.00  0.00    +0.000 OA
ENDBRANCH  17  19
ENDBRANCH   1  17
TORSDOF 5
ENDMDL
MODEL 9
REMARK VINA RESULT:      -7.1      0.684      4.281
REMARK  Name = 
REMARK  12 active torsions:
REMARK  status: ('A' for Active; 'I' for Inactive)
REMARK    1  A    between atoms: C_1  and  C_2
REMARK    2  A    between atoms: C_2  and  O_4
REMARK    3  A    between atoms: O_4  and  C_5
REMARK    4  A    between atoms: C_7  and  C_8
REMARK    5  A    between atoms: C_8  and  C_9
REMARK    6  A    between atoms: C_8  and  C_10
REMARK    7  A    between atoms: C_8  and  C_11
REMARK    8  A    between atoms: C_12  and  O_13
REMARK    9  A    between atoms: C_14  and  C_15
REMARK   10  A    between atoms: C_15  and  C_16
REMARK   11  A    between atoms: C_15  and  C_17
REMARK   12  A    between atoms: C_15  and  C_18
REMARK                            x       y       z     vdW  Elec       q    Type
REMARK                         _______ _______ _______ _____ _____    ______ ____
ROOT
ATOM      1  C   UNL     1       3.056   6.448  17.906  0.00  0.00    +0.000 A 
ATOM      2  C   UNL     1       2.502   5.253  18.353  0.00  0.00    +0.000 A 
ATOM      3  C   UNL     1       3.303   4.197  18.833  0.00  0.00    +0.000 A 
ATOM      4  C   UNL     1       4.708   4.384  18.725  0.00  0.00    +0.000 A 
ATOM      5  C   UNL     1       5.309   5.580  18.242  0.00  0.00    +0.000 A 
ATOM      6  C   UNL     1       4.438   6.615  17.855  0.00  0.00    +0.000 A 
ENDROOT
BRANCH   3   7
ATOM      7  C   UNL     1       2.619   2.925  19.402  0.00  0.00    +0.000 C 
ATOM      8  C   UNL     1       3.062   1.618  18.683  0.00  0.00    +0.000 C 
ATOM      9  C   UNL     1       2.955   2.730  20.895  0.00  0.00    +0.000 C 
ATOM     10  C   UNL     1       1.085   2.975  19.216  0.00  0.00    +0.000 C 
ENDBRANCH   3   7
BRANCH   5  11
ATOM     11  C   UNL     1       6.844   5.752  18.106  0.00  0.00    +0.000 C 
ATOM     12  C   UNL     1       7.510   5.700  19.498  0.00  0.00    +0.000 C 
ATOM     13  C   UNL     1       7.515   4.637  17.259  0.00  0.00    +0.000 C 
ATOM     14  C   UNL     1       7.216   7.082  17.411  0.00  0.00    +0.000 C 
ENDBRANCH   5  11
BRANCH   4  15
ATOM     15  O   UNL     1       5.555   3.360  19.043  0.00  0.00    +0.000 OA
ATOM     16  H   UNL     1       5.258   2.575  18.565  0.00  0.00    +0.000 HD
ENDBRANCH   4  15
BRANCH   1  17
ATOM     17  O   UNL     1       2.272   7.506  17.384  0.00  0.00    +0.000 OA
BRANCH  17  19
ATOM     18  C   UNL     1       1.718   8.456  19.473  0.00  0.00    +0.000 C 
ATOM     19  C   UNL     1       2.137   8.720  18.059  0.00  0.00    +0.000 C 
ATOM     20  O   UNL     1       2.311   9.843  17.600  0.00  0.00    +0.000 OA
ENDBRANCH  17  19
ENDBRANCH   1  17
TORSDOF 5
ENDMDL
