MODEL 1
REMARK VINA RESULT:      -9.0      0.000      0.000
REMARK  Name = 
REMARK  4 active torsions:
REMARK  status: ('A' for Active; 'I' for Inactive)
REMARK    1  A    between atoms: C_1  and  N_2
REMARK    2  A    between atoms: C_4  and  C_5
REMARK    3  A    between atoms: N_7  and  C_8
REMARK    4  A    between atoms: C_20  and  C_21
REMARK                            x       y       z     vdW  Elec       q    Type
REMARK                         _______ _______ _______ _____ _____    ______ ____
ROOT
ATOM      1  C   UNL     1       3.451   1.559  18.304  0.00  0.00    +0.000 C 
ATOM      2  N   UNL     1       3.391   3.002  18.360  0.00  0.00    +0.000 N 
ATOM      3  C   UNL     1       2.741   3.711  19.324  0.00  0.00    +0.000 A 
ATOM      4  C   UNL     1       2.906   5.068  19.073  0.00  0.00    +0.000 A 
ATOM      5  C   UNL     1       3.692   5.162  17.895  0.00  0.00    +0.000 A 
ATOM      6  N   UNL     1       4.129   6.264  17.234  0.00  0.00    +0.000 NA
ATOM      7  C   UNL     1       4.885   5.994  16.131  0.00  0.00    +0.000 A 
ATOM      8  C   UNL     1       5.228   4.736  15.614  0.00  0.00    +0.000 A 
ATOM      9  C   UNL     1       4.747   3.628  16.323  0.00  0.00    +0.000 A 
ATOM     10  C   UNL     1       3.982   3.864  17.469  0.00  0.00    +0.000 A 
ENDROOT
BRANCH   8  11
ATOM     11  C   UNL     1       6.034   4.562  14.383  0.00  0.00    +0.000 A 
ATOM     12  C   UNL     1       5.646   3.660  13.371  0.00  0.00    +0.000 A 
ATOM     13  C   UNL     1       6.372   3.530  12.183  0.00  0.00    +0.000 A 
ATOM     14  C   UNL     1       7.519   4.289  11.983  0.00  0.00    +0.000 A 
ATOM     15  C   UNL     1       7.938   5.174  12.971  0.00  0.00    +0.000 A 
ATOM     16  C   UNL     1       7.202   5.313  14.152  0.00  0.00    +0.000 A 
ENDBRANCH   8  11
BRANCH   4  17
ATOM     17  C   UNL     1       2.329   6.087  19.943  0.00  0.00    +0.000 C 
ATOM     18  O   UNL     1       2.035   5.783  21.097  0.00  0.00    +0.000 OA
ATOM     19  N   UNL     1       2.118   7.331  19.375  0.00  0.00    +0.000 N 
ATOM     20  H   UNL     1       2.263   7.402  18.370  0.00  0.00    +0.000 HD
BRANCH  19  21
ATOM     21  C   UNL     1       1.560   8.447  20.053  0.00  0.00    +0.000 A 
ATOM     22  C   UNL     1       1.251   8.408  21.422  0.00  0.00    +0.000 A 
ATOM     23  C   UNL     1       0.624   9.468  22.085  0.00  0.00    +0.000 A 
ATOM     24  C   UNL     1       0.320  10.581  21.313  0.00  0.00    +0.000 A 
ATOM     25  N   UNL     1      -0.320  11.756  21.610  0.00  0.00    +0.000 N 
ATOM     26  C   UNL     1      -0.365  12.507  20.471  0.00  0.00    +0.000 A 
ATOM     27  N   UNL     1       0.222  11.899  19.465  0.00  0.00    +0.000 NA
ATOM     28  C   UNL     1       0.645  10.688  19.965  0.00  0.00    +0.000 A 
ATOM     29  C   UNL     1       1.298   9.617  19.323  0.00  0.00    +0.000 A 
ATOM     30  H   UNL     1      -0.708  12.007  22.509  0.00  0.00    +0.000 HD
ENDBRANCH  19  21
ENDBRANCH   4  17
TORSDOF 3
ENDMDL
MODEL 2
REMARK VINA RESULT:      -8.5      0.698      1.639
REMARK  Name = 
REMARK  4 active torsions:
REMARK  status: ('A' for Active; 'I' for Inactive)
REMARK    1  A    between atoms: C_1  and  N_2
REMARK    2  A    between atoms: C_4  and  C_5
REMARK    3  A    between atoms: N_7  and  C_8
REMARK    4  A    between atoms: C_20  and  C_21
REMARK                            x       y       z     vdW  Elec       q    Type
REMARK                         _______ _______ _______ _____ _____    ______ ____
ROOT
ATOM      1  C   UNL     1       3.605   1.766  18.549  0.00  0.00    +0.000 C 
ATOM      2  N   UNL     1       3.444   3.202  18.512  0.00  0.00    +0.000 N 
ATOM      3  C   UNL     1       2.745   3.924  19.431  0.00  0.00    +0.000 A 
ATOM      4  C   UNL     1       2.815   5.271  19.093  0.00  0.00    +0.000 A 
ATOM      5  C   UNL     1       3.594   5.343  17.908  0.00  0.00    +0.000 A 
ATOM      6  N   UNL     1       3.955   6.428  17.176  0.00  0.00    +0.000 NA
ATOM      7  C   UNL     1       4.729   6.141  16.090  0.00  0.00    +0.000 A 
ATOM      8  C   UNL     1       5.159   4.879  15.655  0.00  0.00    +0.000 A 
ATOM      9  C   UNL     1       4.755   3.788  16.434  0.00  0.00    +0.000 A 
ATOM     10  C   UNL     1       3.974   4.044  17.565  0.00  0.00    +0.000 A 
ENDROOT
BRANCH   8  11
ATOM     11  C   UNL     1       5.977   4.683  14.435  0.00  0.00    +0.000 A 
ATOM     12  C   UNL     1       7.182   5.388  14.236  0.00  0.00    +0.000 A 
ATOM     13  C   UNL     1       7.987   5.168  13.114  0.00  0.00    +0.000 A 
ATOM     14  C   UNL     1       7.596   4.248  12.148  0.00  0.00    +0.000 A 
ATOM     15  C   UNL     1       6.403   3.551  12.306  0.00  0.00    +0.000 A 
ATOM     16  C   UNL     1       5.608   3.762  13.438  0.00  0.00    +0.000 A 
ENDBRANCH   8  11
BRANCH   4  17
ATOM     17  C   UNL     1       2.168   6.301  19.898  0.00  0.00    +0.000 C 
ATOM     18  O   UNL     1       1.832   6.030  21.048  0.00  0.00    +0.000 OA
ATOM     19  N   UNL     1       1.944   7.515  19.274  0.00  0.00    +0.000 N 
ATOM     20  H   UNL     1       2.133   7.555  18.275  0.00  0.00    +0.000 HD
BRANCH  19  21
ATOM     21  C   UNL     1       1.321   8.636  19.884  0.00  0.00    +0.000 A 
ATOM     22  C   UNL     1       1.426   9.930  19.348  0.00  0.00    +0.000 A 
ATOM     23  C   UNL     1       0.891  11.055  19.982  0.00  0.00    +0.000 A 
ATOM     24  C   UNL     1       0.236  10.830  21.185  0.00  0.00    +0.000 A 
ATOM     25  N   UNL     1      -0.356  11.682  22.081  0.00  0.00    +0.000 N 
ATOM     26  C   UNL     1      -0.843  10.932  23.112  0.00  0.00    +0.000 A 
ATOM     27  N   UNL     1      -0.619   9.649  22.928  0.00  0.00    +0.000 NA
ATOM     28  C   UNL     1       0.066   9.564  21.737  0.00  0.00    +0.000 A 
ATOM     29  C   UNL     1       0.593   8.441  21.068  0.00  0.00    +0.000 A 
ATOM     30  H   UNL     1      -0.400  12.688  21.999  0.00  0.00    +0.000 HD
ENDBRANCH  19  21
ENDBRANCH   4  17
TORSDOF 3
ENDMDL
MODEL 3
REMARK VINA RESULT:      -8.5      3.489     10.310
REMARK  Name = 
REMARK  4 active torsions:
REMARK  status: ('A' for Active; 'I' for Inactive)
REMARK    1  A    between atoms: C_1  and  N_2
REMARK    2  A    between atoms: C_4  and  C_5
REMARK    3  A    between atoms: N_7  and  C_8
REMARK    4  A    between atoms: C_20  and  C_21
REMARK                            x       y       z     vdW  Elec       q    Type
REMARK                         _______ _______ _______ _____ _____    ______ ____
ROOT
ATOM      1  C   UNL     1       1.717  13.444  18.168  0.00  0.00    +0.000 C 
ATOM      2  N   UNL     1       1.554  12.079  18.613  0.00  0.00    +0.000 N 
ATOM      3  C   UNL     1       2.135  10.999  18.020  0.00  0.00    +0.000 A 
ATOM      4  C   UNL     1       1.775   9.853  18.719  0.00  0.00    +0.000 A 
ATOM      5  C   UNL     1       0.932  10.282  19.778  0.00  0.00    +0.000 A 
ATOM      6  N   UNL     1       0.316   9.552  20.742  0.00  0.00    +0.000 NA
ATOM      7  C   UNL     1      -0.418  10.290  21.623  0.00  0.00    +0.000 A 
ATOM      8  C   UNL     1      -0.613  11.679  21.623  0.00  0.00    +0.000 A 
ATOM      9  C   UNL     1       0.033  12.391  20.605  0.00  0.00    +0.000 A 
ATOM     10  C   UNL     1       0.809  11.670  19.692  0.00  0.00    +0.000 A 
ENDROOT
BRANCH   8  11
ATOM     11  C   UNL     1      -1.462  12.374  22.619  0.00  0.00    +0.000 A 
ATOM     12  C   UNL     1      -1.098  13.631  23.145  0.00  0.00    +0.000 A 
ATOM     13  C   UNL     1      -1.921  14.318  24.044  0.00  0.00    +0.000 A 
ATOM     14  C   UNL     1      -3.123  13.756  24.455  0.00  0.00    +0.000 A 
ATOM     15  C   UNL     1      -3.501  12.508  23.968  0.00  0.00    +0.000 A 
ATOM     16  C   UNL     1      -2.683  11.830  23.057  0.00  0.00    +0.000 A 
ENDBRANCH   8  11
BRANCH   4  17
ATOM     17  C   UNL     1       2.252   8.531  18.329  0.00  0.00    +0.000 C 
ATOM     18  O   UNL     1       2.487   8.313  17.143  0.00  0.00    +0.000 OA
ATOM     19  N   UNL     1       2.365   7.596  19.342  0.00  0.00    +0.000 N 
ATOM     20  H   UNL     1       1.992   7.863  20.250  0.00  0.00    +0.000 HD
BRANCH  19  21
ATOM     21  C   UNL     1       2.802   6.256  19.163  0.00  0.00    +0.000 A 
ATOM     22  C   UNL     1       4.116   5.856  19.453  0.00  0.00    +0.000 A 
ATOM     23  C   UNL     1       4.584   4.563  19.202  0.00  0.00    +0.000 A 
ATOM     24  C   UNL     1       3.671   3.675  18.648  0.00  0.00    +0.000 A 
ATOM     25  N   UNL     1       3.791   2.374  18.238  0.00  0.00    +0.000 N 
ATOM     26  C   UNL     1       2.579   1.976  17.751  0.00  0.00    +0.000 A 
ATOM     27  N   UNL     1       1.683   2.933  17.838  0.00  0.00    +0.000 NA
ATOM     28  C   UNL     1       2.347   4.008  18.383  0.00  0.00    +0.000 A 
ATOM     29  C   UNL     1       1.890   5.311  18.666  0.00  0.00    +0.000 A 
ATOM     30  H   UNL     1       4.635   1.819  18.271  0.00  0.00    +0.000 HD
ENDBRANCH  19  21
ENDBRANCH   4  17
TORSDOF 3
ENDMDL
MODEL 4
REMARK VINA RESULT:      -8.4      2.636     10.643
REMARK  Name = 
REMARK  4 active torsions:
REMARK  status: ('A' for Active; 'I' for Inactive)
REMARK    1  A    between atoms: C_1  and  N_2
REMARK    2  A    between atoms: C_4  and  C_5
REMARK    3  A    between atoms: N_7  and  C_8
REMARK    4  A    between atoms: C_20  and  C_21
REMARK                            x       y       z     vdW  Elec       q    Type
REMARK                         _______ _______ _______ _____ _____    ______ ____
ROOT
ATOM      1  C   UNL     1       0.587  12.571  18.257  0.00  0.00    +0.000 C 
ATOM      2  N   UNL     1       0.635  11.404  19.108  0.00  0.00    +0.000 N 
ATOM      3  C   UNL     1       1.273  10.243  18.791  0.00  0.00    +0.000 A 
ATOM      4  C   UNL     1       1.128   9.348  19.844  0.00  0.00    +0.000 A 
ATOM      5  C   UNL     1       0.359  10.017  20.832  0.00  0.00    +0.000 A 
ATOM      6  N   UNL     1      -0.058   9.577  22.046  0.00  0.00    +0.000 NA
ATOM      7  C   UNL     1      -0.776  10.492  22.759  0.00  0.00    +0.000 A 
ATOM      8  C   UNL     1      -1.133  11.792  22.370  0.00  0.00    +0.000 A 
ATOM      9  C   UNL     1      -0.689  12.200  21.106  0.00  0.00    +0.000 A 
ATOM     10  C   UNL     1       0.064  11.295  20.352  0.00  0.00    +0.000 A 
ENDROOT
BRANCH   8  11
ATOM     11  C   UNL     1      -1.946  12.693  23.220  0.00  0.00    +0.000 A 
ATOM     12  C   UNL     1      -3.234  12.325  23.659  0.00  0.00    +0.000 A 
ATOM     13  C   UNL     1      -3.986  13.146  24.506  0.00  0.00    +0.000 A 
ATOM     14  C   UNL     1      -3.474  14.369  24.921  0.00  0.00    +0.000 A 
ATOM     15  C   UNL     1      -2.214  14.770  24.489  0.00  0.00    +0.000 A 
ATOM     16  C   UNL     1      -1.458  13.939  23.655  0.00  0.00    +0.000 A 
ENDBRANCH   8  11
BRANCH   4  17
ATOM     17  C   UNL     1       1.714   8.012  19.805  0.00  0.00    +0.000 C 
ATOM     18  O   UNL     1       1.682   7.321  20.821  0.00  0.00    +0.000 OA
ATOM     19  N   UNL     1       2.308   7.637  18.613  0.00  0.00    +0.000 N 
ATOM     20  H   UNL     1       2.399   8.361  17.903  0.00  0.00    +0.000 HD
BRANCH  19  21
ATOM     21  C   UNL     1       2.938   6.386  18.380  0.00  0.00    +0.000 A 
ATOM     22  C   UNL     1       4.255   6.293  17.905  0.00  0.00    +0.000 A 
ATOM     23  C   UNL     1       4.860   5.073  17.590  0.00  0.00    +0.000 A 
ATOM     24  C   UNL     1       4.084   3.936  17.776  0.00  0.00    +0.000 A 
ATOM     25  N   UNL     1       4.328   2.610  17.535  0.00  0.00    +0.000 N 
ATOM     26  C   UNL     1       3.211   1.909  17.888  0.00  0.00    +0.000 A 
ATOM     27  N   UNL     1       2.272   2.697  18.360  0.00  0.00    +0.000 NA
ATOM     28  C   UNL     1       2.791   3.970  18.286  0.00  0.00    +0.000 A 
ATOM     29  C   UNL     1       2.210   5.210  18.620  0.00  0.00    +0.000 A 
ATOM     30  H   UNL     1       5.177   2.227  17.143  0.00  0.00    +0.000 HD
ENDBRANCH  19  21
ENDBRANCH   4  17
TORSDOF 3
ENDMDL
MODEL 5
REMARK VINA RESULT:      -8.4      2.618     10.620
REMARK  Name = 
REMARK  4 active torsions:
REMARK  status: ('A' for Active; 'I' for Inactive)
REMARK    1  A    between atoms: C_1  and  N_2
REMARK    2  A    between atoms: C_4  and  C_5
REMARK    3  A    between atoms: N_7  and  C_8
REMARK    4  A    between atoms: C_20  and  C_21
REMARK                            x       y       z     vdW  Elec       q    Type
REMARK                         _______ _______ _______ _____ _____    ______ ____
ROOT
ATOM      1  C   UNL     1      -1.088  12.005  17.724  0.00  0.00    +0.000 C 
ATOM      2  N   UNL     1      -0.465  11.094  18.657  0.00  0.00    +0.000 N 
ATOM      3  C   UNL     1       0.347  10.061  18.301  0.00  0.00    +0.000 A 
ATOM      4  C   UNL     1       0.777   9.409  19.451  0.00  0.00    +0.000 A 
ATOM      5  C   UNL     1       0.181  10.094  20.542  0.00  0.00    +0.000 A 
ATOM      6  N   UNL     1       0.283   9.852  21.874  0.00  0.00    +0.000 NA
ATOM      7  C   UNL     1      -0.416  10.722  22.658  0.00  0.00    +0.000 A 
ATOM      8  C   UNL     1      -1.220  11.794  22.243  0.00  0.00    +0.000 A 
ATOM      9  C   UNL     1      -1.304  12.001  20.860  0.00  0.00    +0.000 A 
ATOM     10  C   UNL     1      -0.588  11.139  20.024  0.00  0.00    +0.000 A 
ENDROOT
BRANCH   8  11
ATOM     11  C   UNL     1      -1.962  12.660  23.189  0.00  0.00    +0.000 A 
ATOM     12  C   UNL     1      -1.422  13.879  23.648  0.00  0.00    +0.000 A 
ATOM     13  C   UNL     1      -2.139  14.727  24.498  0.00  0.00    +0.000 A 
ATOM     14  C   UNL     1      -3.411  14.368  24.927  0.00  0.00    +0.000 A 
ATOM     15  C   UNL     1      -3.964  13.163  24.506  0.00  0.00    +0.000 A 
ATOM     16  C   UNL     1      -3.250  12.323  23.643  0.00  0.00    +0.000 A 
ENDBRANCH   8  11
BRANCH   4  17
ATOM     17  C   UNL     1       1.672   8.259  19.396  0.00  0.00    +0.000 C 
ATOM     18  O   UNL     1       2.017   7.725  20.447  0.00  0.00    +0.000 OA
ATOM     19  N   UNL     1       2.104   7.878  18.137  0.00  0.00    +0.000 N 
ATOM     20  H   UNL     1       1.865   8.499  17.367  0.00  0.00    +0.000 HD
BRANCH  19  21
ATOM     21  C   UNL     1       2.982   6.793  17.876  0.00  0.00    +0.000 A 
ATOM     22  C   UNL     1       2.581   5.456  18.031  0.00  0.00    +0.000 A 
ATOM     23  C   UNL     1       3.458   4.381  17.860  0.00  0.00    +0.000 A 
ATOM     24  C   UNL     1       4.765   4.701  17.520  0.00  0.00    +0.000 A 
ATOM     25  N   UNL     1       5.878   3.927  17.323  0.00  0.00    +0.000 N 
ATOM     26  C   UNL     1       6.917   4.757  17.018  0.00  0.00    +0.000 A 
ATOM     27  N   UNL     1       6.540   6.016  16.987  0.00  0.00    +0.000 NA
ATOM     28  C   UNL     1       5.202   6.005  17.311  0.00  0.00    +0.000 A 
ATOM     29  C   UNL     1       4.295   7.073  17.466  0.00  0.00    +0.000 A 
ATOM     30  H   UNL     1       5.921   2.921  17.412  0.00  0.00    +0.000 HD
ENDBRANCH  19  21
ENDBRANCH   4  17
TORSDOF 3
ENDMDL
MODEL 6
REMARK VINA RESULT:      -8.4      3.426     10.274
REMARK  Name = 
REMARK  4 active torsions:
REMARK  status: ('A' for Active; 'I' for Inactive)
REMARK    1  A    between atoms: C_1  and  N_2
REMARK    2  A    between atoms: C_4  and  C_5
REMARK    3  A    between atoms: N_7  and  C_8
REMARK    4  A    between atoms: C_20  and  C_21
REMARK                            x       y       z     vdW  Elec       q    Type
REMARK                         _______ _______ _______ _____ _____    ______ ____
ROOT
ATOM      1  C   UNL     1       0.080  12.705  21.270  0.00  0.00    +0.000 C 
ATOM      2  N   UNL     1       0.040  11.715  20.218  0.00  0.00    +0.000 N 
ATOM      3  C   UNL     1       1.093  10.930  19.856  0.00  0.00    +0.000 A 
ATOM      4  C   UNL     1       0.692  10.087  18.826  0.00  0.00    +0.000 A 
ATOM      5  C   UNL     1      -0.668  10.397  18.565  0.00  0.00    +0.000 A 
ATOM      6  N   UNL     1      -1.517   9.858  17.653  0.00  0.00    +0.000 NA
ATOM      7  C   UNL     1      -2.776  10.384  17.678  0.00  0.00    +0.000 A 
ATOM      8  C   UNL     1      -3.261  11.405  18.509  0.00  0.00    +0.000 A 
ATOM      9  C   UNL     1      -2.348  11.937  19.427  0.00  0.00    +0.000 A 
ATOM     10  C   UNL     1      -1.052  11.413  19.442  0.00  0.00    +0.000 A 
ENDROOT
BRANCH   8  11
ATOM     11  C   UNL     1      -4.648  11.920  18.426  0.00  0.00    +0.000 A 
ATOM     12  C   UNL     1      -5.361  12.299  19.582  0.00  0.00    +0.000 A 
ATOM     13  C   UNL     1      -6.650  12.838  19.508  0.00  0.00    +0.000 A 
ATOM     14  C   UNL     1      -7.268  12.994  18.274  0.00  0.00    +0.000 A 
ATOM     15  C   UNL     1      -6.597  12.612  17.116  0.00  0.00    +0.000 A 
ATOM     16  C   UNL     1      -5.302  12.088  17.192  0.00  0.00    +0.000 A 
ENDBRANCH   8  11
BRANCH   4  17
ATOM     17  C   UNL     1       1.602   9.115  18.229  0.00  0.00    +0.000 C 
ATOM     18  O   UNL     1       2.072   9.349  17.118  0.00  0.00    +0.000 OA
ATOM     19  N   UNL     1       1.836   7.964  18.959  0.00  0.00    +0.000 N 
ATOM     20  H   UNL     1       1.264   7.829  19.791  0.00  0.00    +0.000 HD
BRANCH  19  21
ATOM     21  C   UNL     1       2.680   6.900  18.546  0.00  0.00    +0.000 A 
ATOM     22  C   UNL     1       3.860   7.124  17.819  0.00  0.00    +0.000 A 
ATOM     23  C   UNL     1       4.656   6.083  17.332  0.00  0.00    +0.000 A 
ATOM     24  C   UNL     1       4.221   4.795  17.609  0.00  0.00    +0.000 A 
ATOM     25  N   UNL     1       4.713   3.565  17.260  0.00  0.00    +0.000 N 
ATOM     26  C   UNL     1       3.886   2.617  17.789  0.00  0.00    +0.000 A 
ATOM     27  N   UNL     1       2.903   3.158  18.473  0.00  0.00    +0.000 NA
ATOM     28  C   UNL     1       3.085   4.518  18.363  0.00  0.00    +0.000 A 
ATOM     29  C   UNL     1       2.310   5.583  18.864  0.00  0.00    +0.000 A 
ATOM     30  H   UNL     1       5.531   3.396  16.691  0.00  0.00    +0.000 HD
ENDBRANCH  19  21
ENDBRANCH   4  17
TORSDOF 3
ENDMDL
MODEL 7
REMARK VINA RESULT:      -8.3      3.856     10.471
REMARK  Name = 
REMARK  4 active torsions:
REMARK  status: ('A' for Active; 'I' for Inactive)
REMARK    1  A    between atoms: C_1  and  N_2
REMARK    2  A    between atoms: C_4  and  C_5
REMARK    3  A    between atoms: N_7  and  C_8
REMARK    4  A    between atoms: C_20  and  C_21
REMARK                            x       y       z     vdW  Elec       q    Type
REMARK                         _______ _______ _______ _____ _____    ______ ____
ROOT
ATOM      1  C   UNL     1       1.467  13.117  18.378  0.00  0.00    +0.000 C 
ATOM      2  N   UNL     1       1.250  11.817  18.972  0.00  0.00    +0.000 N 
ATOM      3  C   UNL     1       1.761  10.652  18.486  0.00  0.00    +0.000 A 
ATOM      4  C   UNL     1       1.365   9.607  19.313  0.00  0.00    +0.000 A 
ATOM      5  C   UNL     1       0.575  10.191  20.339  0.00  0.00    +0.000 A 
ATOM      6  N   UNL     1      -0.047   9.600  21.391  0.00  0.00    +0.000 NA
ATOM      7  C   UNL     1      -0.718  10.465  22.204  0.00  0.00    +0.000 A 
ATOM      8  C   UNL     1      -0.845  11.855  22.058  0.00  0.00    +0.000 A 
ATOM      9  C   UNL     1      -0.195  12.419  20.953  0.00  0.00    +0.000 A 
ATOM     10  C   UNL     1       0.518  11.566  20.106  0.00  0.00    +0.000 A 
ENDROOT
BRANCH   8  11
ATOM     11  C   UNL     1      -1.630  12.696  22.992  0.00  0.00    +0.000 A 
ATOM     12  C   UNL     1      -1.136  13.930  23.462  0.00  0.00    +0.000 A 
ATOM     13  C   UNL     1      -1.893  14.755  24.300  0.00  0.00    +0.000 A 
ATOM     14  C   UNL     1      -3.161  14.355  24.707  0.00  0.00    +0.000 A 
ATOM     15  C   UNL     1      -3.668  13.134  24.275  0.00  0.00    +0.000 A 
ATOM     16  C   UNL     1      -2.915  12.319  23.424  0.00  0.00    +0.000 A 
ENDBRANCH   8  11
BRANCH   4  17
ATOM     17  C   UNL     1       1.766   8.228  19.057  0.00  0.00    +0.000 C 
ATOM     18  O   UNL     1       2.032   7.893  17.906  0.00  0.00    +0.000 OA
ATOM     19  N   UNL     1       1.775   7.379  20.150  0.00  0.00    +0.000 N 
ATOM     20  H   UNL     1       1.386   7.748  21.015  0.00  0.00    +0.000 HD
BRANCH  19  21
ATOM     21  C   UNL     1       2.126   6.004  20.104  0.00  0.00    +0.000 A 
ATOM     22  C   UNL     1       1.244   4.996  20.526  0.00  0.00    +0.000 A 
ATOM     23  C   UNL     1       1.604   3.646  20.567  0.00  0.00    +0.000 A 
ATOM     24  C   UNL     1       2.896   3.342  20.159  0.00  0.00    +0.000 A 
ATOM     25  N   UNL     1       3.589   2.161  20.112  0.00  0.00    +0.000 N 
ATOM     26  C   UNL     1       4.841   2.429  19.639  0.00  0.00    +0.000 A 
ATOM     27  N   UNL     1       4.992   3.705  19.360  0.00  0.00    +0.000 NA
ATOM     28  C   UNL     1       3.793   4.296  19.690  0.00  0.00    +0.000 A 
ATOM     29  C   UNL     1       3.400   5.649  19.635  0.00  0.00    +0.000 A 
ATOM     30  H   UNL     1       3.239   1.259  20.401  0.00  0.00    +0.000 HD
ENDBRANCH  19  21
ENDBRANCH   4  17
TORSDOF 3
ENDMDL
MODEL 8
REMARK VINA RESULT:      -8.3      1.942      3.410
REMARK  Name = 
REMARK  4 active torsions:
REMARK  status: ('A' for Active; 'I' for Inactive)
REMARK    1  A    between atoms: C_1  and  N_2
REMARK    2  A    between atoms: C_4  and  C_5
REMARK    3  A    between atoms: N_7  and  C_8
REMARK    4  A    between atoms: C_20  and  C_21
REMARK                            x       y       z     vdW  Elec       q    Type
REMARK                         _______ _______ _______ _____ _____    ______ ____
ROOT
ATOM      1  C   UNL     1       1.964   4.392  21.187  0.00  0.00    +0.000 C 
ATOM      2  N   UNL     1       1.962   5.716  20.609  0.00  0.00    +0.000 N 
ATOM      3  C   UNL     1       1.318   6.791  21.143  0.00  0.00    +0.000 A 
ATOM      4  C   UNL     1       1.545   7.899  20.335  0.00  0.00    +0.000 A 
ATOM      5  C   UNL     1       2.363   7.450  19.266  0.00  0.00    +0.000 A 
ATOM      6  N   UNL     1       2.863   8.143  18.211  0.00  0.00    +0.000 NA
ATOM      7  C   UNL     1       3.634   7.400  17.365  0.00  0.00    +0.000 A 
ATOM      8  C   UNL     1       3.938   6.034  17.460  0.00  0.00    +0.000 A 
ATOM      9  C   UNL     1       3.393   5.357  18.559  0.00  0.00    +0.000 A 
ATOM     10  C   UNL     1       2.610   6.089  19.457  0.00  0.00    +0.000 A 
ENDROOT
BRANCH   8  11
ATOM     11  C   UNL     1       4.767   5.320  16.460  0.00  0.00    +0.000 A 
ATOM     12  C   UNL     1       5.445   6.015  15.438  0.00  0.00    +0.000 A 
ATOM     13  C   UNL     1       6.274   5.355  14.525  0.00  0.00    +0.000 A 
ATOM     14  C   UNL     1       6.429   3.976  14.598  0.00  0.00    +0.000 A 
ATOM     15  C   UNL     1       5.757   3.260  15.584  0.00  0.00    +0.000 A 
ATOM     16  C   UNL     1       4.942   3.925  16.507  0.00  0.00    +0.000 A 
ENDBRANCH   8  11
BRANCH   4  17
ATOM     17  C   UNL     1       0.990   9.210  20.653  0.00  0.00    +0.000 C 
ATOM     18  O   UNL     1       0.837   9.519  21.832  0.00  0.00    +0.000 OA
ATOM     19  N   UNL     1       0.633  10.002  19.576  0.00  0.00    +0.000 N 
ATOM     20  H   UNL     1       0.670   9.565  18.658  0.00  0.00    +0.000 HD
BRANCH  19  21
ATOM     21  C   UNL     1       0.070  11.302  19.678  0.00  0.00    +0.000 A 
ATOM     22  C   UNL     1      -1.239  11.512  20.140  0.00  0.00    +0.000 A 
ATOM     23  C   UNL     1      -1.837  12.775  20.166  0.00  0.00    +0.000 A 
ATOM     24  C   UNL     1      -1.060  13.832  19.710  0.00  0.00    +0.000 A 
ATOM     25  N   UNL     1      -1.329  15.167  19.554  0.00  0.00    +0.000 N 
ATOM     26  C   UNL     1      -0.208  15.762  19.051  0.00  0.00    +0.000 A 
ATOM     27  N   UNL     1       0.771  14.899  18.892  0.00  0.00    +0.000 NA
ATOM     28  C   UNL     1       0.256  13.685  19.285  0.00  0.00    +0.000 A 
ATOM     29  C   UNL     1       0.846  12.405  19.290  0.00  0.00    +0.000 A 
ATOM     30  H   UNL     1      -2.209  15.620  19.754  0.00  0.00    +0.000 HD
ENDBRANCH  19  21
ENDBRANCH   4  17
TORSDOF 3
ENDMDL
MODEL 9
REMARK VINA RESULT:      -8.3      2.188      9.253
REMARK  Name = 
REMARK  4 active torsions:
REMARK  status: ('A' for Active; 'I' for Inactive)
REMARK    1  A    between atoms: C_1  and  N_2
REMARK    2  A    between atoms: C_4  and  C_5
REMARK    3  A    between atoms: N_7  and  C_8
REMARK    4  A    between atoms: C_20  and  C_21
REMARK                            x       y       z     vdW  Elec       q    Type
REMARK                         _______ _______ _______ _____ _____    ______ ____
ROOT
ATOM      1  C   UNL     1      -0.495  10.074  22.865  0.00  0.00    +0.000 C 
ATOM      2  N   UNL     1       0.295   9.722  21.707  0.00  0.00    +0.000 N 
ATOM      3  C   UNL     1       0.769   8.472  21.447  0.00  0.00    +0.000 A 
ATOM      4  C   UNL     1       1.469   8.496  20.246  0.00  0.00    +0.000 A 
ATOM      5  C   UNL     1       1.406   9.835  19.777  0.00  0.00    +0.000 A 
ATOM      6  N   UNL     1       1.931  10.380  18.651  0.00  0.00    +0.000 NA
ATOM      7  C   UNL     1       1.668  11.710  18.495  0.00  0.00    +0.000 A 
ATOM      8  C   UNL     1       0.950  12.548  19.361  0.00  0.00    +0.000 A 
ATOM      9  C   UNL     1       0.435  11.944  20.515  0.00  0.00    +0.000 A 
ATOM     10  C   UNL     1       0.671  10.579  20.702  0.00  0.00    +0.000 A 
ENDROOT
BRANCH   8  11
ATOM     11  C   UNL     1       0.751  13.994  19.104  0.00  0.00    +0.000 A 
ATOM     12  C   UNL     1      -0.499  14.612  19.311  0.00  0.00    +0.000 A 
ATOM     13  C   UNL     1      -0.680  15.986  19.123  0.00  0.00    +0.000 A 
ATOM     14  C   UNL     1       0.383  16.776  18.702  0.00  0.00    +0.000 A 
ATOM     15  C   UNL     1       1.624  16.192  18.471  0.00  0.00    +0.000 A 
ATOM     16  C   UNL     1       1.807  14.820  18.676  0.00  0.00    +0.000 A 
ENDBRANCH   8  11
BRANCH   4  17
ATOM     17  C   UNL     1       2.090   7.298  19.693  0.00  0.00    +0.000 C 
ATOM     18  O   UNL     1       2.009   6.245  20.321  0.00  0.00    +0.000 OA
ATOM     19  N   UNL     1       2.772   7.456  18.500  0.00  0.00    +0.000 N 
ATOM     20  H   UNL     1       2.891   8.410  18.167  0.00  0.00    +0.000 HD
BRANCH  19  21
ATOM     21  C   UNL     1       3.448   6.416  17.810  0.00  0.00    +0.000 A 
ATOM     22  C   UNL     1       2.978   5.093  17.809  0.00  0.00    +0.000 A 
ATOM     23  C   UNL     1       3.677   4.043  17.207  0.00  0.00    +0.000 A 
ATOM     24  C   UNL     1       4.877   4.375  16.594  0.00  0.00    +0.000 A 
ATOM     25  N   UNL     1       5.825   3.616  15.960  0.00  0.00    +0.000 N 
ATOM     26  C   UNL     1       6.824   4.450  15.549  0.00  0.00    +0.000 A 
ATOM     27  N   UNL     1       6.570   5.702  15.862  0.00  0.00    +0.000 NA
ATOM     28  C   UNL     1       5.366   5.676  16.527  0.00  0.00    +0.000 A 
ATOM     29  C   UNL     1       4.632   6.723  17.121  0.00  0.00    +0.000 A 
ATOM     30  H   UNL     1       5.796   2.613  15.841  0.00  0.00    +0.000 HD
ENDBRANCH  19  21
ENDBRANCH   4  17
TORSDOF 3
ENDMDL
