MODEL 1
REMARK VINA RESULT:      -9.0      0.000      0.000
REMARK  Name = 
REMARK  3 active torsions:
REMARK  status: ('A' for Active; 'I' for Inactive)
REMARK    1  A    between atoms: C_1  and  C_2
REMARK    2  A    between atoms: C_4  and  O_5
REMARK    3  A    between atoms: O_5  and  C_6
REMARK                            x       y       z     vdW  Elec       q    Type
REMARK                         _______ _______ _______ _____ _____    ______ ____
ROOT
ATOM      1  C   UNL     1       7.057   4.297  17.117  0.00  0.00    +0.000 C 
ATOM      2  C   UNL     1       6.072   4.731  17.905  0.00  0.00    +0.000 C 
ATOM      3  C   UNL     1       6.264   5.327  19.242  0.00  0.00    +0.000 C 
ATOM      4  O   UNL     1       7.332   5.578  19.763  0.00  0.00    +0.000 OA
ATOM      5  O   UNL     1       5.034   5.518  19.803  0.00  0.00    +0.000 OA
ATOM      6  C   UNL     1       4.024   5.392  18.803  0.00  0.00    +0.000 C 
ATOM      7  C   UNL     1       2.859   4.542  19.217  0.00  0.00    +0.000 A 
ATOM      8  C   UNL     1       1.796   4.880  20.039  0.00  0.00    +0.000 A 
ATOM      9  C   UNL     1       0.775   3.941  20.227  0.00  0.00    +0.000 A 
ATOM     10  C   UNL     1       0.834   2.683  19.610  0.00  0.00    +0.000 A 
ATOM     11  C   UNL     1       1.914   2.343  18.797  0.00  0.00    +0.000 A 
ATOM     12  C   UNL     1       2.908   3.286  18.603  0.00  0.00    +0.000 A 
ATOM     13  C   UNL     1       4.143   3.132  17.780  0.00  0.00    +0.000 C 
ATOM     14  C   UNL     1       4.622   4.588  17.649  0.00  0.00    +0.000 C 
ENDROOT
BRANCH   1  15
ATOM     15  O   UNL     1       6.777   3.687  15.918  0.00  0.00    +0.000 OA
BRANCH  15  19
ATOM     16  C   UNL     1       4.702   3.401  11.725  0.00  0.00    +0.000 C 
ATOM     17  C   UNL     1       5.532   3.894  12.844  0.00  0.00    +0.000 C 
ATOM     18  C   UNL     1       5.268   4.000  14.145  0.00  0.00    +0.000 C 
ATOM     19  C   UNL     1       6.411   4.589  14.873  0.00  0.00    +0.000 C 
ATOM     20  O   UNL     1       7.413   4.751  13.875  0.00  0.00    +0.000 OA
ATOM     21  C   UNL     1       6.902   4.389  12.666  0.00  0.00    +0.000 C 
ATOM     22  O   UNL     1       7.485   4.463  11.602  0.00  0.00    +0.000 OA
ENDBRANCH  15  19
ENDBRANCH   1  15
TORSDOF 2
ENDMDL
MODEL 2
REMARK VINA RESULT:      -8.9      2.714      4.117
REMARK  Name = 
REMARK  3 active torsions:
REMARK  status: ('A' for Active; 'I' for Inactive)
REMARK    1  A    between atoms: C_1  and  C_2
REMARK    2  A    between atoms: C_4  and  O_5
REMARK    3  A    between atoms: O_5  and  C_6
REMARK                            x       y       z     vdW  Elec       q    Type
REMARK                         _______ _______ _______ _____ _____    ______ ____
ROOT
ATOM      1  C   UNL     1       4.834   6.617  16.603  0.00  0.00    +0.000 C 
ATOM      2  C   UNL     1       3.761   6.298  17.328  0.00  0.00    +0.000 C 
ATOM      3  C   UNL     1       2.879   7.271  18.001  0.00  0.00    +0.000 C 
ATOM      4  O   UNL     1       2.958   8.481  17.916  0.00  0.00    +0.000 OA
ATOM      5  O   UNL     1       1.979   6.578  18.757  0.00  0.00    +0.000 OA
ATOM      6  C   UNL     1       1.993   5.201  18.381  0.00  0.00    +0.000 C 
ATOM      7  C   UNL     1       2.030   4.252  19.542  0.00  0.00    +0.000 A 
ATOM      8  C   UNL     1       0.990   3.863  20.370  0.00  0.00    +0.000 A 
ATOM      9  C   UNL     1       1.244   2.899  21.352  0.00  0.00    +0.000 A 
ATOM     10  C   UNL     1       2.527   2.350  21.504  0.00  0.00    +0.000 A 
ATOM     11  C   UNL     1       3.573   2.757  20.679  0.00  0.00    +0.000 A 
ATOM     12  C   UNL     1       3.305   3.698  19.698  0.00  0.00    +0.000 A 
ATOM     13  C   UNL     1       4.270   4.270  18.716  0.00  0.00    +0.000 C 
ATOM     14  C   UNL     1       3.330   4.930  17.693  0.00  0.00    +0.000 C 
ENDROOT
BRANCH   1  15
ATOM     15  O   UNL     1       5.640   5.637  16.076  0.00  0.00    +0.000 OA
BRANCH  15  19
ATOM     16  C   UNL     1       8.205   5.556  19.998  0.00  0.00    +0.000 C 
ATOM     17  C   UNL     1       7.781   5.832  18.609  0.00  0.00    +0.000 C 
ATOM     18  C   UNL     1       7.240   5.037  17.689  0.00  0.00    +0.000 C 
ATOM     19  C   UNL     1       7.020   5.764  16.421  0.00  0.00    +0.000 C 
ATOM     20  O   UNL     1       7.419   7.099  16.713  0.00  0.00    +0.000 OA
ATOM     21  C   UNL     1       7.911   7.151  17.981  0.00  0.00    +0.000 C 
ATOM     22  O   UNL     1       8.387   8.135  18.514  0.00  0.00    +0.000 OA
ENDBRANCH  15  19
ENDBRANCH   1  15
TORSDOF 2
ENDMDL
MODEL 3
REMARK VINA RESULT:      -8.9      1.791      6.077
REMARK  Name = 
REMARK  3 active torsions:
REMARK  status: ('A' for Active; 'I' for Inactive)
REMARK    1  A    between atoms: C_1  and  C_2
REMARK    2  A    between atoms: C_4  and  O_5
REMARK    3  A    between atoms: O_5  and  C_6
REMARK                            x       y       z     vdW  Elec       q    Type
REMARK                         _______ _______ _______ _____ _____    ______ ____
ROOT
ATOM      1  C   UNL     1       5.664   5.509  18.849  0.00  0.00    +0.000 C 
ATOM      2  C   UNL     1       6.380   5.500  17.724  0.00  0.00    +0.000 C 
ATOM      3  C   UNL     1       7.146   6.650  17.204  0.00  0.00    +0.000 C 
ATOM      4  O   UNL     1       7.297   7.717  17.765  0.00  0.00    +0.000 OA
ATOM      5  O   UNL     1       7.631   6.316  15.973  0.00  0.00    +0.000 OA
ATOM      6  C   UNL     1       7.513   4.908  15.774  0.00  0.00    +0.000 C 
ATOM      7  C   UNL     1       6.951   4.525  14.437  0.00  0.00    +0.000 A 
ATOM      8  C   UNL     1       7.592   4.496  13.209  0.00  0.00    +0.000 A 
ATOM      9  C   UNL     1       6.883   4.029  12.098  0.00  0.00    +0.000 A 
ATOM     10  C   UNL     1       5.548   3.614  12.220  0.00  0.00    +0.000 A 
ATOM     11  C   UNL     1       4.903   3.661  13.454  0.00  0.00    +0.000 A 
ATOM     12  C   UNL     1       5.621   4.106  14.551  0.00  0.00    +0.000 A 
ATOM     13  C   UNL     1       5.129   4.238  15.953  0.00  0.00    +0.000 C 
ATOM     14  C   UNL     1       6.442   4.399  16.738  0.00  0.00    +0.000 C 
ENDROOT
BRANCH   1  15
ATOM     15  O   UNL     1       4.921   4.412  19.215  0.00  0.00    +0.000 OA
BRANCH  15  19
ATOM     16  C   UNL     1       0.865   2.076  18.974  0.00  0.00    +0.000 C 
ATOM     17  C   UNL     1       1.841   3.186  18.998  0.00  0.00    +0.000 C 
ATOM     18  C   UNL     1       2.874   3.421  19.803  0.00  0.00    +0.000 C 
ATOM     19  C   UNL     1       3.541   4.692  19.455  0.00  0.00    +0.000 C 
ATOM     20  O   UNL     1       2.839   5.150  18.304  0.00  0.00    +0.000 OA
ATOM     21  C   UNL     1       1.807   4.300  18.045  0.00  0.00    +0.000 C 
ATOM     22  O   UNL     1       0.982   4.440  17.162  0.00  0.00    +0.000 OA
ENDBRANCH  15  19
ENDBRANCH   1  15
TORSDOF 2
ENDMDL
MODEL 4
REMARK VINA RESULT:      -8.8      1.731      2.178
REMARK  Name = 
REMARK  3 active torsions:
REMARK  status: ('A' for Active; 'I' for Inactive)
REMARK    1  A    between atoms: C_1  and  C_2
REMARK    2  A    between atoms: C_4  and  O_5
REMARK    3  A    between atoms: O_5  and  C_6
REMARK                            x       y       z     vdW  Elec       q    Type
REMARK                         _______ _______ _______ _____ _____    ______ ____
ROOT
ATOM      1  C   UNL     1       6.728   4.691  15.113  0.00  0.00    +0.000 C 
ATOM      2  C   UNL     1       6.020   5.396  15.998  0.00  0.00    +0.000 C 
ATOM      3  C   UNL     1       6.560   6.489  16.829  0.00  0.00    +0.000 C 
ATOM      4  O   UNL     1       7.684   6.946  16.762  0.00  0.00    +0.000 OA
ATOM      5  O   UNL     1       5.589   6.876  17.706  0.00  0.00    +0.000 OA
ATOM      6  C   UNL     1       4.331   6.338  17.301  0.00  0.00    +0.000 C 
ATOM      7  C   UNL     1       3.545   5.716  18.417  0.00  0.00    +0.000 A 
ATOM      8  C   UNL     1       2.793   6.346  19.396  0.00  0.00    +0.000 A 
ATOM      9  C   UNL     1       2.076   5.553  20.298  0.00  0.00    +0.000 A 
ATOM     10  C   UNL     1       2.130   4.153  20.224  0.00  0.00    +0.000 A 
ATOM     11  C   UNL     1       2.901   3.525  19.248  0.00  0.00    +0.000 A 
ATOM     12  C   UNL     1       3.590   4.320  18.348  0.00  0.00    +0.000 A 
ATOM     13  C   UNL     1       4.469   3.859  17.234  0.00  0.00    +0.000 C 
ATOM     14  C   UNL     1       4.618   5.141  16.396  0.00  0.00    +0.000 C 
ENDROOT
BRANCH   1  15
ATOM     15  O   UNL     1       6.156   3.640  14.437  0.00  0.00    +0.000 OA
BRANCH  15  19
ATOM     16  C   UNL     1       3.402   3.028  10.695  0.00  0.00    +0.000 C 
ATOM     17  C   UNL     1       4.608   3.120  11.544  0.00  0.00    +0.000 C 
ATOM     18  C   UNL     1       4.971   4.029  12.446  0.00  0.00    +0.000 C 
ATOM     19  C   UNL     1       6.296   3.711  13.018  0.00  0.00    +0.000 C 
ATOM     20  O   UNL     1       6.647   2.471  12.412  0.00  0.00    +0.000 OA
ATOM     21  C   UNL     1       5.688   2.128  11.509  0.00  0.00    +0.000 C 
ATOM     22  O   UNL     1       5.718   1.153  10.783  0.00  0.00    +0.000 OA
ENDBRANCH  15  19
ENDBRANCH   1  15
TORSDOF 2
ENDMDL
MODEL 5
REMARK VINA RESULT:      -8.8      1.927      6.523
REMARK  Name = 
REMARK  3 active torsions:
REMARK  status: ('A' for Active; 'I' for Inactive)
REMARK    1  A    between atoms: C_1  and  C_2
REMARK    2  A    between atoms: C_4  and  O_5
REMARK    3  A    between atoms: O_5  and  C_6
REMARK                            x       y       z     vdW  Elec       q    Type
REMARK                         _______ _______ _______ _____ _____    ______ ____
ROOT
ATOM      1  C   UNL     1       5.507   5.446  18.757  0.00  0.00    +0.000 C 
ATOM      2  C   UNL     1       6.260   5.463  17.656  0.00  0.00    +0.000 C 
ATOM      3  C   UNL     1       7.022   6.631  17.174  0.00  0.00    +0.000 C 
ATOM      4  O   UNL     1       7.136   7.694  17.751  0.00  0.00    +0.000 OA
ATOM      5  O   UNL     1       7.551   6.320  15.955  0.00  0.00    +0.000 OA
ATOM      6  C   UNL     1       7.465   4.912  15.737  0.00  0.00    +0.000 C 
ATOM      7  C   UNL     1       6.952   4.535  14.378  0.00  0.00    +0.000 A 
ATOM      8  C   UNL     1       7.634   4.532  13.172  0.00  0.00    +0.000 A 
ATOM      9  C   UNL     1       6.968   4.065  12.033  0.00  0.00    +0.000 A 
ATOM     10  C   UNL     1       5.637   3.626  12.107  0.00  0.00    +0.000 A 
ATOM     11  C   UNL     1       4.953   3.648  13.321  0.00  0.00    +0.000 A 
ATOM     12  C   UNL     1       5.627   4.093  14.445  0.00  0.00    +0.000 A 
ATOM     13  C   UNL     1       5.088   4.199  15.831  0.00  0.00    +0.000 C 
ATOM     14  C   UNL     1       6.373   4.374  16.660  0.00  0.00    +0.000 C 
ENDROOT
BRANCH   1  15
ATOM     15  O   UNL     1       4.773   4.333  19.087  0.00  0.00    +0.000 OA
BRANCH  15  19
ATOM     16  C   UNL     1       1.203   2.708  21.654  0.00  0.00    +0.000 C 
ATOM     17  C   UNL     1       1.963   3.325  20.546  0.00  0.00    +0.000 C 
ATOM     18  C   UNL     1       2.942   4.226  20.556  0.00  0.00    +0.000 C 
ATOM     19  C   UNL     1       3.367   4.566  19.182  0.00  0.00    +0.000 C 
ATOM     20  O   UNL     1       2.585   3.710  18.355  0.00  0.00    +0.000 OA
ATOM     21  C   UNL     1       1.721   3.004  19.135  0.00  0.00    +0.000 C 
ATOM     22  O   UNL     1       0.878   2.226  18.730  0.00  0.00    +0.000 OA
ENDBRANCH  15  19
ENDBRANCH   1  15
TORSDOF 2
ENDMDL
MODEL 6
REMARK VINA RESULT:      -8.7      1.914      6.695
REMARK  Name = 
REMARK  3 active torsions:
REMARK  status: ('A' for Active; 'I' for Inactive)
REMARK    1  A    between atoms: C_1  and  C_2
REMARK    2  A    between atoms: C_4  and  O_5
REMARK    3  A    between atoms: O_5  and  C_6
REMARK                            x       y       z     vdW  Elec       q    Type
REMARK                         _______ _______ _______ _____ _____    ______ ____
ROOT
ATOM      1  C   UNL     1       5.692   4.862  18.860  0.00  0.00    +0.000 C 
ATOM      2  C   UNL     1       6.366   5.169  17.750  0.00  0.00    +0.000 C 
ATOM      3  C   UNL     1       6.761   6.535  17.354  0.00  0.00    +0.000 C 
ATOM      4  O   UNL     1       6.605   7.541  18.017  0.00  0.00    +0.000 OA
ATOM      5  O   UNL     1       7.305   6.475  16.104  0.00  0.00    +0.000 OA
ATOM      6  C   UNL     1       7.596   5.118  15.769  0.00  0.00    +0.000 C 
ATOM      7  C   UNL     1       7.151   4.719  14.393  0.00  0.00    +0.000 A 
ATOM      8  C   UNL     1       7.757   4.995  13.178  0.00  0.00    +0.000 A 
ATOM      9  C   UNL     1       7.198   4.451  12.017  0.00  0.00    +0.000 A 
ATOM     10  C   UNL     1       6.042   3.659  12.079  0.00  0.00    +0.000 A 
ATOM     11  C   UNL     1       5.427   3.400  13.302  0.00  0.00    +0.000 A 
ATOM     12  C   UNL     1       6.000   3.926  14.447  0.00  0.00    +0.000 A 
ATOM     13  C   UNL     1       5.509   3.775  15.847  0.00  0.00    +0.000 C 
ATOM     14  C   UNL     1       6.730   4.232  16.664  0.00  0.00    +0.000 C 
ENDROOT
BRANCH   1  15
ATOM     15  O   UNL     1       5.302   3.568  19.108  0.00  0.00    +0.000 OA
BRANCH  15  19
ATOM     16  C   UNL     1       1.631   5.947  20.789  0.00  0.00    +0.000 C 
ATOM     17  C   UNL     1       2.478   4.831  20.319  0.00  0.00    +0.000 C 
ATOM     18  C   UNL     1       3.261   4.723  19.248  0.00  0.00    +0.000 C 
ATOM     19  C   UNL     1       3.888   3.386  19.181  0.00  0.00    +0.000 C 
ATOM     20  O   UNL     1       3.452   2.738  20.371  0.00  0.00    +0.000 OA
ATOM     21  C   UNL     1       2.587   3.554  21.033  0.00  0.00    +0.000 C 
ATOM     22  O   UNL     1       1.993   3.273  22.056  0.00  0.00    +0.000 OA
ENDBRANCH  15  19
ENDBRANCH   1  15
TORSDOF 2
ENDMDL
MODEL 7
REMARK VINA RESULT:      -8.6      1.122      1.420
REMARK  Name = 
REMARK  3 active torsions:
REMARK  status: ('A' for Active; 'I' for Inactive)
REMARK    1  A    between atoms: C_1  and  C_2
REMARK    2  A    between atoms: C_4  and  O_5
REMARK    3  A    between atoms: O_5  and  C_6
REMARK                            x       y       z     vdW  Elec       q    Type
REMARK                         _______ _______ _______ _____ _____    ______ ____
ROOT
ATOM      1  C   UNL     1       6.845   5.631  16.933  0.00  0.00    +0.000 C 
ATOM      2  C   UNL     1       5.926   5.551  17.896  0.00  0.00    +0.000 C 
ATOM      3  C   UNL     1       6.224   5.441  19.338  0.00  0.00    +0.000 C 
ATOM      4  O   UNL     1       7.328   5.492  19.842  0.00  0.00    +0.000 OA
ATOM      5  O   UNL     1       5.048   5.241  20.001  0.00  0.00    +0.000 OA
ATOM      6  C   UNL     1       3.951   5.534  19.136  0.00  0.00    +0.000 C 
ATOM      7  C   UNL     1       2.862   4.502  19.160  0.00  0.00    +0.000 A 
ATOM      8  C   UNL     1       1.872   4.317  20.111  0.00  0.00    +0.000 A 
ATOM      9  C   UNL     1       0.909   3.328  19.885  0.00  0.00    +0.000 A 
ATOM     10  C   UNL     1       0.953   2.533  18.730  0.00  0.00    +0.000 A 
ATOM     11  C   UNL     1       1.961   2.713  17.785  0.00  0.00    +0.000 A 
ATOM     12  C   UNL     1       2.898   3.707  18.010  0.00  0.00    +0.000 A 
ATOM     13  C   UNL     1       4.052   4.066  17.136  0.00  0.00    +0.000 C 
ATOM     14  C   UNL     1       4.464   5.437  17.700  0.00  0.00    +0.000 C 
ENDROOT
BRANCH   1  15
ATOM     15  O   UNL     1       6.473   5.655  15.610  0.00  0.00    +0.000 OA
BRANCH  15  19
ATOM     16  C   UNL     1       7.441   4.938  11.081  0.00  0.00    +0.000 C 
ATOM     17  C   UNL     1       7.143   4.680  12.505  0.00  0.00    +0.000 C 
ATOM     18  C   UNL     1       7.634   5.232  13.612  0.00  0.00    +0.000 C 
ATOM     19  C   UNL     1       7.049   4.614  14.820  0.00  0.00    +0.000 C 
ATOM     20  O   UNL     1       6.097   3.687  14.309  0.00  0.00    +0.000 OA
ATOM     21  C   UNL     1       6.167   3.679  12.949  0.00  0.00    +0.000 C 
ATOM     22  O   UNL     1       5.525   2.955  12.213  0.00  0.00    +0.000 OA
ENDBRANCH  15  19
ENDBRANCH   1  15
TORSDOF 2
ENDMDL
MODEL 8
REMARK VINA RESULT:      -8.6      2.352      3.392
REMARK  Name = 
REMARK  3 active torsions:
REMARK  status: ('A' for Active; 'I' for Inactive)
REMARK    1  A    between atoms: C_1  and  C_2
REMARK    2  A    between atoms: C_4  and  O_5
REMARK    3  A    between atoms: O_5  and  C_6
REMARK                            x       y       z     vdW  Elec       q    Type
REMARK                         _______ _______ _______ _____ _____    ______ ____
ROOT
ATOM      1  C   UNL     1       4.756   3.714  17.034  0.00  0.00    +0.000 C 
ATOM      2  C   UNL     1       3.954   4.254  17.953  0.00  0.00    +0.000 C 
ATOM      3  C   UNL     1       2.730   3.620  18.481  0.00  0.00    +0.000 C 
ATOM      4  O   UNL     1       2.339   2.500  18.219  0.00  0.00    +0.000 OA
ATOM      5  O   UNL     1       2.100   4.520  19.291  0.00  0.00    +0.000 OA
ATOM      6  C   UNL     1       2.986   5.597  19.596  0.00  0.00    +0.000 C 
ATOM      7  C   UNL     1       2.367   6.956  19.458  0.00  0.00    +0.000 A 
ATOM      8  C   UNL     1       1.512   7.605  20.334  0.00  0.00    +0.000 A 
ATOM      9  C   UNL     1       1.115   8.912  20.031  0.00  0.00    +0.000 A 
ATOM     10  C   UNL     1       1.560   9.545  18.860  0.00  0.00    +0.000 A 
ATOM     11  C   UNL     1       2.406   8.880  17.975  0.00  0.00    +0.000 A 
ATOM     12  C   UNL     1       2.808   7.594  18.294  0.00  0.00    +0.000 A 
ATOM     13  C   UNL     1       3.702   6.709  17.494  0.00  0.00    +0.000 C 
ATOM     14  C   UNL     1       4.067   5.618  18.516  0.00  0.00    +0.000 C 
ENDROOT
BRANCH   1  15
ATOM     15  O   UNL     1       5.834   4.412  16.547  0.00  0.00    +0.000 OA
BRANCH  15  19
ATOM     16  C   UNL     1       6.558   3.115  12.102  0.00  0.00    +0.000 C 
ATOM     17  C   UNL     1       6.351   3.961  13.296  0.00  0.00    +0.000 C 
ATOM     18  C   UNL     1       5.473   3.863  14.292  0.00  0.00    +0.000 C 
ATOM     19  C   UNL     1       5.631   4.976  15.251  0.00  0.00    +0.000 C 
ATOM     20  O   UNL     1       6.751   5.704  14.758  0.00  0.00    +0.000 OA
ATOM     21  C   UNL     1       7.162   5.149  13.585  0.00  0.00    +0.000 C 
ATOM     22  O   UNL     1       8.061   5.569  12.881  0.00  0.00    +0.000 OA
ENDBRANCH  15  19
ENDBRANCH   1  15
TORSDOF 2
ENDMDL
MODEL 9
REMARK VINA RESULT:      -8.6      1.206      1.378
REMARK  Name = 
REMARK  3 active torsions:
REMARK  status: ('A' for Active; 'I' for Inactive)
REMARK    1  A    between atoms: C_1  and  C_2
REMARK    2  A    between atoms: C_4  and  O_5
REMARK    3  A    between atoms: O_5  and  C_6
REMARK                            x       y       z     vdW  Elec       q    Type
REMARK                         _______ _______ _______ _____ _____    ______ ____
ROOT
ATOM      1  C   UNL     1       6.393   4.164  15.911  0.00  0.00    +0.000 C 
ATOM      2  C   UNL     1       5.637   4.728  16.854  0.00  0.00    +0.000 C 
ATOM      3  C   UNL     1       6.152   5.536  17.976  0.00  0.00    +0.000 C 
ATOM      4  O   UNL     1       7.310   5.864  18.144  0.00  0.00    +0.000 OA
ATOM      5  O   UNL     1       5.109   5.823  18.808  0.00  0.00    +0.000 OA
ATOM      6  C   UNL     1       3.875   5.538  18.150  0.00  0.00    +0.000 C 
ATOM      7  C   UNL     1       2.896   4.774  18.992  0.00  0.00    +0.000 A 
ATOM      8  C   UNL     1       2.077   5.249  20.003  0.00  0.00    +0.000 A 
ATOM      9  C   UNL     1       1.180   4.360  20.606  0.00  0.00    +0.000 A 
ATOM     10  C   UNL     1       1.123   3.016  20.207  0.00  0.00    +0.000 A 
ATOM     11  C   UNL     1       1.961   2.541  19.201  0.00  0.00    +0.000 A 
ATOM     12  C   UNL     1       2.831   3.434  18.597  0.00  0.00    +0.000 A 
ATOM     13  C   UNL     1       3.808   3.139  17.510  0.00  0.00    +0.000 C 
ATOM     14  C   UNL     1       4.177   4.551  17.023  0.00  0.00    +0.000 C 
ENDROOT
BRANCH   1  15
ATOM     15  O   UNL     1       5.830   3.365  14.945  0.00  0.00    +0.000 OA
BRANCH  15  19
ATOM     16  C   UNL     1       3.651   3.206  10.799  0.00  0.00    +0.000 C 
ATOM     17  C   UNL     1       4.722   3.289  11.814  0.00  0.00    +0.000 C 
ATOM     18  C   UNL     1       4.813   4.011  12.928  0.00  0.00    +0.000 C 
ATOM     19  C   UNL     1       6.105   3.781  13.607  0.00  0.00    +0.000 C 
ATOM     20  O   UNL     1       6.741   2.783  12.815  0.00  0.00    +0.000 OA
ATOM     21  C   UNL     1       5.963   2.512  11.730  0.00  0.00    +0.000 C 
ATOM     22  O   UNL     1       6.249   1.746  10.830  0.00  0.00    +0.000 OA
ENDBRANCH  15  19
ENDBRANCH   1  15
TORSDOF 2
ENDMDL
