MODEL 1
REMARK VINA RESULT:      -8.0      0.000      0.000
REMARK  Name = 
REMARK  12 active torsions:
REMARK  status: ('A' for Active; 'I' for Inactive)
REMARK    1  A    between atoms: N_4  and  C_5
REMARK    2  A    between atoms: C_5  and  C_6
REMARK    3  A    between atoms: C_6  and  C_7
REMARK    4  A    between atoms: C_7  and  C_8
REMARK    5  A    between atoms: C_8  and  N_9
REMARK    6  A    between atoms: C_8  and  C_30
REMARK    7  A    between atoms: C_10  and  C_12
REMARK    8  A    between atoms: C_12  and  C_13
REMARK    9  A    between atoms: C_12  and  N_21
REMARK   10  A    between atoms: C_13  and  C_14
REMARK   11  A    between atoms: C_17  and  N_18
REMARK   12  A    between atoms: C_22  and  C_24
REMARK                            x       y       z     vdW  Elec       q    Type
REMARK                         _______ _______ _______ _____ _____    ______ ____
ROOT
ATOM      1  N   UNL     1       5.557   5.852  18.356  0.00  0.00    +0.000 N 
ATOM      2  C   UNL     1       6.886   6.158  18.558  0.00  0.00    +0.000 C 
ATOM      3  O   UNL     1       7.498   5.794  19.563  0.00  0.00    +0.000 OA
ATOM      4  H   UNL     1       5.079   6.187  17.530  0.00  0.00    +0.000 HD
ENDROOT
BRANCH   1   5
ATOM      5  C   UNL     1       4.766   5.158  19.387  0.00  0.00    +0.000 C 
BRANCH   5   6
ATOM      6  C   UNL     1       4.668   3.631  19.166  0.00  0.00    +0.000 C 
ATOM      7  N   UNL     1       4.955   3.149  17.922  0.00  0.00    +0.000 N 
ATOM      8  O   UNL     1       4.183   2.869  20.001  0.00  0.00    +0.000 OA
ATOM      9  H   UNL     1       5.437   3.685  17.219  0.00  0.00    +0.000 HD
ATOM     10  H   UNL     1       4.910   2.141  17.812  0.00  0.00    +0.000 HD
ENDBRANCH   5   6
BRANCH   5  11
ATOM     11  C   UNL     1       3.371   5.802  19.465  0.00  0.00    +0.000 C 
BRANCH  11  12
ATOM     12  C   UNL     1       2.798   6.154  18.089  0.00  0.00    +0.000 C 
BRANCH  12  13
ATOM     13  C   UNL     1       2.686   7.665  17.901  0.00  0.00    +0.000 C 
BRANCH  13  17
ATOM     14  N   UNL     1       1.242  10.108  17.870  0.00  0.00    +0.000 NA
ATOM     15  C   UNL     1       1.301   9.387  18.934  0.00  0.00    +0.000 C 
ATOM     16  N   UNL     1       0.644   9.694  20.068  0.00  0.00    +0.000 N 
ATOM     17  N   UNL     1       2.028   8.260  19.055  0.00  0.00    +0.000 N 
ATOM     18  H   UNL     1       0.607  10.897  18.025  0.00  0.00    +0.000 HD
ATOM     19  H   UNL     1       0.333  10.656  20.132  0.00  0.00    +0.000 HD
ATOM     20  H   UNL     1       1.151   9.420  20.902  0.00  0.00    +0.000 HD
ATOM     21  H   UNL     1       1.644   7.585  19.709  0.00  0.00    +0.000 HD
ENDBRANCH  13  17
ENDBRANCH  12  13
ENDBRANCH  11  12
ENDBRANCH   5  11
ENDBRANCH   1   5
BRANCH   2  22
ATOM     22  C   UNL     1       7.561   7.065  17.494  0.00  0.00    +0.000 C 
BRANCH  22  23
ATOM     23  N   UNL     1       7.284   6.493  16.173  0.00  0.00    +0.000 N 
ATOM     24  C   UNL     1       7.449   5.157  15.892  0.00  0.00    +0.000 C 
ATOM     25  O   UNL     1       7.856   4.345  16.714  0.00  0.00    +0.000 OA
ATOM     26  H   UNL     1       6.706   7.061  15.558  0.00  0.00    +0.000 HD
BRANCH  24  27
ATOM     27  C   UNL     1       7.035   4.715  14.531  0.00  0.00    +0.000 A 
ATOM     28  C   UNL     1       5.911   3.904  14.325  0.00  0.00    +0.000 A 
ATOM     29  C   UNL     1       5.601   3.458  13.038  0.00  0.00    +0.000 A 
ATOM     30  C   UNL     1       6.400   3.831  11.957  0.00  0.00    +0.000 A 
ATOM     31  C   UNL     1       7.497   4.670  12.154  0.00  0.00    +0.000 A 
ATOM     32  C   UNL     1       7.809   5.120  13.437  0.00  0.00    +0.000 A 
ENDBRANCH  24  27
ENDBRANCH  22  23
BRANCH  22  33
ATOM     33  C   UNL     1       7.200   8.564  17.614  0.00  0.00    +0.000 C 
BRANCH  33  34
ATOM     34  C   UNL     1       8.247   9.554  18.101  0.00  0.00    +0.000 A 
ATOM     35  C   UNL     1       9.028   9.335  19.234  0.00  0.00    +0.000 A 
ATOM     36  C   UNL     1       9.767  10.376  19.797  0.00  0.00    +0.000 A 
ATOM     37  C   UNL     1       9.848  11.622  19.185  0.00  0.00    +0.000 A 
ATOM     38  C   UNL     1       9.154  11.816  17.989  0.00  0.00    +0.000 A 
ATOM     39  C   UNL     1       8.365  10.790  17.449  0.00  0.00    +0.000 A 
BRANCH  37  40
ATOM     40  N   UNL     1      10.409  12.699  19.875  0.00  0.00    +0.000 N 
ATOM     41  H   UNL     1       9.738  13.348  20.267  0.00  0.00    +0.000 HD
ATOM     42  H   UNL     1      11.152  12.451  20.519  0.00  0.00    +0.000 HD
ENDBRANCH  37  40
ENDBRANCH  33  34
ENDBRANCH  22  33
ENDBRANCH   2  22
TORSDOF 12
ENDMDL
MODEL 2
REMARK VINA RESULT:      -8.0      2.497      8.226
REMARK  Name = 
REMARK  12 active torsions:
REMARK  status: ('A' for Active; 'I' for Inactive)
REMARK    1  A    between atoms: N_4  and  C_5
REMARK    2  A    between atoms: C_5  and  C_6
REMARK    3  A    between atoms: C_6  and  C_7
REMARK    4  A    between atoms: C_7  and  C_8
REMARK    5  A    between atoms: C_8  and  N_9
REMARK    6  A    between atoms: C_8  and  C_30
REMARK    7  A    between atoms: C_10  and  C_12
REMARK    8  A    between atoms: C_12  and  C_13
REMARK    9  A    between atoms: C_12  and  N_21
REMARK   10  A    between atoms: C_13  and  C_14
REMARK   11  A    between atoms: C_17  and  N_18
REMARK   12  A    between atoms: C_22  and  C_24
REMARK                            x       y       z     vdW  Elec       q    Type
REMARK                         _______ _______ _______ _____ _____    ______ ____
ROOT
ATOM      1  N   UNL     1       5.484   6.457  17.931  0.00  0.00    +0.000 N 
ATOM      2  C   UNL     1       4.294   6.876  17.375  0.00  0.00    +0.000 C 
ATOM      3  O   UNL     1       4.209   7.227  16.197  0.00  0.00    +0.000 OA
ATOM      4  H   UNL     1       5.524   6.198  18.908  0.00  0.00    +0.000 HD
ENDROOT
BRANCH   1   5
ATOM      5  C   UNL     1       6.745   6.508  17.172  0.00  0.00    +0.000 C 
BRANCH   5   6
ATOM      6  C   UNL     1       7.311   5.112  16.822  0.00  0.00    +0.000 C 
ATOM      7  N   UNL     1       7.535   4.241  17.848  0.00  0.00    +0.000 N 
ATOM      8  O   UNL     1       7.722   4.825  15.698  0.00  0.00    +0.000 OA
ATOM      9  H   UNL     1       7.150   4.363  18.771  0.00  0.00    +0.000 HD
ATOM     10  H   UNL     1       7.880   3.323  17.588  0.00  0.00    +0.000 HD
ENDBRANCH   5   6
BRANCH   5  11
ATOM     11  C   UNL     1       7.770   7.344  17.957  0.00  0.00    +0.000 C 
BRANCH  11  12
ATOM     12  C   UNL     1       7.575   8.853  17.776  0.00  0.00    +0.000 C 
BRANCH  12  13
ATOM     13  C   UNL     1       8.857   9.622  18.082  0.00  0.00    +0.000 C 
BRANCH  13  17
ATOM     14  N   UNL     1       9.999  11.888  19.354  0.00  0.00    +0.000 NA
ATOM     15  C   UNL     1       9.491  10.928  20.043  0.00  0.00    +0.000 C 
ATOM     16  N   UNL     1       9.405  10.951  21.386  0.00  0.00    +0.000 N 
ATOM     17  N   UNL     1       9.004   9.786  19.522  0.00  0.00    +0.000 N 
ATOM     18  H   UNL     1      10.277  12.650  19.980  0.00  0.00    +0.000 HD
ATOM     19  H   UNL     1      10.008  11.628  21.839  0.00  0.00    +0.000 HD
ATOM     20  H   UNL     1       9.512  10.034  21.804  0.00  0.00    +0.000 HD
ATOM     21  H   UNL     1       8.259   9.364  20.067  0.00  0.00    +0.000 HD
ENDBRANCH  13  17
ENDBRANCH  12  13
ENDBRANCH  11  12
ENDBRANCH   5  11
ENDBRANCH   1   5
BRANCH   2  22
ATOM     22  C   UNL     1       3.074   6.969  18.328  0.00  0.00    +0.000 C 
BRANCH  22  23
ATOM     23  N   UNL     1       2.485   8.304  18.178  0.00  0.00    +0.000 N 
ATOM     24  C   UNL     1       1.729   8.898  19.162  0.00  0.00    +0.000 C 
ATOM     25  O   UNL     1       1.472   8.354  20.228  0.00  0.00    +0.000 OA
ATOM     26  H   UNL     1       2.885   8.883  17.444  0.00  0.00    +0.000 HD
BRANCH  24  27
ATOM     27  C   UNL     1       1.282  10.294  18.895  0.00  0.00    +0.000 A 
ATOM     28  C   UNL     1      -0.051  10.689  19.062  0.00  0.00    +0.000 A 
ATOM     29  C   UNL     1      -0.438  11.991  18.735  0.00  0.00    +0.000 A 
ATOM     30  C   UNL     1       0.505  12.901  18.254  0.00  0.00    +0.000 A 
ATOM     31  C   UNL     1       1.841  12.521  18.123  0.00  0.00    +0.000 A 
ATOM     32  C   UNL     1       2.232  11.223  18.453  0.00  0.00    +0.000 A 
ENDBRANCH  24  27
ENDBRANCH  22  23
BRANCH  22  33
ATOM     33  C   UNL     1       2.055   5.817  18.172  0.00  0.00    +0.000 C 
BRANCH  33  34
ATOM     34  C   UNL     1       2.484   4.387  18.466  0.00  0.00    +0.000 A 
ATOM     35  C   UNL     1       3.289   4.046  19.551  0.00  0.00    +0.000 A 
ATOM     36  C   UNL     1       3.880   2.784  19.625  0.00  0.00    +0.000 A 
ATOM     37  C   UNL     1       3.593   1.793  18.693  0.00  0.00    +0.000 A 
ATOM     38  C   UNL     1       2.701   2.094  17.662  0.00  0.00    +0.000 A 
ATOM     39  C   UNL     1       2.147   3.378  17.552  0.00  0.00    +0.000 A 
BRANCH  37  40
ATOM     40  N   UNL     1       4.358   0.625  18.665  0.00  0.00    +0.000 N 
ATOM     41  H   UNL     1       5.342   0.766  18.476  0.00  0.00    +0.000 HD
ATOM     42  H   UNL     1       4.182  -0.018  19.429  0.00  0.00    +0.000 HD
ENDBRANCH  37  40
ENDBRANCH  33  34
ENDBRANCH  22  33
ENDBRANCH   2  22
TORSDOF 12
ENDMDL
MODEL 3
REMARK VINA RESULT:      -8.0      2.524      7.358
REMARK  Name = 
REMARK  12 active torsions:
REMARK  status: ('A' for Active; 'I' for Inactive)
REMARK    1  A    between atoms: N_4  and  C_5
REMARK    2  A    between atoms: C_5  and  C_6
REMARK    3  A    between atoms: C_6  and  C_7
REMARK    4  A    between atoms: C_7  and  C_8
REMARK    5  A    between atoms: C_8  and  N_9
REMARK    6  A    between atoms: C_8  and  C_30
REMARK    7  A    between atoms: C_10  and  C_12
REMARK    8  A    between atoms: C_12  and  C_13
REMARK    9  A    between atoms: C_12  and  N_21
REMARK   10  A    between atoms: C_13  and  C_14
REMARK   11  A    between atoms: C_17  and  N_18
REMARK   12  A    between atoms: C_22  and  C_24
REMARK                            x       y       z     vdW  Elec       q    Type
REMARK                         _______ _______ _______ _____ _____    ______ ____
ROOT
ATOM      1  N   UNL     1       5.603   6.458  17.760  0.00  0.00    +0.000 N 
ATOM      2  C   UNL     1       4.573   6.644  16.864  0.00  0.00    +0.000 C 
ATOM      3  O   UNL     1       4.749   6.604  15.645  0.00  0.00    +0.000 OA
ATOM      4  H   UNL     1       5.428   6.521  18.755  0.00  0.00    +0.000 HD
ENDROOT
BRANCH   1   5
ATOM      5  C   UNL     1       6.997   6.306  17.307  0.00  0.00    +0.000 C 
BRANCH   5   6
ATOM      6  C   UNL     1       7.470   4.835  17.253  0.00  0.00    +0.000 C 
ATOM      7  N   UNL     1       6.956   4.036  16.274  0.00  0.00    +0.000 N 
ATOM      8  O   UNL     1       8.144   4.322  18.146  0.00  0.00    +0.000 OA
ATOM      9  H   UNL     1       6.476   4.394  15.463  0.00  0.00    +0.000 HD
ATOM     10  H   UNL     1       7.305   3.083  16.244  0.00  0.00    +0.000 HD
ENDBRANCH   5   6
BRANCH   5  11
ATOM     11  C   UNL     1       7.912   7.154  18.206  0.00  0.00    +0.000 C 
BRANCH  11  12
ATOM     12  C   UNL     1       8.015   8.612  17.749  0.00  0.00    +0.000 C 
BRANCH  12  13
ATOM     13  C   UNL     1       8.836   9.448  18.727  0.00  0.00    +0.000 C 
BRANCH  13  17
ATOM     14  N   UNL     1      10.341  11.497  19.989  0.00  0.00    +0.000 NA
ATOM     15  C   UNL     1       9.913  11.636  18.784  0.00  0.00    +0.000 C 
ATOM     16  N   UNL     1      10.194  12.710  18.023  0.00  0.00    +0.000 N 
ATOM     17  N   UNL     1       9.128  10.750  18.144  0.00  0.00    +0.000 N 
ATOM     18  H   UNL     1      10.934  12.295  20.238  0.00  0.00    +0.000 HD
ATOM     19  H   UNL     1      10.518  13.521  18.536  0.00  0.00    +0.000 HD
ATOM     20  H   UNL     1       9.438  12.956  17.395  0.00  0.00    +0.000 HD
ATOM     21  H   UNL     1       9.251  10.735  17.136  0.00  0.00    +0.000 HD
ENDBRANCH  13  17
ENDBRANCH  12  13
ENDBRANCH  11  12
ENDBRANCH   5  11
ENDBRANCH   1   5
BRANCH   2  22
ATOM     22  C   UNL     1       3.185   6.996  17.460  0.00  0.00    +0.000 C 
BRANCH  22  23
ATOM     23  N   UNL     1       2.905   6.046  18.543  0.00  0.00    +0.000 N 
ATOM     24  C   UNL     1       2.432   4.775  18.313  0.00  0.00    +0.000 C 
ATOM     25  O   UNL     1       2.188   4.344  17.193  0.00  0.00    +0.000 OA
ATOM     26  H   UNL     1       3.335   6.260  19.439  0.00  0.00    +0.000 HD
BRANCH  24  27
ATOM     27  C   UNL     1       2.289   3.901  19.510  0.00  0.00    +0.000 A 
ATOM     28  C   UNL     1       1.083   3.802  20.215  0.00  0.00    +0.000 A 
ATOM     29  C   UNL     1       1.014   3.022  21.372  0.00  0.00    +0.000 A 
ATOM     30  C   UNL     1       2.142   2.331  21.818  0.00  0.00    +0.000 A 
ATOM     31  C   UNL     1       3.333   2.396  21.095  0.00  0.00    +0.000 A 
ATOM     32  C   UNL     1       3.405   3.171  19.937  0.00  0.00    +0.000 A 
ENDBRANCH  24  27
ENDBRANCH  22  23
BRANCH  22  33
ATOM     33  C   UNL     1       3.026   8.477  17.873  0.00  0.00    +0.000 C 
BRANCH  33  34
ATOM     34  C   UNL     1       1.729   8.945  18.517  0.00  0.00    +0.000 A 
ATOM     35  C   UNL     1       0.734   9.619  17.812  0.00  0.00    +0.000 A 
ATOM     36  C   UNL     1      -0.300  10.266  18.491  0.00  0.00    +0.000 A 
ATOM     37  C   UNL     1      -0.440  10.159  19.870  0.00  0.00    +0.000 A 
ATOM     38  C   UNL     1       0.493   9.394  20.572  0.00  0.00    +0.000 A 
ATOM     39  C   UNL     1       1.565   8.788  19.901  0.00  0.00    +0.000 A 
BRANCH  37  40
ATOM     40  N   UNL     1      -1.344  10.987  20.541  0.00  0.00    +0.000 N 
ATOM     41  H   UNL     1      -0.934  11.813  20.958  0.00  0.00    +0.000 HD
ATOM     42  H   UNL     1      -2.204  11.174  20.038  0.00  0.00    +0.000 HD
ENDBRANCH  37  40
ENDBRANCH  33  34
ENDBRANCH  22  33
ENDBRANCH   2  22
TORSDOF 12
ENDMDL
MODEL 4
REMARK VINA RESULT:      -8.0      2.752      7.169
REMARK  Name = 
REMARK  12 active torsions:
REMARK  status: ('A' for Active; 'I' for Inactive)
REMARK    1  A    between atoms: N_4  and  C_5
REMARK    2  A    between atoms: C_5  and  C_6
REMARK    3  A    between atoms: C_6  and  C_7
REMARK    4  A    between atoms: C_7  and  C_8
REMARK    5  A    between atoms: C_8  and  N_9
REMARK    6  A    between atoms: C_8  and  C_30
REMARK    7  A    between atoms: C_10  and  C_12
REMARK    8  A    between atoms: C_12  and  C_13
REMARK    9  A    between atoms: C_12  and  N_21
REMARK   10  A    between atoms: C_13  and  C_14
REMARK   11  A    between atoms: C_17  and  N_18
REMARK   12  A    between atoms: C_22  and  C_24
REMARK                            x       y       z     vdW  Elec       q    Type
REMARK                         _______ _______ _______ _____ _____    ______ ____
ROOT
ATOM      1  N   UNL     1       5.894   6.371  18.040  0.00  0.00    +0.000 N 
ATOM      2  C   UNL     1       5.050   6.648  16.986  0.00  0.00    +0.000 C 
ATOM      3  O   UNL     1       5.465   6.805  15.837  0.00  0.00    +0.000 OA
ATOM      4  H   UNL     1       5.522   6.271  18.975  0.00  0.00    +0.000 HD
ENDROOT
BRANCH   1   5
ATOM      5  C   UNL     1       7.357   6.351  17.865  0.00  0.00    +0.000 C 
BRANCH   5   6
ATOM      6  C   UNL     1       8.027   5.075  18.425  0.00  0.00    +0.000 C 
ATOM      7  N   UNL     1       8.469   5.102  19.716  0.00  0.00    +0.000 N 
ATOM      8  O   UNL     1       8.328   4.118  17.714  0.00  0.00    +0.000 OA
ATOM      9  H   UNL     1       8.186   5.803  20.383  0.00  0.00    +0.000 HD
ATOM     10  H   UNL     1       8.879   4.242  20.066  0.00  0.00    +0.000 HD
ENDBRANCH   5   6
BRANCH   5  11
ATOM     11  C   UNL     1       7.954   7.619  18.500  0.00  0.00    +0.000 C 
BRANCH  11  12
ATOM     12  C   UNL     1       7.814   8.857  17.608  0.00  0.00    +0.000 C 
BRANCH  12  13
ATOM     13  C   UNL     1       8.809   9.945  18.003  0.00  0.00    +0.000 C 
BRANCH  13  17
ATOM     14  N   UNL     1       9.774  12.131  19.534  0.00  0.00    +0.000 NA
ATOM     15  C   UNL     1       9.406  11.036  20.101  0.00  0.00    +0.000 C 
ATOM     16  N   UNL     1       9.389  10.869  21.437  0.00  0.00    +0.000 N 
ATOM     17  N   UNL     1       9.014   9.929  19.444  0.00  0.00    +0.000 N 
ATOM     18  H   UNL     1      10.004  12.828  20.249  0.00  0.00    +0.000 HD
ATOM     19  H   UNL     1       9.941  11.541  21.956  0.00  0.00    +0.000 HD
ATOM     20  H   UNL     1       9.612   9.922  21.718  0.00  0.00    +0.000 HD
ATOM     21  H   UNL     1       8.347   9.357  19.953  0.00  0.00    +0.000 HD
ENDBRANCH  13  17
ENDBRANCH  12  13
ENDBRANCH  11  12
ENDBRANCH   5  11
ENDBRANCH   1   5
BRANCH   2  22
ATOM     22  C   UNL     1       3.549   6.842  17.328  0.00  0.00    +0.000 C 
BRANCH  22  23
ATOM     23  N   UNL     1       3.225   5.961  18.455  0.00  0.00    +0.000 N 
ATOM     24  C   UNL     1       2.657   4.720  18.289  0.00  0.00    +0.000 C 
ATOM     25  O   UNL     1       2.359   4.261  17.193  0.00  0.00    +0.000 OA
ATOM     26  H   UNL     1       3.688   6.180  19.334  0.00  0.00    +0.000 HD
BRANCH  24  27
ATOM     27  C   UNL     1       2.477   3.908  19.525  0.00  0.00    +0.000 A 
ATOM     28  C   UNL     1       3.508   3.118  20.048  0.00  0.00    +0.000 A 
ATOM     29  C   UNL     1       3.273   2.320  21.171  0.00  0.00    +0.000 A 
ATOM     30  C   UNL     1       2.017   2.321  21.779  0.00  0.00    +0.000 A 
ATOM     31  C   UNL     1       1.000   3.137  21.283  0.00  0.00    +0.000 A 
ATOM     32  C   UNL     1       1.231   3.938  20.164  0.00  0.00    +0.000 A 
ENDBRANCH  24  27
ENDBRANCH  22  23
BRANCH  22  33
ATOM     33  C   UNL     1       3.131   8.315  17.547  0.00  0.00    +0.000 C 
BRANCH  33  34
ATOM     34  C   UNL     1       2.004   8.642  18.515  0.00  0.00    +0.000 A 
ATOM     35  C   UNL     1       1.026   9.596  18.245  0.00  0.00    +0.000 A 
ATOM     36  C   UNL     1       0.187  10.058  19.260  0.00  0.00    +0.000 A 
ATOM     37  C   UNL     1       0.214   9.501  20.533  0.00  0.00    +0.000 A 
ATOM     38  C   UNL     1       1.119   8.467  20.782  0.00  0.00    +0.000 A 
ATOM     39  C   UNL     1       2.003   8.038  19.781  0.00  0.00    +0.000 A 
BRANCH  37  40
ATOM     40  N   UNL     1      -0.473  10.123  21.578  0.00  0.00    +0.000 N 
ATOM     41  H   UNL     1      -1.481  10.037  21.533  0.00  0.00    +0.000 HD
ATOM     42  H   UNL     1      -0.094   9.948  22.501  0.00  0.00    +0.000 HD
ENDBRANCH  37  40
ENDBRANCH  33  34
ENDBRANCH  22  33
ENDBRANCH   2  22
TORSDOF 12
ENDMDL
MODEL 5
REMARK VINA RESULT:      -7.9      4.747      8.263
REMARK  Name = 
REMARK  12 active torsions:
REMARK  status: ('A' for Active; 'I' for Inactive)
REMARK    1  A    between atoms: N_4  and  C_5
REMARK    2  A    between atoms: C_5  and  C_6
REMARK    3  A    between atoms: C_6  and  C_7
REMARK    4  A    between atoms: C_7  and  C_8
REMARK    5  A    between atoms: C_8  and  N_9
REMARK    6  A    between atoms: C_8  and  C_30
REMARK    7  A    between atoms: C_10  and  C_12
REMARK    8  A    between atoms: C_12  and  C_13
REMARK    9  A    between atoms: C_12  and  N_21
REMARK   10  A    between atoms: C_13  and  C_14
REMARK   11  A    between atoms: C_17  and  N_18
REMARK   12  A    between atoms: C_22  and  C_24
REMARK                            x       y       z     vdW  Elec       q    Type
REMARK                         _______ _______ _______ _____ _____    ______ ____
ROOT
ATOM      1  N   UNL     1      -0.807   9.742  18.716  0.00  0.00    +0.000 N 
ATOM      2  C   UNL     1       0.566   9.627  18.669  0.00  0.00    +0.000 C 
ATOM      3  O   UNL     1       1.256  10.318  17.918  0.00  0.00    +0.000 OA
ATOM      4  H   UNL     1      -1.345   9.143  19.328  0.00  0.00    +0.000 HD
ENDROOT
BRANCH   1   5
ATOM      5  C   UNL     1      -1.535  10.625  17.789  0.00  0.00    +0.000 C 
BRANCH   5   6
ATOM      6  C   UNL     1      -1.726  12.061  18.329  0.00  0.00    +0.000 C 
ATOM      7  N   UNL     1      -0.908  13.039  17.843  0.00  0.00    +0.000 N 
ATOM      8  O   UNL     1      -2.455  12.318  19.286  0.00  0.00    +0.000 OA
ATOM      9  H   UNL     1      -0.355  12.932  17.007  0.00  0.00    +0.000 HD
ATOM     10  H   UNL     1      -1.074  13.977  18.193  0.00  0.00    +0.000 HD
ENDBRANCH   5   6
BRANCH   5  11
ATOM     11  C   UNL     1      -2.884   9.978  17.435  0.00  0.00    +0.000 C 
BRANCH  11  12
ATOM     12  C   UNL     1      -3.514  10.563  16.168  0.00  0.00    +0.000 C 
BRANCH  12  13
ATOM     13  C   UNL     1      -2.849  10.015  14.908  0.00  0.00    +0.000 C 
BRANCH  13  17
ATOM     14  N   UNL     1      -2.157   9.478  12.208  0.00  0.00    +0.000 NA
ATOM     15  C   UNL     1      -3.357   9.809  12.531  0.00  0.00    +0.000 C 
ATOM     16  N   UNL     1      -4.369   9.863  11.644  0.00  0.00    +0.000 N 
ATOM     17  N   UNL     1      -3.748  10.157  13.771  0.00  0.00    +0.000 N 
ATOM     18  H   UNL     1      -2.122   9.238  11.213  0.00  0.00    +0.000 HD
ATOM     19  H   UNL     1      -4.082   9.904  10.674  0.00  0.00    +0.000 HD
ATOM     20  H   UNL     1      -5.039  10.594  11.855  0.00  0.00    +0.000 HD
ATOM     21  H   UNL     1      -4.718   9.941  13.979  0.00  0.00    +0.000 HD
ENDBRANCH  13  17
ENDBRANCH  12  13
ENDBRANCH  11  12
ENDBRANCH   5  11
ENDBRANCH   1   5
BRANCH   2  22
ATOM     22  C   UNL     1       1.204   8.520  19.550  0.00  0.00    +0.000 C 
BRANCH  22  23
ATOM     23  N   UNL     1       2.269   7.882  18.770  0.00  0.00    +0.000 N 
ATOM     24  C   UNL     1       2.581   6.548  18.891  0.00  0.00    +0.000 C 
ATOM     25  O   UNL     1       2.010   5.795  19.671  0.00  0.00    +0.000 OA
ATOM     26  H   UNL     1       2.577   8.389  17.944  0.00  0.00    +0.000 HD
BRANCH  24  27
ATOM     27  C   UNL     1       3.623   6.029  17.962  0.00  0.00    +0.000 A 
ATOM     28  C   UNL     1       4.394   6.883  17.163  0.00  0.00    +0.000 A 
ATOM     29  C   UNL     1       5.313   6.348  16.256  0.00  0.00    +0.000 A 
ATOM     30  C   UNL     1       5.472   4.965  16.155  0.00  0.00    +0.000 A 
ATOM     31  C   UNL     1       4.733   4.114  16.978  0.00  0.00    +0.000 A 
ATOM     32  C   UNL     1       3.817   4.644  17.887  0.00  0.00    +0.000 A 
ENDBRANCH  24  27
ENDBRANCH  22  23
BRANCH  22  33
ATOM     33  C   UNL     1       1.657   9.001  20.948  0.00  0.00    +0.000 C 
BRANCH  33  34
ATOM     34  C   UNL     1       0.778   9.962  21.735  0.00  0.00    +0.000 A 
ATOM     35  C   UNL     1      -0.086   9.544  22.745  0.00  0.00    +0.000 A 
ATOM     36  C   UNL     1      -1.064  10.406  23.243  0.00  0.00    +0.000 A 
ATOM     37  C   UNL     1      -1.131  11.735  22.842  0.00  0.00    +0.000 A 
ATOM     38  C   UNL     1      -0.198  12.191  21.909  0.00  0.00    +0.000 A 
ATOM     39  C   UNL     1       0.751  11.314  21.364  0.00  0.00    +0.000 A 
BRANCH  37  40
ATOM     40  N   UNL     1      -2.242  12.508  23.186  0.00  0.00    +0.000 N 
ATOM     41  H   UNL     1      -2.028  13.359  23.691  0.00  0.00    +0.000 HD
ATOM     42  H   UNL     1      -2.916  12.641  22.440  0.00  0.00    +0.000 HD
ENDBRANCH  37  40
ENDBRANCH  33  34
ENDBRANCH  22  33
ENDBRANCH   2  22
TORSDOF 12
ENDMDL
MODEL 6
REMARK VINA RESULT:      -7.9      2.346      8.458
REMARK  Name = 
REMARK  12 active torsions:
REMARK  status: ('A' for Active; 'I' for Inactive)
REMARK    1  A    between atoms: N_4  and  C_5
REMARK    2  A    between atoms: C_5  and  C_6
REMARK    3  A    between atoms: C_6  and  C_7
REMARK    4  A    between atoms: C_7  and  C_8
REMARK    5  A    between atoms: C_8  and  N_9
REMARK    6  A    between atoms: C_8  and  C_30
REMARK    7  A    between atoms: C_10  and  C_12
REMARK    8  A    between atoms: C_12  and  C_13
REMARK    9  A    between atoms: C_12  and  N_21
REMARK   10  A    between atoms: C_13  and  C_14
REMARK   11  A    between atoms: C_17  and  N_18
REMARK   12  A    between atoms: C_22  and  C_24
REMARK                            x       y       z     vdW  Elec       q    Type
REMARK                         _______ _______ _______ _____ _____    ______ ____
ROOT
ATOM      1  N   UNL     1       4.986   6.076  17.809  0.00  0.00    +0.000 N 
ATOM      2  C   UNL     1       3.911   6.923  17.650  0.00  0.00    +0.000 C 
ATOM      3  O   UNL     1       3.872   7.774  16.760  0.00  0.00    +0.000 OA
ATOM      4  H   UNL     1       4.995   5.404  18.565  0.00  0.00    +0.000 HD
ENDROOT
BRANCH   1   5
ATOM      5  C   UNL     1       6.200   6.215  16.986  0.00  0.00    +0.000 C 
BRANCH   5   6
ATOM      6  C   UNL     1       6.626   4.902  16.289  0.00  0.00    +0.000 C 
ATOM      7  N   UNL     1       5.902   3.777  16.553  0.00  0.00    +0.000 N 
ATOM      8  O   UNL     1       7.676   4.798  15.655  0.00  0.00    +0.000 OA
ATOM      9  H   UNL     1       4.990   3.795  16.983  0.00  0.00    +0.000 HD
ATOM     10  H   UNL     1       6.185   2.936  16.061  0.00  0.00    +0.000 HD
ENDBRANCH   5   6
BRANCH   5  11
ATOM     11  C   UNL     1       7.336   6.777  17.859  0.00  0.00    +0.000 C 
BRANCH  11  12
ATOM     12  C   UNL     1       7.764   8.189  17.448  0.00  0.00    +0.000 C 
BRANCH  12  13
ATOM     13  C   UNL     1       8.548   8.881  18.559  0.00  0.00    +0.000 C 
BRANCH  13  17
ATOM     14  N   UNL     1       9.600  10.849  20.314  0.00  0.00    +0.000 NA
ATOM     15  C   UNL     1       9.353  11.123  19.081  0.00  0.00    +0.000 C 
ATOM     16  N   UNL     1       9.629  12.318  18.524  0.00  0.00    +0.000 N 
ATOM     17  N   UNL     1       8.781  10.274  18.207  0.00  0.00    +0.000 N 
ATOM     18  H   UNL     1      10.055  11.651  20.760  0.00  0.00    +0.000 HD
ATOM     19  H   UNL     1       9.777  13.071  19.185  0.00  0.00    +0.000 HD
ATOM     20  H   UNL     1       8.958  12.585  17.813  0.00  0.00    +0.000 HD
ATOM     21  H   UNL     1       9.062  10.418  17.242  0.00  0.00    +0.000 HD
ENDBRANCH  13  17
ENDBRANCH  12  13
ENDBRANCH  11  12
ENDBRANCH   5  11
ENDBRANCH   1   5
BRANCH   2  22
ATOM     22  C   UNL     1       2.776   6.814  18.703  0.00  0.00    +0.000 C 
BRANCH  22  23
ATOM     23  N   UNL     1       2.119   8.123  18.794  0.00  0.00    +0.000 N 
ATOM     24  C   UNL     1       1.517   8.572  19.946  0.00  0.00    +0.000 C 
ATOM     25  O   UNL     1       1.463   7.911  20.976  0.00  0.00    +0.000 OA
ATOM     26  H   UNL     1       2.368   8.793  18.071  0.00  0.00    +0.000 HD
BRANCH  24  27
ATOM     27  C   UNL     1       0.978   9.960  19.907  0.00  0.00    +0.000 A 
ATOM     28  C   UNL     1       0.166  10.469  20.929  0.00  0.00    +0.000 A 
ATOM     29  C   UNL     1      -0.372  11.753  20.818  0.00  0.00    +0.000 A 
ATOM     30  C   UNL     1      -0.092  12.534  19.696  0.00  0.00    +0.000 A 
ATOM     31  C   UNL     1       0.747  12.045  18.695  0.00  0.00    +0.000 A 
ATOM     32  C   UNL     1       1.290  10.764  18.804  0.00  0.00    +0.000 A 
ENDBRANCH  24  27
ENDBRANCH  22  23
BRANCH  22  33
ATOM     33  C   UNL     1       1.798   5.641  18.465  0.00  0.00    +0.000 C 
BRANCH  33  34
ATOM     34  C   UNL     1       2.280   4.209  18.650  0.00  0.00    +0.000 A 
ATOM     35  C   UNL     1       2.952   3.778  19.792  0.00  0.00    +0.000 A 
ATOM     36  C   UNL     1       3.613   2.549  19.803  0.00  0.00    +0.000 A 
ATOM     37  C   UNL     1       3.522   1.667  18.731  0.00  0.00    +0.000 A 
ATOM     38  C   UNL     1       2.758   2.047  17.626  0.00  0.00    +0.000 A 
ATOM     39  C   UNL     1       2.139   3.305  17.588  0.00  0.00    +0.000 A 
BRANCH  37  40
ATOM     40  N   UNL     1       4.362   0.552  18.678  0.00  0.00    +0.000 N 
ATOM     41  H   UNL     1       5.346   0.767  18.576  0.00  0.00    +0.000 HD
ATOM     42  H   UNL     1       4.174  -0.157  19.377  0.00  0.00    +0.000 HD
ENDBRANCH  37  40
ENDBRANCH  33  34
ENDBRANCH  22  33
ENDBRANCH   2  22
TORSDOF 12
ENDMDL
MODEL 7
REMARK VINA RESULT:      -7.9      2.151      2.838
REMARK  Name = 
REMARK  12 active torsions:
REMARK  status: ('A' for Active; 'I' for Inactive)
REMARK    1  A    between atoms: N_4  and  C_5
REMARK    2  A    between atoms: C_5  and  C_6
REMARK    3  A    between atoms: C_6  and  C_7
REMARK    4  A    between atoms: C_7  and  C_8
REMARK    5  A    between atoms: C_8  and  N_9
REMARK    6  A    between atoms: C_8  and  C_30
REMARK    7  A    between atoms: C_10  and  C_12
REMARK    8  A    between atoms: C_12  and  C_13
REMARK    9  A    between atoms: C_12  and  N_21
REMARK   10  A    between atoms: C_13  and  C_14
REMARK   11  A    between atoms: C_17  and  N_18
REMARK   12  A    between atoms: C_22  and  C_24
REMARK                            x       y       z     vdW  Elec       q    Type
REMARK                         _______ _______ _______ _____ _____    ______ ____
ROOT
ATOM      1  N   UNL     1       5.804   5.123  18.421  0.00  0.00    +0.000 N 
ATOM      2  C   UNL     1       6.989   5.761  18.720  0.00  0.00    +0.000 C 
ATOM      3  O   UNL     1       7.474   5.745  19.852  0.00  0.00    +0.000 OA
ATOM      4  H   UNL     1       5.422   5.177  17.486  0.00  0.00    +0.000 HD
ENDROOT
BRANCH   1   5
ATOM      5  C   UNL     1       4.996   4.475  19.468  0.00  0.00    +0.000 C 
BRANCH   5   6
ATOM      6  C   UNL     1       4.685   2.989  19.175  0.00  0.00    +0.000 C 
ATOM      7  N   UNL     1       5.123   2.058  20.071  0.00  0.00    +0.000 N 
ATOM      8  O   UNL     1       4.221   2.608  18.101  0.00  0.00    +0.000 OA
ATOM      9  H   UNL     1       5.426   2.288  21.004  0.00  0.00    +0.000 HD
ATOM     10  H   UNL     1       4.881   1.094  19.869  0.00  0.00    +0.000 HD
ENDBRANCH   5   6
BRANCH   5  11
ATOM     11  C   UNL     1       3.705   5.284  19.678  0.00  0.00    +0.000 C 
BRANCH  11  12
ATOM     12  C   UNL     1       3.091   5.782  18.367  0.00  0.00    +0.000 C 
BRANCH  12  13
ATOM     13  C   UNL     1       1.660   5.281  18.194  0.00  0.00    +0.000 C 
BRANCH  13  17
ATOM     14  N   UNL     1       0.558   3.493  20.104  0.00  0.00    +0.000 NA
ATOM     15  C   UNL     1       1.043   3.060  18.994  0.00  0.00    +0.000 C 
ATOM     16  N   UNL     1       1.008   1.764  18.632  0.00  0.00    +0.000 N 
ATOM     17  N   UNL     1       1.655   3.829  18.074  0.00  0.00    +0.000 N 
ATOM     18  H   UNL     1       0.128   2.718  20.618  0.00  0.00    +0.000 HD
ATOM     19  H   UNL     1       0.837   1.115  19.391  0.00  0.00    +0.000 HD
ATOM     20  H   UNL     1       1.818   1.484  18.091  0.00  0.00    +0.000 HD
ATOM     21  H   UNL     1       1.563   3.492  17.121  0.00  0.00    +0.000 HD
ENDBRANCH  13  17
ENDBRANCH  12  13
ENDBRANCH  11  12
ENDBRANCH   5  11
ENDBRANCH   1   5
BRANCH   2  22
ATOM     22  C   UNL     1       7.648   6.580  17.579  0.00  0.00    +0.000 C 
BRANCH  22  23
ATOM     23  N   UNL     1       7.570   5.784  16.349  0.00  0.00    +0.000 N 
ATOM     24  C   UNL     1       6.463   5.784  15.533  0.00  0.00    +0.000 C 
ATOM     25  O   UNL     1       5.452   6.430  15.776  0.00  0.00    +0.000 OA
ATOM     26  H   UNL     1       8.459   5.455  15.979  0.00  0.00    +0.000 HD
BRANCH  24  27
ATOM     27  C   UNL     1       6.576   4.998  14.273  0.00  0.00    +0.000 A 
ATOM     28  C   UNL     1       7.597   5.232  13.343  0.00  0.00    +0.000 A 
ATOM     29  C   UNL     1       7.624   4.517  12.143  0.00  0.00    +0.000 A 
ATOM     30  C   UNL     1       6.643   3.560  11.877  0.00  0.00    +0.000 A 
ATOM     31  C   UNL     1       5.648   3.297  12.818  0.00  0.00    +0.000 A 
ATOM     32  C   UNL     1       5.619   4.007  14.019  0.00  0.00    +0.000 A 
ENDBRANCH  24  27
ENDBRANCH  22  23
BRANCH  22  33
ATOM     33  C   UNL     1       7.097   8.017  17.428  0.00  0.00    +0.000 C 
BRANCH  33  34
ATOM     34  C   UNL     1       7.889   9.189  17.988  0.00  0.00    +0.000 A 
ATOM     35  C   UNL     1       7.863  10.461  17.420  0.00  0.00    +0.000 A 
ATOM     36  C   UNL     1       8.804  11.422  17.791  0.00  0.00    +0.000 A 
ATOM     37  C   UNL     1       9.714  11.189  18.817  0.00  0.00    +0.000 A 
ATOM     38  C   UNL     1       9.674   9.953  19.465  0.00  0.00    +0.000 A 
ATOM     39  C   UNL     1       8.767   8.964  19.058  0.00  0.00    +0.000 A 
BRANCH  37  40
ATOM     40  N   UNL     1      10.776  12.074  19.017  0.00  0.00    +0.000 N 
ATOM     41  H   UNL     1      11.681  11.720  18.735  0.00  0.00    +0.000 HD
ATOM     42  H   UNL     1      10.601  13.024  18.711  0.00  0.00    +0.000 HD
ENDBRANCH  37  40
ENDBRANCH  33  34
ENDBRANCH  22  33
ENDBRANCH   2  22
TORSDOF 12
ENDMDL
MODEL 8
REMARK VINA RESULT:      -7.9      3.511      6.942
REMARK  Name = 
REMARK  12 active torsions:
REMARK  status: ('A' for Active; 'I' for Inactive)
REMARK    1  A    between atoms: N_4  and  C_5
REMARK    2  A    between atoms: C_5  and  C_6
REMARK    3  A    between atoms: C_6  and  C_7
REMARK    4  A    between atoms: C_7  and  C_8
REMARK    5  A    between atoms: C_8  and  N_9
REMARK    6  A    between atoms: C_8  and  C_30
REMARK    7  A    between atoms: C_10  and  C_12
REMARK    8  A    between atoms: C_12  and  C_13
REMARK    9  A    between atoms: C_12  and  N_21
REMARK   10  A    between atoms: C_13  and  C_14
REMARK   11  A    between atoms: C_17  and  N_18
REMARK   12  A    between atoms: C_22  and  C_24
REMARK                            x       y       z     vdW  Elec       q    Type
REMARK                         _______ _______ _______ _____ _____    ______ ____
ROOT
ATOM      1  N   UNL     1       1.499   9.299  19.339  0.00  0.00    +0.000 N 
ATOM      2  C   UNL     1       1.997   8.880  18.124  0.00  0.00    +0.000 C 
ATOM      3  O   UNL     1       1.551   9.296  17.054  0.00  0.00    +0.000 OA
ATOM      4  H   UNL     1       1.873   8.918  20.199  0.00  0.00    +0.000 HD
ENDROOT
BRANCH   1   5
ATOM      5  C   UNL     1       0.330  10.192  19.422  0.00  0.00    +0.000 C 
BRANCH   5   6
ATOM      6  C   UNL     1       0.703  11.671  19.674  0.00  0.00    +0.000 C 
ATOM      7  N   UNL     1      -0.310  12.548  19.933  0.00  0.00    +0.000 N 
ATOM      8  O   UNL     1       1.835  12.112  19.482  0.00  0.00    +0.000 OA
ATOM      9  H   UNL     1      -1.240  12.257  20.193  0.00  0.00    +0.000 HD
ATOM     10  H   UNL     1      -0.036  13.506  20.123  0.00  0.00    +0.000 HD
ENDBRANCH   5   6
BRANCH   5  11
ATOM     11  C   UNL     1      -0.627   9.665  20.504  0.00  0.00    +0.000 C 
BRANCH  11  12
ATOM     12  C   UNL     1       0.091   8.891  21.613  0.00  0.00    +0.000 C 
BRANCH  12  13
ATOM     13  C   UNL     1       0.139   9.690  22.912  0.00  0.00    +0.000 C 
BRANCH  13  17
ATOM     14  N   UNL     1      -0.631  12.420  23.038  0.00  0.00    +0.000 NA
ATOM     15  C   UNL     1      -1.492  11.479  23.213  0.00  0.00    +0.000 C 
ATOM     16  N   UNL     1      -2.805  11.710  23.401  0.00  0.00    +0.000 N 
ATOM     17  N   UNL     1      -1.195  10.167  23.250  0.00  0.00    +0.000 N 
ATOM     18  H   UNL     1      -1.109  13.326  23.030  0.00  0.00    +0.000 HD
ATOM     19  H   UNL     1      -3.035  12.658  23.675  0.00  0.00    +0.000 HD
ATOM     20  H   UNL     1      -3.238  11.037  24.022  0.00  0.00    +0.000 HD
ATOM     21  H   UNL     1      -1.946   9.561  22.932  0.00  0.00    +0.000 HD
ENDBRANCH  13  17
ENDBRANCH  12  13
ENDBRANCH  11  12
ENDBRANCH   5  11
ENDBRANCH   1   5
BRANCH   2  22
ATOM     22  C   UNL     1       3.095   7.784  18.161  0.00  0.00    +0.000 C 
BRANCH  22  23
ATOM     23  N   UNL     1       2.451   6.511  18.499  0.00  0.00    +0.000 N 
ATOM     24  C   UNL     1       3.049   5.564  19.297  0.00  0.00    +0.000 C 
ATOM     25  O   UNL     1       4.170   5.700  19.772  0.00  0.00    +0.000 OA
ATOM     26  H   UNL     1       1.445   6.473  18.355  0.00  0.00    +0.000 HD
BRANCH  24  27
ATOM     27  C   UNL     1       2.227   4.366  19.625  0.00  0.00    +0.000 A 
ATOM     28  C   UNL     1       2.046   3.930  20.944  0.00  0.00    +0.000 A 
ATOM     29  C   UNL     1       1.324   2.762  21.198  0.00  0.00    +0.000 A 
ATOM     30  C   UNL     1       0.771   2.037  20.142  0.00  0.00    +0.000 A 
ATOM     31  C   UNL     1       0.916   2.490  18.831  0.00  0.00    +0.000 A 
ATOM     32  C   UNL     1       1.634   3.658  18.572  0.00  0.00    +0.000 A 
ENDBRANCH  24  27
ENDBRANCH  22  23
BRANCH  22  33
ATOM     33  C   UNL     1       3.974   7.721  16.890  0.00  0.00    +0.000 C 
BRANCH  33  34
ATOM     34  C   UNL     1       5.189   6.805  16.860  0.00  0.00    +0.000 A 
ATOM     35  C   UNL     1       5.146   5.507  16.354  0.00  0.00    +0.000 A 
ATOM     36  C   UNL     1       6.194   4.618  16.597  0.00  0.00    +0.000 A 
ATOM     37  C   UNL     1       7.359   5.027  17.237  0.00  0.00    +0.000 A 
ATOM     38  C   UNL     1       7.453   6.357  17.650  0.00  0.00    +0.000 A 
ATOM     39  C   UNL     1       6.380   7.239  17.459  0.00  0.00    +0.000 A 
BRANCH  37  40
ATOM     40  N   UNL     1       8.290   4.075  17.658  0.00  0.00    +0.000 N 
ATOM     41  H   UNL     1       8.812   4.328  18.486  0.00  0.00    +0.000 HD
ATOM     42  H   UNL     1       7.945   3.121  17.674  0.00  0.00    +0.000 HD
ENDBRANCH  37  40
ENDBRANCH  33  34
ENDBRANCH  22  33
ENDBRANCH   2  22
TORSDOF 12
ENDMDL
MODEL 9
REMARK VINA RESULT:      -7.8      3.101      8.536
REMARK  Name = 
REMARK  12 active torsions:
REMARK  status: ('A' for Active; 'I' for Inactive)
REMARK    1  A    between atoms: N_4  and  C_5
REMARK    2  A    between atoms: C_5  and  C_6
REMARK    3  A    between atoms: C_6  and  C_7
REMARK    4  A    between atoms: C_7  and  C_8
REMARK    5  A    between atoms: C_8  and  N_9
REMARK    6  A    between atoms: C_8  and  C_30
REMARK    7  A    between atoms: C_10  and  C_12
REMARK    8  A    between atoms: C_12  and  C_13
REMARK    9  A    between atoms: C_12  and  N_21
REMARK   10  A    between atoms: C_13  and  C_14
REMARK   11  A    between atoms: C_17  and  N_18
REMARK   12  A    between atoms: C_22  and  C_24
REMARK                            x       y       z     vdW  Elec       q    Type
REMARK                         _______ _______ _______ _____ _____    ______ ____
ROOT
ATOM      1  N   UNL     1       4.144   5.788  19.673  0.00  0.00    +0.000 N 
ATOM      2  C   UNL     1       3.195   6.674  19.209  0.00  0.00    +0.000 C 
ATOM      3  O   UNL     1       3.175   7.061  18.040  0.00  0.00    +0.000 OA
ATOM      4  H   UNL     1       4.146   5.509  20.645  0.00  0.00    +0.000 HD
ENDROOT
BRANCH   1   5
ATOM      5  C   UNL     1       5.255   5.337  18.817  0.00  0.00    +0.000 C 
BRANCH   5   6
ATOM      6  C   UNL     1       5.175   3.839  18.442  0.00  0.00    +0.000 C 
ATOM      7  N   UNL     1       4.795   3.520  17.171  0.00  0.00    +0.000 N 
ATOM      8  O   UNL     1       5.269   2.940  19.277  0.00  0.00    +0.000 OA
ATOM      9  H   UNL     1       4.787   4.184  16.413  0.00  0.00    +0.000 HD
ATOM     10  H   UNL     1       4.777   2.531  16.944  0.00  0.00    +0.000 HD
ENDBRANCH   5   6
BRANCH   5  11
ATOM     11  C   UNL     1       6.588   5.668  19.509  0.00  0.00    +0.000 C 
BRANCH  11  12
ATOM     12  C   UNL     1       7.725   5.936  18.519  0.00  0.00    +0.000 C 
BRANCH  12  13
ATOM     13  C   UNL     1       7.225   6.670  17.278  0.00  0.00    +0.000 C 
BRANCH  13  17
ATOM     14  N   UNL     1       5.351   6.002  15.253  0.00  0.00    +0.000 NA
ATOM     15  C   UNL     1       6.592   5.683  15.139  0.00  0.00    +0.000 C 
ATOM     16  N   UNL     1       7.099   5.079  14.047  0.00  0.00    +0.000 N 
ATOM     17  N   UNL     1       7.526   5.890  16.086  0.00  0.00    +0.000 N 
ATOM     18  H   UNL     1       4.853   5.759  14.391  0.00  0.00    +0.000 HD
ATOM     19  H   UNL     1       6.412   4.640  13.447  0.00  0.00    +0.000 HD
ATOM     20  H   UNL     1       7.852   4.438  14.266  0.00  0.00    +0.000 HD
ATOM     21  H   UNL     1       8.463   6.032  15.723  0.00  0.00    +0.000 HD
ENDBRANCH  13  17
ENDBRANCH  12  13
ENDBRANCH  11  12
ENDBRANCH   5  11
ENDBRANCH   1   5
BRANCH   2  22
ATOM     22  C   UNL     1       2.195   7.234  20.255  0.00  0.00    +0.000 C 
BRANCH  22  23
ATOM     23  N   UNL     1       1.525   8.396  19.661  0.00  0.00    +0.000 N 
ATOM     24  C   UNL     1       0.891   9.355  20.416  0.00  0.00    +0.000 C 
ATOM     25  O   UNL     1       0.818   9.305  21.638  0.00  0.00    +0.000 OA
ATOM     26  H   UNL     1       1.785   8.613  18.702  0.00  0.00    +0.000 HD
BRANCH  24  27
ATOM     27  C   UNL     1       0.341  10.521  19.670  0.00  0.00    +0.000 A 
ATOM     28  C   UNL     1      -0.946  10.506  19.117  0.00  0.00    +0.000 A 
ATOM     29  C   UNL     1      -1.395  11.596  18.368  0.00  0.00    +0.000 A 
ATOM     30  C   UNL     1      -0.568  12.705  18.181  0.00  0.00    +0.000 A 
ATOM     31  C   UNL     1       0.700  12.738  18.764  0.00  0.00    +0.000 A 
ATOM     32  C   UNL     1       1.150  11.653  19.516  0.00  0.00    +0.000 A 
ENDBRANCH  24  27
ENDBRANCH  22  23
BRANCH  22  33
ATOM     33  C   UNL     1       1.223   6.181  20.834  0.00  0.00    +0.000 C 
BRANCH  33  34
ATOM     34  C   UNL     1       1.382   4.718  20.450  0.00  0.00    +0.000 A 
ATOM     35  C   UNL     1       1.928   3.765  21.308  0.00  0.00    +0.000 A 
ATOM     36  C   UNL     1       2.308   2.512  20.824  0.00  0.00    +0.000 A 
ATOM     37  C   UNL     1       2.044   2.130  19.513  0.00  0.00    +0.000 A 
ATOM     38  C   UNL     1       1.398   3.042  18.677  0.00  0.00    +0.000 A 
ATOM     39  C   UNL     1       1.065   4.322  19.142  0.00  0.00    +0.000 A 
BRANCH  37  40
ATOM     40  N   UNL     1       2.625   0.968  19.000  0.00  0.00    +0.000 N 
ATOM     41  H   UNL     1       2.859   0.268  19.693  0.00  0.00    +0.000 HD
ATOM     42  H   UNL     1       2.162   0.587  18.182  0.00  0.00    +0.000 HD
ENDBRANCH  37  40
ENDBRANCH  33  34
ENDBRANCH  22  33
ENDBRANCH   2  22
TORSDOF 12
ENDMDL
