MODEL 1
REMARK VINA RESULT:      -7.8      0.000      0.000
REMARK  Name = 
REMARK  14 active torsions:
REMARK  status: ('A' for Active; 'I' for Inactive)
REMARK    1  A    between atoms: C_1  and  C_2
REMARK    2  A    between atoms: C_3  and  N_4
REMARK    3  A    between atoms: N_4  and  S_5
REMARK    4  A    between atoms: S_5  and  C_8
REMARK    5  A    between atoms: C_11  and  C_12
REMARK    6  A    between atoms: C_17  and  C_18
REMARK    7  A    between atoms: C_18  and  N_19
REMARK    8  A    between atoms: N_19  and  C_20
REMARK    9  A    between atoms: N_19  and  C_21
REMARK   10  A    between atoms: C_25  and  C_26
REMARK   11  A    between atoms: C_26  and  C_27
REMARK   12  A    between atoms: C_27  and  C_28
REMARK   13  A    between atoms: C_27  and  C_29
REMARK   14  A    between atoms: N_31  and  C_32
REMARK                            x       y       z     vdW  Elec       q    Type
REMARK                         _______ _______ _______ _____ _____    ______ ____
ROOT
ATOM      1  C   UNL     1      -0.552  11.298  21.973  0.00  0.00    +0.000 A 
ATOM      2  C   UNL     1       0.270  11.668  20.911  0.00  0.00    +0.000 A 
ATOM      3  C   UNL     1       0.977  10.693  20.220  0.00  0.00    +0.000 A 
ATOM      4  C   UNL     1       0.928   9.344  20.610  0.00  0.00    +0.000 A 
ATOM      5  C   UNL     1       0.093   8.999  21.692  0.00  0.00    +0.000 A 
ATOM      6  C   UNL     1      -0.641   9.965  22.375  0.00  0.00    +0.000 A 
ENDROOT
BRANCH   4   7
ATOM      7  C   UNL     1       1.673   8.320  19.863  0.00  0.00    +0.000 A 
ATOM      8  C   UNL     1       2.020   8.505  18.514  0.00  0.00    +0.000 A 
ATOM      9  C   UNL     1       2.651   7.495  17.798  0.00  0.00    +0.000 A 
ATOM     10  C   UNL     1       2.895   6.258  18.394  0.00  0.00    +0.000 A 
ATOM     11 CL   UNL     1       3.662   5.054  17.421  0.00  0.00    +0.000 Cl
ATOM     12  C   UNL     1       2.526   6.019  19.724  0.00  0.00    +0.000 A 
ATOM     13  C   UNL     1       1.997   7.087  20.461  0.00  0.00    +0.000 A 
BRANCH  12  14
ATOM     14  C   UNL     1       2.613   4.650  20.369  0.00  0.00    +0.000 C 
BRANCH  14  15
ATOM     15  N   UNL     1       1.328   3.916  20.436  0.00  0.00    +0.000 NA
ATOM     16  C   UNL     1       1.006   3.205  19.189  0.00  0.00    +0.000 C 
ATOM     17  C   UNL     1       1.390   2.926  21.522  0.00  0.00    +0.000 C 
ENDBRANCH  14  15
ENDBRANCH  12  14
ENDBRANCH   4   7
BRANCH   1  18
ATOM     18  S   UNL     1      -1.517  12.525  22.814  0.00  0.00    +0.000 S 
ATOM     19  O   UNL     1      -0.587  13.372  23.543  0.00  0.00    +0.000 OA
ATOM     20  O   UNL     1      -2.590  11.839  23.489  0.00  0.00    +0.000 OA
BRANCH  18  21
ATOM     21  N   UNL     1      -2.150  13.369  21.503  0.00  0.00    +0.000 N 
ATOM     22  H   UNL     1      -1.568  14.110  21.120  0.00  0.00    +0.000 HD
BRANCH  21  25
ATOM     23  C   UNL     1      -5.251  13.904  22.373  0.00  0.00    +0.000 C 
ATOM     24  C   UNL     1      -4.640  13.207  21.214  0.00  0.00    +0.000 A 
ATOM     25  C   UNL     1      -3.317  12.995  20.840  0.00  0.00    +0.000 A 
ATOM     26  C   UNL     1      -3.404  12.265  19.624  0.00  0.00    +0.000 A 
ATOM     27  N   UNL     1      -4.673  12.035  19.273  0.00  0.00    +0.000 NA
ATOM     28  N   UNL     1      -5.394  12.659  20.216  0.00  0.00    +0.000 N 
ATOM     29  C   UNL     1      -6.837  12.692  20.069  0.00  0.00    +0.000 C 
BRANCH  26  30
ATOM     30  C   UNL     1      -2.334  11.818  18.685  0.00  0.00    +0.000 C 
BRANCH  30  31
ATOM     31  C   UNL     1      -2.641  10.621  17.780  0.00  0.00    +0.000 C 
ATOM     32  C   UNL     1      -3.265  11.050  16.452  0.00  0.00    +0.000 C 
ATOM     33  C   UNL     1      -1.322   9.884  17.510  0.00  0.00    +0.000 C 
ENDBRANCH  30  31
ENDBRANCH  26  30
ENDBRANCH  21  25
ENDBRANCH  18  21
ENDBRANCH   1  18
TORSDOF 8
ENDMDL
MODEL 2
REMARK VINA RESULT:      -7.8      1.872      3.667
REMARK  Name = 
REMARK  14 active torsions:
REMARK  status: ('A' for Active; 'I' for Inactive)
REMARK    1  A    between atoms: C_1  and  C_2
REMARK    2  A    between atoms: C_3  and  N_4
REMARK    3  A    between atoms: N_4  and  S_5
REMARK    4  A    between atoms: S_5  and  C_8
REMARK    5  A    between atoms: C_11  and  C_12
REMARK    6  A    between atoms: C_17  and  C_18
REMARK    7  A    between atoms: C_18  and  N_19
REMARK    8  A    between atoms: N_19  and  C_20
REMARK    9  A    between atoms: N_19  and  C_21
REMARK   10  A    between atoms: C_25  and  C_26
REMARK   11  A    between atoms: C_26  and  C_27
REMARK   12  A    between atoms: C_27  and  C_28
REMARK   13  A    between atoms: C_27  and  C_29
REMARK   14  A    between atoms: N_31  and  C_32
REMARK                            x       y       z     vdW  Elec       q    Type
REMARK                         _______ _______ _______ _____ _____    ______ ____
ROOT
ATOM      1  C   UNL     1       0.933   9.892  20.069  0.00  0.00    +0.000 A 
ATOM      2  C   UNL     1       1.194   8.707  20.755  0.00  0.00    +0.000 A 
ATOM      3  C   UNL     1       1.922   7.702  20.132  0.00  0.00    +0.000 A 
ATOM      4  C   UNL     1       2.351   7.831  18.800  0.00  0.00    +0.000 A 
ATOM      5  C   UNL     1       2.068   9.037  18.129  0.00  0.00    +0.000 A 
ATOM      6  C   UNL     1       1.361  10.063  18.751  0.00  0.00    +0.000 A 
ENDROOT
BRANCH   4   7
ATOM      7  C   UNL     1       3.131   6.763  18.158  0.00  0.00    +0.000 A 
ATOM      8  C   UNL     1       4.277   7.048  17.398  0.00  0.00    +0.000 A 
ATOM      9  C   UNL     1       4.956   6.037  16.728  0.00  0.00    +0.000 A 
ATOM     10  C   UNL     1       4.470   4.730  16.752  0.00  0.00    +0.000 A 
ATOM     11 CL   UNL     1       5.365   3.543  15.870  0.00  0.00    +0.000 Cl
ATOM     12  C   UNL     1       3.306   4.412  17.463  0.00  0.00    +0.000 A 
ATOM     13  C   UNL     1       2.705   5.423  18.224  0.00  0.00    +0.000 A 
BRANCH  12  14
ATOM     14  C   UNL     1       2.642   3.052  17.387  0.00  0.00    +0.000 C 
BRANCH  14  15
ATOM     15  N   UNL     1       2.925   2.161  18.537  0.00  0.00    +0.000 NA
ATOM     16  C   UNL     1       4.118   2.564  19.296  0.00  0.00    +0.000 C 
ATOM     17  C   UNL     1       1.775   2.172  19.454  0.00  0.00    +0.000 C 
ENDBRANCH  14  15
ENDBRANCH  12  14
ENDBRANCH   4   7
BRANCH   1  18
ATOM     18  S   UNL     1       0.069  11.211  20.878  0.00  0.00    +0.000 S 
ATOM     19  O   UNL     1       1.075  12.089  21.454  0.00  0.00    +0.000 OA
ATOM     20  O   UNL     1      -0.958  10.615  21.694  0.00  0.00    +0.000 OA
BRANCH  18  21
ATOM     21  N   UNL     1      -0.654  11.962  19.556  0.00  0.00    +0.000 N 
ATOM     22  H   UNL     1      -0.024  12.377  18.874  0.00  0.00    +0.000 HD
BRANCH  21  25
ATOM     23  C   UNL     1      -2.194  10.162  17.308  0.00  0.00    +0.000 C 
ATOM     24  C   UNL     1      -2.678  11.136  18.318  0.00  0.00    +0.000 A 
ATOM     25  C   UNL     1      -2.019  11.889  19.283  0.00  0.00    +0.000 A 
ATOM     26  C   UNL     1      -3.051  12.618  19.933  0.00  0.00    +0.000 A 
ATOM     27  N   UNL     1      -4.252  12.349  19.410  0.00  0.00    +0.000 NA
ATOM     28  N   UNL     1      -4.005  11.415  18.481  0.00  0.00    +0.000 N 
ATOM     29  C   UNL     1      -5.132  10.819  17.788  0.00  0.00    +0.000 C 
BRANCH  26  30
ATOM     30  C   UNL     1      -2.997  13.530  21.113  0.00  0.00    +0.000 C 
BRANCH  30  31
ATOM     31  C   UNL     1      -3.992  13.275  22.250  0.00  0.00    +0.000 C 
ATOM     32  C   UNL     1      -3.389  12.408  23.356  0.00  0.00    +0.000 C 
ATOM     33  C   UNL     1      -4.399  14.636  22.832  0.00  0.00    +0.000 C 
ENDBRANCH  30  31
ENDBRANCH  26  30
ENDBRANCH  21  25
ENDBRANCH  18  21
ENDBRANCH   1  18
TORSDOF 8
ENDMDL
MODEL 3
REMARK VINA RESULT:      -7.6      2.626      4.439
REMARK  Name = 
REMARK  14 active torsions:
REMARK  status: ('A' for Active; 'I' for Inactive)
REMARK    1  A    between atoms: C_1  and  C_2
REMARK    2  A    between atoms: C_3  and  N_4
REMARK    3  A    between atoms: N_4  and  S_5
REMARK    4  A    between atoms: S_5  and  C_8
REMARK    5  A    between atoms: C_11  and  C_12
REMARK    6  A    between atoms: C_17  and  C_18
REMARK    7  A    between atoms: C_18  and  N_19
REMARK    8  A    between atoms: N_19  and  C_20
REMARK    9  A    between atoms: N_19  and  C_21
REMARK   10  A    between atoms: C_25  and  C_26
REMARK   11  A    between atoms: C_26  and  C_27
REMARK   12  A    between atoms: C_27  and  C_28
REMARK   13  A    between atoms: C_27  and  C_29
REMARK   14  A    between atoms: N_31  and  C_32
REMARK                            x       y       z     vdW  Elec       q    Type
REMARK                         _______ _______ _______ _____ _____    ______ ____
ROOT
ATOM      1  C   UNL     1       1.039   9.625  19.996  0.00  0.00    +0.000 A 
ATOM      2  C   UNL     1       1.390   9.817  18.661  0.00  0.00    +0.000 A 
ATOM      3  C   UNL     1       2.068   8.814  17.980  0.00  0.00    +0.000 A 
ATOM      4  C   UNL     1       2.462   7.631  18.629  0.00  0.00    +0.000 A 
ATOM      5  C   UNL     1       2.099   7.467  19.981  0.00  0.00    +0.000 A 
ATOM      6  C   UNL     1       1.395   8.455  20.666  0.00  0.00    +0.000 A 
ENDROOT
BRANCH   4   7
ATOM      7  C   UNL     1       3.170   6.574  17.894  0.00  0.00    +0.000 A 
ATOM      8  C   UNL     1       2.793   5.225  18.005  0.00  0.00    +0.000 A 
ATOM      9  C   UNL     1       3.524   4.228  17.370  0.00  0.00    +0.000 A 
ATOM     10  C   UNL     1       4.680   4.549  16.661  0.00  0.00    +0.000 A 
ATOM     11 CL   UNL     1       5.539   3.242  15.924  0.00  0.00    +0.000 Cl
ATOM     12  C   UNL     1       5.114   5.877  16.561  0.00  0.00    +0.000 A 
ATOM     13  C   UNL     1       4.301   6.876  17.111  0.00  0.00    +0.000 A 
BRANCH  12  14
ATOM     14  C   UNL     1       6.446   6.264  15.950  0.00  0.00    +0.000 C 
BRANCH  14  15
ATOM     15  N   UNL     1       7.538   6.474  16.928  0.00  0.00    +0.000 NA
ATOM     16  C   UNL     1       7.563   7.838  17.477  0.00  0.00    +0.000 C 
ATOM     17  C   UNL     1       7.375   5.535  18.048  0.00  0.00    +0.000 C 
ENDBRANCH  14  15
ENDBRANCH  12  14
ENDBRANCH   4   7
BRANCH   1  18
ATOM     18  S   UNL     1       0.107  10.867  20.852  0.00  0.00    +0.000 S 
ATOM     19  O   UNL     1       1.062  11.693  21.573  0.00  0.00    +0.000 OA
ATOM     20  O   UNL     1      -0.970  10.200  21.537  0.00  0.00    +0.000 OA
BRANCH  18  21
ATOM     21  N   UNL     1      -0.524  11.728  19.551  0.00  0.00    +0.000 N 
ATOM     22  H   UNL     1       0.151  12.163  18.927  0.00  0.00    +0.000 HD
BRANCH  21  25
ATOM     23  C   UNL     1      -2.032  10.080  17.169  0.00  0.00    +0.000 C 
ATOM     24  C   UNL     1      -2.521  11.039  18.191  0.00  0.00    +0.000 A 
ATOM     25  C   UNL     1      -1.877  11.726  19.213  0.00  0.00    +0.000 A 
ATOM     26  C   UNL     1      -2.907  12.477  19.841  0.00  0.00    +0.000 A 
ATOM     27  N   UNL     1      -4.092  12.280  19.254  0.00  0.00    +0.000 NA
ATOM     28  N   UNL     1      -3.841  11.370  18.303  0.00  0.00    +0.000 N 
ATOM     29  C   UNL     1      -4.958  10.850  17.537  0.00  0.00    +0.000 C 
BRANCH  26  30
ATOM     30  C   UNL     1      -2.870  13.344  21.056  0.00  0.00    +0.000 C 
BRANCH  30  31
ATOM     31  C   UNL     1      -3.165  12.683  22.406  0.00  0.00    +0.000 C 
ATOM     32  C   UNL     1      -2.136  13.066  23.470  0.00  0.00    +0.000 C 
ATOM     33  C   UNL     1      -4.560  13.138  22.858  0.00  0.00    +0.000 C 
ENDBRANCH  30  31
ENDBRANCH  26  30
ENDBRANCH  21  25
ENDBRANCH  18  21
ENDBRANCH   1  18
TORSDOF 8
ENDMDL
MODEL 4
REMARK VINA RESULT:      -7.6      5.458     10.065
REMARK  Name = 
REMARK  14 active torsions:
REMARK  status: ('A' for Active; 'I' for Inactive)
REMARK    1  A    between atoms: C_1  and  C_2
REMARK    2  A    between atoms: C_3  and  N_4
REMARK    3  A    between atoms: N_4  and  S_5
REMARK    4  A    between atoms: S_5  and  C_8
REMARK    5  A    between atoms: C_11  and  C_12
REMARK    6  A    between atoms: C_17  and  C_18
REMARK    7  A    between atoms: C_18  and  N_19
REMARK    8  A    between atoms: N_19  and  C_20
REMARK    9  A    between atoms: N_19  and  C_21
REMARK   10  A    between atoms: C_25  and  C_26
REMARK   11  A    between atoms: C_26  and  C_27
REMARK   12  A    between atoms: C_27  and  C_28
REMARK   13  A    between atoms: C_27  and  C_29
REMARK   14  A    between atoms: N_31  and  C_32
REMARK                            x       y       z     vdW  Elec       q    Type
REMARK                         _______ _______ _______ _____ _____    ______ ____
ROOT
ATOM      1  C   UNL     1       3.074   4.662  18.576  0.00  0.00    +0.000 A 
ATOM      2  C   UNL     1       2.940   4.709  19.962  0.00  0.00    +0.000 A 
ATOM      3  C   UNL     1       2.421   5.848  20.561  0.00  0.00    +0.000 A 
ATOM      4  C   UNL     1       2.082   6.981  19.802  0.00  0.00    +0.000 A 
ATOM      5  C   UNL     1       2.234   6.908  18.403  0.00  0.00    +0.000 A 
ATOM      6  C   UNL     1       2.729   5.761  17.788  0.00  0.00    +0.000 A 
ENDROOT
BRANCH   4   7
ATOM      7  C   UNL     1       1.524   8.177  20.449  0.00  0.00    +0.000 A 
ATOM      8  C   UNL     1       0.865   8.101  21.687  0.00  0.00    +0.000 A 
ATOM      9  C   UNL     1       0.269   9.225  22.246  0.00  0.00    +0.000 A 
ATOM     10  C   UNL     1       0.266  10.435  21.554  0.00  0.00    +0.000 A 
ATOM     11 CL   UNL     1      -0.519  11.774  22.315  0.00  0.00    +0.000 Cl
ATOM     12  C   UNL     1       0.875  10.543  20.297  0.00  0.00    +0.000 A 
ATOM     13  C   UNL     1       1.568   9.430  19.806  0.00  0.00    +0.000 A 
BRANCH  12  14
ATOM     14  C   UNL     1       0.757  11.781  19.429  0.00  0.00    +0.000 C 
BRANCH  14  15
ATOM     15  N   UNL     1       2.002  12.574  19.312  0.00  0.00    +0.000 NA
ATOM     16  C   UNL     1       1.977  13.520  18.186  0.00  0.00    +0.000 C 
ATOM     17  C   UNL     1       2.207  13.343  20.549  0.00  0.00    +0.000 C 
ENDBRANCH  14  15
ENDBRANCH  12  14
ENDBRANCH   4   7
BRANCH   1  18
ATOM     18  S   UNL     1       3.665   3.185  17.793  0.00  0.00    +0.000 S 
ATOM     19  O   UNL     1       3.117   3.167  16.447  0.00  0.00    +0.000 OA
ATOM     20  O   UNL     1       3.439   2.095  18.707  0.00  0.00    +0.000 OA
BRANCH  18  21
ATOM     21  N   UNL     1       5.316   3.510  17.733  0.00  0.00    +0.000 N 
ATOM     22  H   UNL     1       5.937   2.715  17.858  0.00  0.00    +0.000 HD
BRANCH  21  25
ATOM     23  C   UNL     1       6.877   5.700  19.585  0.00  0.00    +0.000 C 
ATOM     24  C   UNL     1       6.493   5.690  18.151  0.00  0.00    +0.000 A 
ATOM     25  C   UNL     1       5.841   4.747  17.364  0.00  0.00    +0.000 A 
ATOM     26  C   UNL     1       5.788   5.338  16.072  0.00  0.00    +0.000 A 
ATOM     27  N   UNL     1       6.352   6.550  16.058  0.00  0.00    +0.000 NA
ATOM     28  N   UNL     1       6.816   6.712  17.305  0.00  0.00    +0.000 N 
ATOM     29  C   UNL     1       7.590   7.903  17.601  0.00  0.00    +0.000 C 
BRANCH  26  30
ATOM     30  C   UNL     1       5.294   4.788  14.776  0.00  0.00    +0.000 C 
BRANCH  30  31
ATOM     31  C   UNL     1       6.282   3.983  13.926  0.00  0.00    +0.000 C 
ATOM     32  C   UNL     1       5.620   3.394  12.680  0.00  0.00    +0.000 C 
ATOM     33  C   UNL     1       7.416   4.928  13.503  0.00  0.00    +0.000 C 
ENDBRANCH  30  31
ENDBRANCH  26  30
ENDBRANCH  21  25
ENDBRANCH  18  21
ENDBRANCH   1  18
TORSDOF 8
ENDMDL
MODEL 5
REMARK VINA RESULT:      -7.5      2.166      3.723
REMARK  Name = 
REMARK  14 active torsions:
REMARK  status: ('A' for Active; 'I' for Inactive)
REMARK    1  A    between atoms: C_1  and  C_2
REMARK    2  A    between atoms: C_3  and  N_4
REMARK    3  A    between atoms: N_4  and  S_5
REMARK    4  A    between atoms: S_5  and  C_8
REMARK    5  A    between atoms: C_11  and  C_12
REMARK    6  A    between atoms: C_17  and  C_18
REMARK    7  A    between atoms: C_18  and  N_19
REMARK    8  A    between atoms: N_19  and  C_20
REMARK    9  A    between atoms: N_19  and  C_21
REMARK   10  A    between atoms: C_25  and  C_26
REMARK   11  A    between atoms: C_26  and  C_27
REMARK   12  A    between atoms: C_27  and  C_28
REMARK   13  A    between atoms: C_27  and  C_29
REMARK   14  A    between atoms: N_31  and  C_32
REMARK                            x       y       z     vdW  Elec       q    Type
REMARK                         _______ _______ _______ _____ _____    ______ ____
ROOT
ATOM      1  C   UNL     1       1.048   9.628  19.841  0.00  0.00    +0.000 A 
ATOM      2  C   UNL     1       1.420   8.453  20.493  0.00  0.00    +0.000 A 
ATOM      3  C   UNL     1       2.227   7.533  19.837  0.00  0.00    +0.000 A 
ATOM      4  C   UNL     1       2.627   7.734  18.505  0.00  0.00    +0.000 A 
ATOM      5  C   UNL     1       2.231   8.927  17.869  0.00  0.00    +0.000 A 
ATOM      6  C   UNL     1       1.444   9.870  18.525  0.00  0.00    +0.000 A 
ENDROOT
BRANCH   4   7
ATOM      7  C   UNL     1       3.490   6.756  17.827  0.00  0.00    +0.000 A 
ATOM      8  C   UNL     1       4.332   7.132  16.766  0.00  0.00    +0.000 A 
ATOM      9  C   UNL     1       5.080   6.182  16.080  0.00  0.00    +0.000 A 
ATOM     10  C   UNL     1       4.957   4.830  16.398  0.00  0.00    +0.000 A 
ATOM     11 CL   UNL     1       5.906   3.717  15.477  0.00  0.00    +0.000 Cl
ATOM     12  C   UNL     1       4.097   4.409  17.420  0.00  0.00    +0.000 A 
ATOM     13  C   UNL     1       3.442   5.392  18.174  0.00  0.00    +0.000 A 
BRANCH  12  14
ATOM     14  C   UNL     1       3.798   2.949  17.695  0.00  0.00    +0.000 C 
BRANCH  14  15
ATOM     15  N   UNL     1       3.227   2.676  19.034  0.00  0.00    +0.000 NA
ATOM     16  C   UNL     1       2.008   1.855  18.983  0.00  0.00    +0.000 C 
ATOM     17  C   UNL     1       4.222   1.964  19.851  0.00  0.00    +0.000 C 
ENDBRANCH  14  15
ENDBRANCH  12  14
ENDBRANCH   4   7
BRANCH   1  18
ATOM     18  S   UNL     1       0.080  10.844  20.694  0.00  0.00    +0.000 S 
ATOM     19  O   UNL     1       1.012  11.724  21.380  0.00  0.00    +0.000 OA
ATOM     20  O   UNL     1      -0.954  10.144  21.412  0.00  0.00    +0.000 OA
BRANCH  18  21
ATOM     21  N   UNL     1      -0.613  11.653  19.391  0.00  0.00    +0.000 N 
ATOM     22  H   UNL     1       0.028  12.002  18.683  0.00  0.00    +0.000 HD
BRANCH  21  25
ATOM     23  C   UNL     1      -2.379  10.108  17.119  0.00  0.00    +0.000 C 
ATOM     24  C   UNL     1      -2.742  11.067  18.192  0.00  0.00    +0.000 A 
ATOM     25  C   UNL     1      -1.988  11.711  19.167  0.00  0.00    +0.000 A 
ATOM     26  C   UNL     1      -2.930  12.491  19.889  0.00  0.00    +0.000 A 
ATOM     27  N   UNL     1      -4.167  12.352  19.400  0.00  0.00    +0.000 NA
ATOM     28  N   UNL     1      -4.033  11.449  18.419  0.00  0.00    +0.000 N 
ATOM     29  C   UNL     1      -5.231  10.988  17.741  0.00  0.00    +0.000 C 
BRANCH  26  30
ATOM     30  C   UNL     1      -2.758  13.334  21.109  0.00  0.00    +0.000 C 
BRANCH  30  31
ATOM     31  C   UNL     1      -2.315  14.787  20.908  0.00  0.00    +0.000 C 
ATOM     32  C   UNL     1      -2.988  15.735  21.900  0.00  0.00    +0.000 C 
ATOM     33  C   UNL     1      -0.793  14.844  21.099  0.00  0.00    +0.000 C 
ENDBRANCH  30  31
ENDBRANCH  26  30
ENDBRANCH  21  25
ENDBRANCH  18  21
ENDBRANCH   1  18
TORSDOF 8
ENDMDL
MODEL 6
REMARK VINA RESULT:      -7.5      6.812     10.359
REMARK  Name = 
REMARK  14 active torsions:
REMARK  status: ('A' for Active; 'I' for Inactive)
REMARK    1  A    between atoms: C_1  and  C_2
REMARK    2  A    between atoms: C_3  and  N_4
REMARK    3  A    between atoms: N_4  and  S_5
REMARK    4  A    between atoms: S_5  and  C_8
REMARK    5  A    between atoms: C_11  and  C_12
REMARK    6  A    between atoms: C_17  and  C_18
REMARK    7  A    between atoms: C_18  and  N_19
REMARK    8  A    between atoms: N_19  and  C_20
REMARK    9  A    between atoms: N_19  and  C_21
REMARK   10  A    between atoms: C_25  and  C_26
REMARK   11  A    between atoms: C_26  and  C_27
REMARK   12  A    between atoms: C_27  and  C_28
REMARK   13  A    between atoms: C_27  and  C_29
REMARK   14  A    between atoms: N_31  and  C_32
REMARK                            x       y       z     vdW  Elec       q    Type
REMARK                         _______ _______ _______ _____ _____    ______ ____
ROOT
ATOM      1  C   UNL     1       6.891   6.272  17.911  0.00  0.00    +0.000 A 
ATOM      2  C   UNL     1       7.929   6.362  18.836  0.00  0.00    +0.000 A 
ATOM      3  C   UNL     1       8.547   7.586  19.056  0.00  0.00    +0.000 A 
ATOM      4  C   UNL     1       8.186   8.727  18.319  0.00  0.00    +0.000 A 
ATOM      5  C   UNL     1       7.137   8.606  17.386  0.00  0.00    +0.000 A 
ATOM      6  C   UNL     1       6.492   7.389  17.176  0.00  0.00    +0.000 A 
ENDROOT
BRANCH   4   7
ATOM      7  C   UNL     1       8.841  10.019  18.570  0.00  0.00    +0.000 A 
ATOM      8  C   UNL     1       9.733  10.193  19.641  0.00  0.00    +0.000 A 
ATOM      9  C   UNL     1      10.280  11.441  19.915  0.00  0.00    +0.000 A 
ATOM     10  C   UNL     1       9.902  12.553  19.165  0.00  0.00    +0.000 A 
ATOM     11 CL   UNL     1      10.614  14.069  19.593  0.00  0.00    +0.000 Cl
ATOM     12  C   UNL     1       8.982  12.430  18.116  0.00  0.00    +0.000 A 
ATOM     13  C   UNL     1       8.533  11.146  17.783  0.00  0.00    +0.000 A 
BRANCH  12  14
ATOM     14  C   UNL     1       8.410  13.625  17.379  0.00  0.00    +0.000 C 
BRANCH  14  15
ATOM     15  N   UNL     1       7.552  14.507  18.204  0.00  0.00    +0.000 NA
ATOM     16  C   UNL     1       7.931  15.926  18.113  0.00  0.00    +0.000 C 
ATOM     17  C   UNL     1       6.156  14.379  17.763  0.00  0.00    +0.000 C 
ENDBRANCH  14  15
ENDBRANCH  12  14
ENDBRANCH   4   7
BRANCH   1  18
ATOM     18  S   UNL     1       6.045   4.732  17.677  0.00  0.00    +0.000 S 
ATOM     19  O   UNL     1       6.169   3.985  18.918  0.00  0.00    +0.000 OA
ATOM     20  O   UNL     1       6.496   4.181  16.425  0.00  0.00    +0.000 OA
BRANCH  18  21
ATOM     21  N   UNL     1       4.463   5.276  17.494  0.00  0.00    +0.000 N 
ATOM     22  H   UNL     1       4.290   5.909  16.717  0.00  0.00    +0.000 HD
BRANCH  21  25
ATOM     23  C   UNL     1       3.330   2.217  17.645  0.00  0.00    +0.000 C 
ATOM     24  C   UNL     1       2.895   3.482  18.289  0.00  0.00    +0.000 A 
ATOM     25  C   UNL     1       3.390   4.780  18.233  0.00  0.00    +0.000 A 
ATOM     26  C   UNL     1       2.531   5.526  19.084  0.00  0.00    +0.000 A 
ATOM     27  N   UNL     1       1.575   4.759  19.619  0.00  0.00    +0.000 NA
ATOM     28  N   UNL     1       1.851   3.527  19.169  0.00  0.00    +0.000 N 
ATOM     29  C   UNL     1       1.049   2.421  19.658  0.00  0.00    +0.000 C 
BRANCH  26  30
ATOM     30  C   UNL     1       2.594   6.954  19.511  0.00  0.00    +0.000 C 
BRANCH  30  31
ATOM     31  C   UNL     1       1.863   7.985  18.644  0.00  0.00    +0.000 C 
ATOM     32  C   UNL     1       1.306   9.142  19.473  0.00  0.00    +0.000 C 
ATOM     33  C   UNL     1       2.866   8.530  17.617  0.00  0.00    +0.000 C 
ENDBRANCH  30  31
ENDBRANCH  26  30
ENDBRANCH  21  25
ENDBRANCH  18  21
ENDBRANCH   1  18
TORSDOF 8
ENDMDL
MODEL 7
REMARK VINA RESULT:      -7.4      2.401      4.255
REMARK  Name = 
REMARK  14 active torsions:
REMARK  status: ('A' for Active; 'I' for Inactive)
REMARK    1  A    between atoms: C_1  and  C_2
REMARK    2  A    between atoms: C_3  and  N_4
REMARK    3  A    between atoms: N_4  and  S_5
REMARK    4  A    between atoms: S_5  and  C_8
REMARK    5  A    between atoms: C_11  and  C_12
REMARK    6  A    between atoms: C_17  and  C_18
REMARK    7  A    between atoms: C_18  and  N_19
REMARK    8  A    between atoms: N_19  and  C_20
REMARK    9  A    between atoms: N_19  and  C_21
REMARK   10  A    between atoms: C_25  and  C_26
REMARK   11  A    between atoms: C_26  and  C_27
REMARK   12  A    between atoms: C_27  and  C_28
REMARK   13  A    between atoms: C_27  and  C_29
REMARK   14  A    between atoms: N_31  and  C_32
REMARK                            x       y       z     vdW  Elec       q    Type
REMARK                         _______ _______ _______ _____ _____    ______ ____
ROOT
ATOM      1  C   UNL     1       1.096  10.137  19.791  0.00  0.00    +0.000 A 
ATOM      2  C   UNL     1       1.599   9.708  18.564  0.00  0.00    +0.000 A 
ATOM      3  C   UNL     1       2.008   8.390  18.415  0.00  0.00    +0.000 A 
ATOM      4  C   UNL     1       1.980   7.491  19.495  0.00  0.00    +0.000 A 
ATOM      5  C   UNL     1       1.473   7.954  20.726  0.00  0.00    +0.000 A 
ATOM      6  C   UNL     1       1.035   9.267  20.880  0.00  0.00    +0.000 A 
ENDROOT
BRANCH   4   7
ATOM      7  C   UNL     1       2.406   6.095  19.320  0.00  0.00    +0.000 A 
ATOM      8  C   UNL     1       2.263   5.150  20.349  0.00  0.00    +0.000 A 
ATOM      9  C   UNL     1       2.746   3.856  20.198  0.00  0.00    +0.000 A 
ATOM     10  C   UNL     1       3.435   3.494  19.041  0.00  0.00    +0.000 A 
ATOM     11 CL   UNL     1       4.021   1.871  18.951  0.00  0.00    +0.000 Cl
ATOM     12  C   UNL     1       3.637   4.419  18.009  0.00  0.00    +0.000 A 
ATOM     13  C   UNL     1       3.042   5.681  18.133  0.00  0.00    +0.000 A 
BRANCH  12  14
ATOM     14  C   UNL     1       4.518   4.134  16.809  0.00  0.00    +0.000 C 
BRANCH  14  15
ATOM     15  N   UNL     1       5.787   4.896  16.779  0.00  0.00    +0.000 NA
ATOM     16  C   UNL     1       6.624   4.665  17.967  0.00  0.00    +0.000 C 
ATOM     17  C   UNL     1       6.562   4.504  15.592  0.00  0.00    +0.000 C 
ENDBRANCH  14  15
ENDBRANCH  12  14
ENDBRANCH   4   7
BRANCH   1  18
ATOM     18  S   UNL     1       0.501  11.797  19.972  0.00  0.00    +0.000 S 
ATOM     19  O   UNL     1       0.439  12.375  18.640  0.00  0.00    +0.000 OA
ATOM     20  O   UNL     1       1.271  12.417  21.021  0.00  0.00    +0.000 OA
BRANCH  18  21
ATOM     21  N   UNL     1      -1.056  11.505  20.541  0.00  0.00    +0.000 N 
ATOM     22  H   UNL     1      -1.140  11.277  21.528  0.00  0.00    +0.000 HD
BRANCH  21  25
ATOM     23  C   UNL     1      -1.923  10.116  17.715  0.00  0.00    +0.000 C 
ATOM     24  C   UNL     1      -2.570  11.144  18.569  0.00  0.00    +0.000 A 
ATOM     25  C   UNL     1      -2.204  11.720  19.780  0.00  0.00    +0.000 A 
ATOM     26  C   UNL     1      -3.256  12.629  20.074  0.00  0.00    +0.000 A 
ATOM     27  N   UNL     1      -4.195  12.625  19.123  0.00  0.00    +0.000 NA
ATOM     28  N   UNL     1      -3.786  11.684  18.260  0.00  0.00    +0.000 N 
ATOM     29  C   UNL     1      -4.653  11.350  17.145  0.00  0.00    +0.000 C 
BRANCH  26  30
ATOM     30  C   UNL     1      -3.491  13.481  21.277  0.00  0.00    +0.000 C 
BRANCH  30  31
ATOM     31  C   UNL     1      -4.153  12.823  22.492  0.00  0.00    +0.000 C 
ATOM     32  C   UNL     1      -3.124  12.261  23.472  0.00  0.00    +0.000 C 
ATOM     33  C   UNL     1      -5.003  13.889  23.198  0.00  0.00    +0.000 C 
ENDBRANCH  30  31
ENDBRANCH  26  30
ENDBRANCH  21  25
ENDBRANCH  18  21
ENDBRANCH   1  18
TORSDOF 8
ENDMDL
MODEL 8
REMARK VINA RESULT:      -7.4      1.909      3.503
REMARK  Name = 
REMARK  14 active torsions:
REMARK  status: ('A' for Active; 'I' for Inactive)
REMARK    1  A    between atoms: C_1  and  C_2
REMARK    2  A    between atoms: C_3  and  N_4
REMARK    3  A    between atoms: N_4  and  S_5
REMARK    4  A    between atoms: S_5  and  C_8
REMARK    5  A    between atoms: C_11  and  C_12
REMARK    6  A    between atoms: C_17  and  C_18
REMARK    7  A    between atoms: C_18  and  N_19
REMARK    8  A    between atoms: N_19  and  C_20
REMARK    9  A    between atoms: N_19  and  C_21
REMARK   10  A    between atoms: C_25  and  C_26
REMARK   11  A    between atoms: C_26  and  C_27
REMARK   12  A    between atoms: C_27  and  C_28
REMARK   13  A    between atoms: C_27  and  C_29
REMARK   14  A    between atoms: N_31  and  C_32
REMARK                            x       y       z     vdW  Elec       q    Type
REMARK                         _______ _______ _______ _____ _____    ______ ____
ROOT
ATOM      1  C   UNL     1       0.723  10.082  19.735  0.00  0.00    +0.000 A 
ATOM      2  C   UNL     1       1.199  10.238  18.435  0.00  0.00    +0.000 A 
ATOM      3  C   UNL     1       1.981   9.240  17.867  0.00  0.00    +0.000 A 
ATOM      4  C   UNL     1       2.353   8.101  18.601  0.00  0.00    +0.000 A 
ATOM      5  C   UNL     1       1.863   7.973  19.916  0.00  0.00    +0.000 A 
ATOM      6  C   UNL     1       1.056   8.954  20.486  0.00  0.00    +0.000 A 
ENDROOT
BRANCH   4   7
ATOM      7  C   UNL     1       3.173   7.048  17.984  0.00  0.00    +0.000 A 
ATOM      8  C   UNL     1       4.236   7.358  17.120  0.00  0.00    +0.000 A 
ATOM      9  C   UNL     1       4.948   6.351  16.479  0.00  0.00    +0.000 A 
ATOM     10  C   UNL     1       4.577   5.017  16.640  0.00  0.00    +0.000 A 
ATOM     11 CL   UNL     1       5.504   3.835  15.786  0.00  0.00    +0.000 Cl
ATOM     12  C   UNL     1       3.496   4.668  17.460  0.00  0.00    +0.000 A 
ATOM     13  C   UNL     1       2.866   5.688  18.185  0.00  0.00    +0.000 A 
BRANCH  12  14
ATOM     14  C   UNL     1       2.945   3.258  17.539  0.00  0.00    +0.000 C 
BRANCH  14  15
ATOM     15  N   UNL     1       2.757   2.744  18.916  0.00  0.00    +0.000 NA
ATOM     16  C   UNL     1       1.518   1.968  19.075  0.00  0.00    +0.000 C 
ATOM     17  C   UNL     1       3.889   1.874  19.268  0.00  0.00    +0.000 C 
ENDBRANCH  14  15
ENDBRANCH  12  14
ENDBRANCH   4   7
BRANCH   1  18
ATOM     18  S   UNL     1      -0.337  11.313  20.443  0.00  0.00    +0.000 S 
ATOM     19  O   UNL     1       0.514  12.405  20.885  0.00  0.00    +0.000 OA
ATOM     20  O   UNL     1      -1.227  10.642  21.355  0.00  0.00    +0.000 OA
BRANCH  18  21
ATOM     21  N   UNL     1      -1.209  11.786  19.082  0.00  0.00    +0.000 N 
ATOM     22  H   UNL     1      -0.672  11.929  18.230  0.00  0.00    +0.000 HD
BRANCH  21  25
ATOM     23  C   UNL     1      -3.234  10.082  17.168  0.00  0.00    +0.000 C 
ATOM     24  C   UNL     1      -3.467  11.111  18.214  0.00  0.00    +0.000 A 
ATOM     25  C   UNL     1      -2.601  11.822  19.036  0.00  0.00    +0.000 A 
ATOM     26  C   UNL     1      -3.452  12.645  19.822  0.00  0.00    +0.000 A 
ATOM     27  N   UNL     1      -4.740  12.467  19.510  0.00  0.00    +0.000 NA
ATOM     28  N   UNL     1      -4.723  11.501  18.581  0.00  0.00    +0.000 N 
ATOM     29  C   UNL     1      -5.992  10.989  18.098  0.00  0.00    +0.000 C 
BRANCH  26  30
ATOM     30  C   UNL     1      -3.134  13.569  20.950  0.00  0.00    +0.000 C 
BRANCH  30  31
ATOM     31  C   UNL     1      -3.531  13.126  22.362  0.00  0.00    +0.000 C 
ATOM     32  C   UNL     1      -2.380  13.278  23.356  0.00  0.00    +0.000 C 
ATOM     33  C   UNL     1      -4.713  13.996  22.812  0.00  0.00    +0.000 C 
ENDBRANCH  30  31
ENDBRANCH  26  30
ENDBRANCH  21  25
ENDBRANCH  18  21
ENDBRANCH   1  18
TORSDOF 8
ENDMDL
MODEL 9
REMARK VINA RESULT:      -7.3      1.680      2.242
REMARK  Name = 
REMARK  14 active torsions:
REMARK  status: ('A' for Active; 'I' for Inactive)
REMARK    1  A    between atoms: C_1  and  C_2
REMARK    2  A    between atoms: C_3  and  N_4
REMARK    3  A    between atoms: N_4  and  S_5
REMARK    4  A    between atoms: S_5  and  C_8
REMARK    5  A    between atoms: C_11  and  C_12
REMARK    6  A    between atoms: C_17  and  C_18
REMARK    7  A    between atoms: C_18  and  N_19
REMARK    8  A    between atoms: N_19  and  C_20
REMARK    9  A    between atoms: N_19  and  C_21
REMARK   10  A    between atoms: C_25  and  C_26
REMARK   11  A    between atoms: C_26  and  C_27
REMARK   12  A    between atoms: C_27  and  C_28
REMARK   13  A    between atoms: C_27  and  C_29
REMARK   14  A    between atoms: N_31  and  C_32
REMARK                            x       y       z     vdW  Elec       q    Type
REMARK                         _______ _______ _______ _____ _____    ______ ____
ROOT
ATOM      1  C   UNL     1       0.493  11.033  19.531  0.00  0.00    +0.000 A 
ATOM      2  C   UNL     1       1.225  10.971  18.346  0.00  0.00    +0.000 A 
ATOM      3  C   UNL     1       1.901   9.803  18.020  0.00  0.00    +0.000 A 
ATOM      4  C   UNL     1       1.911   8.700  18.890  0.00  0.00    +0.000 A 
ATOM      5  C   UNL     1       1.168   8.793  20.083  0.00  0.00    +0.000 A 
ATOM      6  C   UNL     1       0.464   9.949  20.409  0.00  0.00    +0.000 A 
ENDROOT
BRANCH   4   7
ATOM      7  C   UNL     1       2.622   7.465  18.526  0.00  0.00    +0.000 A 
ATOM      8  C   UNL     1       3.609   7.456  17.527  0.00  0.00    +0.000 A 
ATOM      9  C   UNL     1       4.214   6.267  17.135  0.00  0.00    +0.000 A 
ATOM     10  C   UNL     1       3.803   5.055  17.690  0.00  0.00    +0.000 A 
ATOM     11 CL   UNL     1       4.593   3.625  17.126  0.00  0.00    +0.000 Cl
ATOM     12  C   UNL     1       2.791   5.017  18.658  0.00  0.00    +0.000 A 
ATOM     13  C   UNL     1       2.278   6.236  19.120  0.00  0.00    +0.000 A 
BRANCH  12  14
ATOM     14  C   UNL     1       2.191   3.723  19.169  0.00  0.00    +0.000 C 
BRANCH  14  15
ATOM     15  N   UNL     1       2.611   3.344  20.538  0.00  0.00    +0.000 NA
ATOM     16  C   UNL     1       1.540   2.694  21.309  0.00  0.00    +0.000 C 
ATOM     17  C   UNL     1       3.746   2.413  20.459  0.00  0.00    +0.000 C 
ENDBRANCH  14  15
ENDBRANCH  12  14
ENDBRANCH   4   7
BRANCH   1  18
ATOM     18  S   UNL     1      -0.434  12.492  19.922  0.00  0.00    +0.000 S 
ATOM     19  O   UNL     1      -0.561  13.259  18.694  0.00  0.00    +0.000 OA
ATOM     20  O   UNL     1       0.151  13.069  21.106  0.00  0.00    +0.000 OA
BRANCH  18  21
ATOM     21  N   UNL     1      -1.920  11.812  20.326  0.00  0.00    +0.000 N 
ATOM     22  H   UNL     1      -1.890  10.948  20.861  0.00  0.00    +0.000 HD
BRANCH  21  25
ATOM     23  C   UNL     1      -3.148  14.431  21.842  0.00  0.00    +0.000 C 
ATOM     24  C   UNL     1      -3.674  13.556  20.764  0.00  0.00    +0.000 A 
ATOM     25  C   UNL     1      -3.140  12.450  20.111  0.00  0.00    +0.000 A 
ATOM     26  C   UNL     1      -4.140  12.072  19.175  0.00  0.00    +0.000 A 
ATOM     27  N   UNL     1      -5.211  12.870  19.244  0.00  0.00    +0.000 NA
ATOM     28  N   UNL     1      -4.881  13.785  20.167  0.00  0.00    +0.000 N 
ATOM     29  C   UNL     1      -5.802  14.880  20.409  0.00  0.00    +0.000 C 
BRANCH  26  30
ATOM     30  C   UNL     1      -4.129  11.017  18.120  0.00  0.00    +0.000 C 
BRANCH  30  31
ATOM     31  C   UNL     1      -3.013  11.077  17.071  0.00  0.00    +0.000 C 
ATOM     32  C   UNL     1      -2.023   9.922  17.221  0.00  0.00    +0.000 C 
ATOM     33  C   UNL     1      -3.667  11.012  15.684  0.00  0.00    +0.000 C 
ENDBRANCH  30  31
ENDBRANCH  26  30
ENDBRANCH  21  25
ENDBRANCH  18  21
ENDBRANCH   1  18
TORSDOF 8
ENDMDL
