MODEL 1
REMARK VINA RESULT:      -6.4      0.000      0.000
REMARK  Name = 
REMARK  8 active torsions:
REMARK  status: ('A' for Active; 'I' for Inactive)
REMARK    1  A    between atoms: C_1  and  C_2
REMARK    2  A    between atoms: C_7  and  C_8
REMARK    3  A    between atoms: C_8  and  N_9
REMARK    4  A    between atoms: N_9  and  C_10
REMARK    5  A    between atoms: N_9  and  C_13
REMARK    6  A    between atoms: C_10  and  C_11
REMARK    7  A    between atoms: C_11  and  O_12
REMARK    8  A    between atoms: C_13  and  C_14
REMARK                            x       y       z     vdW  Elec       q    Type
REMARK                         _______ _______ _______ _____ _____    ______ ____
ROOT
ATOM      1  N   UNL     1       6.708   5.553  18.234  0.00  0.00    +0.000 NA
ENDROOT
BRANCH   1   2
ATOM      2  C   UNL     1       5.753   5.100  19.267  0.00  0.00    +0.000 C 
BRANCH   2   9
ATOM      3  C   UNL     1       3.641   6.801  17.887  0.00  0.00    +0.000 C 
ATOM      4  C   UNL     1       3.456   5.326  18.118  0.00  0.00    +0.000 A 
ATOM      5  C   UNL     1       2.249   4.728  17.719  0.00  0.00    +0.000 A 
ATOM      6  C   UNL     1       2.057   3.353  17.836  0.00  0.00    +0.000 A 
ATOM      7  C   UNL     1       3.075   2.550  18.338  0.00  0.00    +0.000 A 
ATOM      8  C   UNL     1       4.266   3.133  18.773  0.00  0.00    +0.000 A 
ATOM      9  C   UNL     1       4.461   4.522  18.705  0.00  0.00    +0.000 A 
ENDBRANCH   2   9
ENDBRANCH   1   2
BRANCH   1  10
ATOM     10  C   UNL     1       7.730   6.500  18.730  0.00  0.00    +0.000 C 
BRANCH  10  11
ATOM     11  C   UNL     1       8.009   7.796  17.947  0.00  0.00    +0.000 C 
BRANCH  11  12
ATOM     12  O   UNL     1       7.169   7.928  16.805  0.00  0.00    +0.000 OA
ATOM     13  H   UNL     1       7.641   7.527  16.055  0.00  0.00    +0.000 HD
ENDBRANCH  11  12
ENDBRANCH  10  11
ENDBRANCH   1  10
BRANCH   1  14
ATOM     14  C   UNL     1       7.324   4.411  17.537  0.00  0.00    +0.000 C 
BRANCH  14  15
ATOM     15  C   UNL     1       6.971   4.378  16.081  0.00  0.00    +0.000 A 
ATOM     16  N   UNL     1       6.049   3.629  15.509  0.00  0.00    +0.000 NA
ATOM     17  C   UNL     1       6.042   3.997  14.191  0.00  0.00    +0.000 A 
ATOM     18  C   UNL     1       6.970   4.983  13.955  0.00  0.00    +0.000 A 
ATOM     19  N   UNL     1       7.562   5.210  15.166  0.00  0.00    +0.000 N 
ATOM     20  H   UNL     1       8.267   5.901  15.383  0.00  0.00    +0.000 HD
ENDBRANCH  14  15
ENDBRANCH   1  14
TORSDOF 7
ENDMDL
MODEL 2
REMARK VINA RESULT:      -6.3      1.189      1.477
REMARK  Name = 
REMARK  8 active torsions:
REMARK  status: ('A' for Active; 'I' for Inactive)
REMARK    1  A    between atoms: C_1  and  C_2
REMARK    2  A    between atoms: C_7  and  C_8
REMARK    3  A    between atoms: C_8  and  N_9
REMARK    4  A    between atoms: N_9  and  C_10
REMARK    5  A    between atoms: N_9  and  C_13
REMARK    6  A    between atoms: C_10  and  C_11
REMARK    7  A    between atoms: C_11  and  O_12
REMARK    8  A    between atoms: C_13  and  C_14
REMARK                            x       y       z     vdW  Elec       q    Type
REMARK                         _______ _______ _______ _____ _____    ______ ____
ROOT
ATOM      1  N   UNL     1       5.920   5.419  17.330  0.00  0.00    +0.000 NA
ENDROOT
BRANCH   1   2
ATOM      2  C   UNL     1       5.415   4.758  18.551  0.00  0.00    +0.000 C 
BRANCH   2   9
ATOM      3  C   UNL     1       2.889   6.316  19.224  0.00  0.00    +0.000 C 
ATOM      4  C   UNL     1       2.849   4.881  18.777  0.00  0.00    +0.000 A 
ATOM      5  C   UNL     1       1.605   4.231  18.709  0.00  0.00    +0.000 A 
ATOM      6  C   UNL     1       1.502   2.928  18.226  0.00  0.00    +0.000 A 
ATOM      7  C   UNL     1       2.639   2.259  17.784  0.00  0.00    +0.000 A 
ATOM      8  C   UNL     1       3.886   2.877  17.879  0.00  0.00    +0.000 A 
ATOM      9  C   UNL     1       4.016   4.173  18.406  0.00  0.00    +0.000 A 
ENDBRANCH   2   9
ENDBRANCH   1   2
BRANCH   1  10
ATOM     10  C   UNL     1       6.262   6.846  17.513  0.00  0.00    +0.000 C 
BRANCH  10  11
ATOM     11  C   UNL     1       7.737   7.261  17.655  0.00  0.00    +0.000 C 
BRANCH  11  12
ATOM     12  O   UNL     1       8.270   6.932  18.933  0.00  0.00    +0.000 OA
ATOM     13  H   UNL     1       8.115   5.982  19.071  0.00  0.00    +0.000 HD
ENDBRANCH  11  12
ENDBRANCH  10  11
ENDBRANCH   1  10
BRANCH   1  14
ATOM     14  C   UNL     1       7.040   4.667  16.739  0.00  0.00    +0.000 C 
BRANCH  14  15
ATOM     15  C   UNL     1       6.943   4.586  15.246  0.00  0.00    +0.000 A 
ATOM     16  N   UNL     1       7.550   5.366  14.372  0.00  0.00    +0.000 NA
ATOM     17  C   UNL     1       7.219   4.866  13.141  0.00  0.00    +0.000 A 
ATOM     18  C   UNL     1       6.402   3.767  13.265  0.00  0.00    +0.000 A 
ATOM     19  N   UNL     1       6.227   3.606  14.611  0.00  0.00    +0.000 N 
ATOM     20  H   UNL     1       5.714   2.870  15.078  0.00  0.00    +0.000 HD
ENDBRANCH  14  15
ENDBRANCH   1  14
TORSDOF 7
ENDMDL
MODEL 3
REMARK VINA RESULT:      -6.3      1.918      2.357
REMARK  Name = 
REMARK  8 active torsions:
REMARK  status: ('A' for Active; 'I' for Inactive)
REMARK    1  A    between atoms: C_1  and  C_2
REMARK    2  A    between atoms: C_7  and  C_8
REMARK    3  A    between atoms: C_8  and  N_9
REMARK    4  A    between atoms: N_9  and  C_10
REMARK    5  A    between atoms: N_9  and  C_13
REMARK    6  A    between atoms: C_10  and  C_11
REMARK    7  A    between atoms: C_11  and  O_12
REMARK    8  A    between atoms: C_13  and  C_14
REMARK                            x       y       z     vdW  Elec       q    Type
REMARK                         _______ _______ _______ _____ _____    ______ ____
ROOT
ATOM      1  N   UNL     1       5.153   4.868  18.246  0.00  0.00    +0.000 NA
ENDROOT
BRANCH   1   2
ATOM      2  C   UNL     1       4.357   3.636  18.064  0.00  0.00    +0.000 C 
BRANCH   2   9
ATOM      3  C   UNL     1       1.459   4.459  17.633  0.00  0.00    +0.000 C 
ATOM      4  C   UNL     1       1.941   3.876  18.933  0.00  0.00    +0.000 A 
ATOM      5  C   UNL     1       1.029   3.748  19.994  0.00  0.00    +0.000 A 
ATOM      6  C   UNL     1       1.402   3.141  21.191  0.00  0.00    +0.000 A 
ATOM      7  C   UNL     1       2.689   2.636  21.343  0.00  0.00    +0.000 A 
ATOM      8  C   UNL     1       3.617   2.789  20.313  0.00  0.00    +0.000 A 
ATOM      9  C   UNL     1       3.274   3.437  19.115  0.00  0.00    +0.000 A 
ENDBRANCH   2   9
ENDBRANCH   1   2
BRANCH   1  10
ATOM     10  C   UNL     1       6.558   4.628  18.638  0.00  0.00    +0.000 C 
BRANCH  10  11
ATOM     11  C   UNL     1       7.391   5.781  19.224  0.00  0.00    +0.000 C 
BRANCH  11  12
ATOM     12  O   UNL     1       8.281   5.340  20.245  0.00  0.00    +0.000 OA
ATOM     13  H   UNL     1       8.486   6.113  20.799  0.00  0.00    +0.000 HD
ENDBRANCH  11  12
ENDBRANCH  10  11
ENDBRANCH   1  10
BRANCH   1  14
ATOM     14  C   UNL     1       5.064   5.742  17.062  0.00  0.00    +0.000 C 
BRANCH  14  15
ATOM     15  C   UNL     1       5.754   5.152  15.870  0.00  0.00    +0.000 A 
ATOM     16  N   UNL     1       5.263   4.256  15.037  0.00  0.00    +0.000 NA
ATOM     17  C   UNL     1       6.222   4.084  14.075  0.00  0.00    +0.000 A 
ATOM     18  C   UNL     1       7.310   4.886  14.323  0.00  0.00    +0.000 A 
ATOM     19  N   UNL     1       7.003   5.554  15.475  0.00  0.00    +0.000 N 
ATOM     20  H   UNL     1       7.556   6.263  15.937  0.00  0.00    +0.000 HD
ENDBRANCH  14  15
ENDBRANCH   1  14
TORSDOF 7
ENDMDL
MODEL 4
REMARK VINA RESULT:      -6.3      1.820      2.660
REMARK  Name = 
REMARK  8 active torsions:
REMARK  status: ('A' for Active; 'I' for Inactive)
REMARK    1  A    between atoms: C_1  and  C_2
REMARK    2  A    between atoms: C_7  and  C_8
REMARK    3  A    between atoms: C_8  and  N_9
REMARK    4  A    between atoms: N_9  and  C_10
REMARK    5  A    between atoms: N_9  and  C_13
REMARK    6  A    between atoms: C_10  and  C_11
REMARK    7  A    between atoms: C_11  and  O_12
REMARK    8  A    between atoms: C_13  and  C_14
REMARK                            x       y       z     vdW  Elec       q    Type
REMARK                         _______ _______ _______ _____ _____    ______ ____
ROOT
ATOM      1  N   UNL     1       5.153   5.540  18.417  0.00  0.00    +0.000 NA
ENDROOT
BRANCH   1   2
ATOM      2  C   UNL     1       4.965   4.242  19.098  0.00  0.00    +0.000 C 
BRANCH   2   9
ATOM      3  C   UNL     1       3.503   1.775  18.078  0.00  0.00    +0.000 C 
ATOM      4  C   UNL     1       2.824   2.815  18.926  0.00  0.00    +0.000 A 
ATOM      5  C   UNL     1       1.459   2.659  19.219  0.00  0.00    +0.000 A 
ATOM      6  C   UNL     1       0.800   3.549  20.065  0.00  0.00    +0.000 A 
ATOM      7  C   UNL     1       1.499   4.601  20.647  0.00  0.00    +0.000 A 
ATOM      8  C   UNL     1       2.846   4.791  20.337  0.00  0.00    +0.000 A 
ATOM      9  C   UNL     1       3.516   3.932  19.451  0.00  0.00    +0.000 A 
ENDBRANCH   2   9
ENDBRANCH   1   2
BRANCH   1  10
ATOM     10  C   UNL     1       6.568   5.924  18.228  0.00  0.00    +0.000 C 
BRANCH  10  11
ATOM     11  C   UNL     1       7.683   4.962  18.674  0.00  0.00    +0.000 C 
BRANCH  11  12
ATOM     12  O   UNL     1       8.126   4.120  17.615  0.00  0.00    +0.000 OA
ATOM     13  H   UNL     1       9.004   4.440  17.345  0.00  0.00    +0.000 HD
ENDBRANCH  11  12
ENDBRANCH  10  11
ENDBRANCH   1  10
BRANCH   1  14
ATOM     14  C   UNL     1       4.405   5.591  17.148  0.00  0.00    +0.000 C 
BRANCH  14  15
ATOM     15  C   UNL     1       5.225   5.118  15.988  0.00  0.00    +0.000 A 
ATOM     16  N   UNL     1       5.821   5.870  15.083  0.00  0.00    +0.000 NA
ATOM     17  C   UNL     1       6.505   5.002  14.275  0.00  0.00    +0.000 A 
ATOM     18  C   UNL     1       6.326   3.704  14.692  0.00  0.00    +0.000 A 
ATOM     19  N   UNL     1       5.501   3.792  15.779  0.00  0.00    +0.000 N 
ATOM     20  H   UNL     1       5.185   3.035  16.370  0.00  0.00    +0.000 HD
ENDBRANCH  14  15
ENDBRANCH   1  14
TORSDOF 7
ENDMDL
MODEL 5
REMARK VINA RESULT:      -6.2      2.596      4.405
REMARK  Name = 
REMARK  8 active torsions:
REMARK  status: ('A' for Active; 'I' for Inactive)
REMARK    1  A    between atoms: C_1  and  C_2
REMARK    2  A    between atoms: C_7  and  C_8
REMARK    3  A    between atoms: C_8  and  N_9
REMARK    4  A    between atoms: N_9  and  C_10
REMARK    5  A    between atoms: N_9  and  C_13
REMARK    6  A    between atoms: C_10  and  C_11
REMARK    7  A    between atoms: C_11  and  O_12
REMARK    8  A    between atoms: C_13  and  C_14
REMARK                            x       y       z     vdW  Elec       q    Type
REMARK                         _______ _______ _______ _____ _____    ______ ____
ROOT
ATOM      1  N   UNL     1       3.652   3.603  17.869  0.00  0.00    +0.000 NA
ENDROOT
BRANCH   1   2
ATOM      2  C   UNL     1       2.328   4.256  17.788  0.00  0.00    +0.000 C 
BRANCH   2   9
ATOM      3  C   UNL     1       1.549   4.134  20.728  0.00  0.00    +0.000 C 
ATOM      4  C   UNL     1       1.775   5.437  20.013  0.00  0.00    +0.000 A 
ATOM      5  C   UNL     1       1.577   6.636  20.718  0.00  0.00    +0.000 A 
ATOM      6  C   UNL     1       1.848   7.869  20.129  0.00  0.00    +0.000 A 
ATOM      7  C   UNL     1       2.339   7.924  18.829  0.00  0.00    +0.000 A 
ATOM      8  C   UNL     1       2.506   6.745  18.102  0.00  0.00    +0.000 A 
ATOM      9  C   UNL     1       2.195   5.496  18.663  0.00  0.00    +0.000 A 
ENDBRANCH   2   9
ENDBRANCH   1   2
BRANCH   1  10
ATOM     10  C   UNL     1       3.593   2.142  18.088  0.00  0.00    +0.000 C 
BRANCH  10  11
ATOM     11  C   UNL     1       3.991   1.563  19.457  0.00  0.00    +0.000 C 
BRANCH  11  12
ATOM     12  O   UNL     1       5.263   2.031  19.893  0.00  0.00    +0.000 OA
ATOM     13  H   UNL     1       5.207   3.001  19.948  0.00  0.00    +0.000 HD
ENDBRANCH  11  12
ENDBRANCH  10  11
ENDBRANCH   1  10
BRANCH   1  14
ATOM     14  C   UNL     1       4.486   3.940  16.702  0.00  0.00    +0.000 C 
BRANCH  14  15
ATOM     15  C   UNL     1       5.733   4.674  17.089  0.00  0.00    +0.000 A 
ATOM     16  N   UNL     1       6.107   5.869  16.674  0.00  0.00    +0.000 NA
ATOM     17  C   UNL     1       7.264   6.147  17.351  0.00  0.00    +0.000 A 
ATOM     18  C   UNL     1       7.599   5.112  18.190  0.00  0.00    +0.000 A 
ATOM     19  N   UNL     1       6.620   4.175  18.007  0.00  0.00    +0.000 N 
ATOM     20  H   UNL     1       6.517   3.294  18.491  0.00  0.00    +0.000 HD
ENDBRANCH  14  15
ENDBRANCH   1  14
TORSDOF 7
ENDMDL
MODEL 6
REMARK VINA RESULT:      -6.2      1.975      2.774
REMARK  Name = 
REMARK  8 active torsions:
REMARK  status: ('A' for Active; 'I' for Inactive)
REMARK    1  A    between atoms: C_1  and  C_2
REMARK    2  A    between atoms: C_7  and  C_8
REMARK    3  A    between atoms: C_8  and  N_9
REMARK    4  A    between atoms: N_9  and  C_10
REMARK    5  A    between atoms: N_9  and  C_13
REMARK    6  A    between atoms: C_10  and  C_11
REMARK    7  A    between atoms: C_11  and  O_12
REMARK    8  A    between atoms: C_13  and  C_14
REMARK                            x       y       z     vdW  Elec       q    Type
REMARK                         _______ _______ _______ _____ _____    ______ ____
ROOT
ATOM      1  N   UNL     1       4.422   5.995  17.657  0.00  0.00    +0.000 NA
ENDROOT
BRANCH   1   2
ATOM      2  C   UNL     1       4.038   5.469  18.984  0.00  0.00    +0.000 C 
BRANCH   2   9
ATOM      3  C   UNL     1       1.576   5.515  20.771  0.00  0.00    +0.000 C 
ATOM      4  C   UNL     1       1.847   4.390  19.811  0.00  0.00    +0.000 A 
ATOM      5  C   UNL     1       0.953   3.307  19.771  0.00  0.00    +0.000 A 
ATOM      6  C   UNL     1       1.113   2.278  18.845  0.00  0.00    +0.000 A 
ATOM      7  C   UNL     1       2.159   2.323  17.930  0.00  0.00    +0.000 A 
ATOM      8  C   UNL     1       3.077   3.373  17.981  0.00  0.00    +0.000 A 
ATOM      9  C   UNL     1       2.959   4.396  18.936  0.00  0.00    +0.000 A 
ENDBRANCH   2   9
ENDBRANCH   1   2
BRANCH   1  10
ATOM     10  C   UNL     1       3.955   7.373  17.394  0.00  0.00    +0.000 C 
BRANCH  10  11
ATOM     11  C   UNL     1       2.629   7.856  18.009  0.00  0.00    +0.000 C 
BRANCH  11  12
ATOM     12  O   UNL     1       2.167   9.064  17.415  0.00  0.00    +0.000 OA
ATOM     13  H   UNL     1       2.053   8.890  16.465  0.00  0.00    +0.000 HD
ENDBRANCH  11  12
ENDBRANCH  10  11
ENDBRANCH   1  10
BRANCH   1  14
ATOM     14  C   UNL     1       5.872   5.864  17.430  0.00  0.00    +0.000 C 
BRANCH  14  15
ATOM     15  C   UNL     1       6.186   5.333  16.065  0.00  0.00    +0.000 A 
ATOM     16  N   UNL     1       7.289   5.540  15.371  0.00  0.00    +0.000 NA
ATOM     17  C   UNL     1       7.150   4.799  14.229  0.00  0.00    +0.000 A 
ATOM     18  C   UNL     1       5.948   4.131  14.225  0.00  0.00    +0.000 A 
ATOM     19  N   UNL     1       5.340   4.487  15.396  0.00  0.00    +0.000 N 
ATOM     20  H   UNL     1       4.454   4.155  15.752  0.00  0.00    +0.000 HD
ENDBRANCH  14  15
ENDBRANCH   1  14
TORSDOF 7
ENDMDL
MODEL 7
REMARK VINA RESULT:      -6.2      1.021      1.099
REMARK  Name = 
REMARK  8 active torsions:
REMARK  status: ('A' for Active; 'I' for Inactive)
REMARK    1  A    between atoms: C_1  and  C_2
REMARK    2  A    between atoms: C_7  and  C_8
REMARK    3  A    between atoms: C_8  and  N_9
REMARK    4  A    between atoms: N_9  and  C_10
REMARK    5  A    between atoms: N_9  and  C_13
REMARK    6  A    between atoms: C_10  and  C_11
REMARK    7  A    between atoms: C_11  and  O_12
REMARK    8  A    between atoms: C_13  and  C_14
REMARK                            x       y       z     vdW  Elec       q    Type
REMARK                         _______ _______ _______ _____ _____    ______ ____
ROOT
ATOM      1  N   UNL     1       5.796   5.148  17.786  0.00  0.00    +0.000 NA
ENDROOT
BRANCH   1   2
ATOM      2  C   UNL     1       5.260   4.396  18.940  0.00  0.00    +0.000 C 
BRANCH   2   9
ATOM      3  C   UNL     1       2.777   5.961  19.744  0.00  0.00    +0.000 C 
ATOM      4  C   UNL     1       2.697   4.576  19.164  0.00  0.00    +0.000 A 
ATOM      5  C   UNL     1       1.435   3.973  19.030  0.00  0.00    +0.000 A 
ATOM      6  C   UNL     1       1.297   2.725  18.426  0.00  0.00    +0.000 A 
ATOM      7  C   UNL     1       2.416   2.066  17.929  0.00  0.00    +0.000 A 
ATOM      8  C   UNL     1       3.681   2.634  18.088  0.00  0.00    +0.000 A 
ATOM      9  C   UNL     1       3.846   3.870  18.734  0.00  0.00    +0.000 A 
ENDBRANCH   2   9
ENDBRANCH   1   2
BRANCH   1  10
ATOM     10  C   UNL     1       6.108   6.563  18.078  0.00  0.00    +0.000 C 
BRANCH  10  11
ATOM     11  C   UNL     1       7.568   7.046  18.027  0.00  0.00    +0.000 C 
BRANCH  11  12
ATOM     12  O   UNL     1       7.848   7.793  16.847  0.00  0.00    +0.000 OA
ATOM     13  H   UNL     1       7.416   7.332  16.108  0.00  0.00    +0.000 HD
ENDBRANCH  11  12
ENDBRANCH  10  11
ENDBRANCH   1  10
BRANCH   1  14
ATOM     14  C   UNL     1       6.949   4.454  17.186  0.00  0.00    +0.000 C 
BRANCH  14  15
ATOM     15  C   UNL     1       6.858   4.391  15.692  0.00  0.00    +0.000 A 
ATOM     16  N   UNL     1       6.070   3.609  14.981  0.00  0.00    +0.000 NA
ATOM     17  C   UNL     1       6.285   3.959  13.676  0.00  0.00    +0.000 A 
ATOM     18  C   UNL     1       7.215   4.967  13.588  0.00  0.00    +0.000 A 
ATOM     19  N   UNL     1       7.579   5.227  14.879  0.00  0.00    +0.000 N 
ATOM     20  H   UNL     1       8.218   5.939  15.204  0.00  0.00    +0.000 HD
ENDBRANCH  14  15
ENDBRANCH   1  14
TORSDOF 7
ENDMDL
MODEL 8
REMARK VINA RESULT:      -6.2      1.815      2.453
REMARK  Name = 
REMARK  8 active torsions:
REMARK  status: ('A' for Active; 'I' for Inactive)
REMARK    1  A    between atoms: C_1  and  C_2
REMARK    2  A    between atoms: C_7  and  C_8
REMARK    3  A    between atoms: C_8  and  N_9
REMARK    4  A    between atoms: N_9  and  C_10
REMARK    5  A    between atoms: N_9  and  C_13
REMARK    6  A    between atoms: C_10  and  C_11
REMARK    7  A    between atoms: C_11  and  O_12
REMARK    8  A    between atoms: C_13  and  C_14
REMARK                            x       y       z     vdW  Elec       q    Type
REMARK                         _______ _______ _______ _____ _____    ______ ____
ROOT
ATOM      1  N   UNL     1       5.548   5.081  18.443  0.00  0.00    +0.000 NA
ENDROOT
BRANCH   1   2
ATOM      2  C   UNL     1       4.997   3.799  18.931  0.00  0.00    +0.000 C 
BRANCH   2   9
ATOM      3  C   UNL     1       2.839   1.991  17.775  0.00  0.00    +0.000 C 
ATOM      4  C   UNL     1       2.528   3.072  18.773  0.00  0.00    +0.000 A 
ATOM      5  C   UNL     1       1.190   3.278  19.150  0.00  0.00    +0.000 A 
ATOM      6  C   UNL     1       0.855   4.211  20.129  0.00  0.00    +0.000 A 
ATOM      7  C   UNL     1       1.854   4.942  20.762  0.00  0.00    +0.000 A 
ATOM      8  C   UNL     1       3.184   4.777  20.373  0.00  0.00    +0.000 A 
ATOM      9  C   UNL     1       3.537   3.874  19.357  0.00  0.00    +0.000 A 
ENDBRANCH   2   9
ENDBRANCH   1   2
BRANCH   1  10
ATOM     10  C   UNL     1       7.022   5.098  18.321  0.00  0.00    +0.000 C 
BRANCH  10  11
ATOM     11  C   UNL     1       7.852   5.984  19.265  0.00  0.00    +0.000 C 
BRANCH  11  12
ATOM     12  O   UNL     1       7.996   5.408  20.559  0.00  0.00    +0.000 OA
ATOM     13  H   UNL     1       7.101   5.216  20.888  0.00  0.00    +0.000 HD
ENDBRANCH  11  12
ENDBRANCH  10  11
ENDBRANCH   1  10
BRANCH   1  14
ATOM     14  C   UNL     1       4.897   5.501  17.190  0.00  0.00    +0.000 C 
BRANCH  14  15
ATOM     15  C   UNL     1       5.609   4.980  15.979  0.00  0.00    +0.000 A 
ATOM     16  N   UNL     1       5.465   3.791  15.429  0.00  0.00    +0.000 NA
ATOM     17  C   UNL     1       6.259   3.803  14.314  0.00  0.00    +0.000 A 
ATOM     18  C   UNL     1       6.895   5.015  14.181  0.00  0.00    +0.000 A 
ATOM     19  N   UNL     1       6.479   5.752  15.254  0.00  0.00    +0.000 N 
ATOM     20  H   UNL     1       6.712   6.713  15.464  0.00  0.00    +0.000 HD
ENDBRANCH  14  15
ENDBRANCH   1  14
TORSDOF 7
ENDMDL
MODEL 9
REMARK VINA RESULT:      -6.2      1.114      1.953
REMARK  Name = 
REMARK  8 active torsions:
REMARK  status: ('A' for Active; 'I' for Inactive)
REMARK    1  A    between atoms: C_1  and  C_2
REMARK    2  A    between atoms: C_7  and  C_8
REMARK    3  A    between atoms: C_8  and  N_9
REMARK    4  A    between atoms: N_9  and  C_10
REMARK    5  A    between atoms: N_9  and  C_13
REMARK    6  A    between atoms: C_10  and  C_11
REMARK    7  A    between atoms: C_11  and  O_12
REMARK    8  A    between atoms: C_13  and  C_14
REMARK                            x       y       z     vdW  Elec       q    Type
REMARK                         _______ _______ _______ _____ _____    ______ ____
ROOT
ATOM      1  N   UNL     1       5.848   5.384  17.508  0.00  0.00    +0.000 NA
ENDROOT
BRANCH   1   2
ATOM      2  C   UNL     1       5.342   4.780  18.758  0.00  0.00    +0.000 C 
BRANCH   2   9
ATOM      3  C   UNL     1       4.467   2.219  20.151  0.00  0.00    +0.000 C 
ATOM      4  C   UNL     1       3.547   2.994  19.248  0.00  0.00    +0.000 A 
ATOM      5  C   UNL     1       2.257   2.492  19.010  0.00  0.00    +0.000 A 
ATOM      6  C   UNL     1       1.338   3.209  18.247  0.00  0.00    +0.000 A 
ATOM      7  C   UNL     1       1.687   4.448  17.723  0.00  0.00    +0.000 A 
ATOM      8  C   UNL     1       2.976   4.944  17.919  0.00  0.00    +0.000 A 
ATOM      9  C   UNL     1       3.931   4.215  18.647  0.00  0.00    +0.000 A 
ENDBRANCH   2   9
ENDBRANCH   1   2
BRANCH   1  10
ATOM     10  C   UNL     1       6.189   6.818  17.624  0.00  0.00    +0.000 C 
BRANCH  10  11
ATOM     11  C   UNL     1       7.665   7.240  17.734  0.00  0.00    +0.000 C 
BRANCH  11  12
ATOM     12  O   UNL     1       8.241   6.870  18.982  0.00  0.00    +0.000 OA
ATOM     13  H   UNL     1       8.891   7.556  19.212  0.00  0.00    +0.000 HD
ENDBRANCH  11  12
ENDBRANCH  10  11
ENDBRANCH   1  10
BRANCH   1  14
ATOM     14  C   UNL     1       6.969   4.605  16.954  0.00  0.00    +0.000 C 
BRANCH  14  15
ATOM     15  C   UNL     1       6.878   4.459  15.466  0.00  0.00    +0.000 A 
ATOM     16  N   UNL     1       6.099   3.630  14.800  0.00  0.00    +0.000 NA
ATOM     17  C   UNL     1       6.309   3.910  13.477  0.00  0.00    +0.000 A 
ATOM     18  C   UNL     1       7.227   4.924  13.333  0.00  0.00    +0.000 A 
ATOM     19  N   UNL     1       7.588   5.258  14.608  0.00  0.00    +0.000 N 
ATOM     20  H   UNL     1       8.219   5.995  14.893  0.00  0.00    +0.000 HD
ENDBRANCH  14  15
ENDBRANCH   1  14
TORSDOF 7
ENDMDL
