MODEL 1
REMARK VINA RESULT:      -7.8      0.000      0.000
REMARK  Name = 
REMARK  5 active torsions:
REMARK  status: ('A' for Active; 'I' for Inactive)
REMARK    1  A    between atoms: C_5  and  C_6
REMARK    2  A    between atoms: N_12  and  C_13
REMARK    3  A    between atoms: C_13  and  N_14
REMARK    4  A    between atoms: N_17  and  C_18
REMARK    5  A    between atoms: C_18  and  C_19
REMARK                            x       y       z     vdW  Elec       q    Type
REMARK                         _______ _______ _______ _____ _____    ______ ____
ROOT
ATOM      1  C   UNL     1       5.302   4.622  18.694  0.00  0.00    +0.000 C 
ENDROOT
BRANCH   1   8
ATOM      2  O   UNL     1       4.075   2.642  20.296  0.00  0.00    +0.000 OA
ATOM      3  C   UNL     1       3.467   3.671  20.017  0.00  0.00    +0.000 A 
ATOM      4  C   UNL     1       2.117   3.839  20.598  0.00  0.00    +0.000 A 
ATOM      5  C   UNL     1       1.526   5.033  20.587  0.00  0.00    +0.000 A 
ATOM      6  C   UNL     1       2.256   6.146  19.941  0.00  0.00    +0.000 A 
ATOM      7  N   UNL     1       3.374   5.992  19.288  0.00  0.00    +0.000 NA
ATOM      8  N   UNL     1       3.935   4.713  19.222  0.00  0.00    +0.000 N 
BRANCH   6   9
ATOM      9  C   UNL     1       1.740   7.499  20.099  0.00  0.00    +0.000 A 
ATOM     10  C   UNL     1       1.186   8.062  21.237  0.00  0.00    +0.000 A 
ATOM     11  C   UNL     1       0.782   9.415  21.041  0.00  0.00    +0.000 A 
ATOM     12  C   UNL     1       1.054   9.852  19.765  0.00  0.00    +0.000 A 
ATOM     13  S   UNL     1       1.772   8.631  18.810  0.00  0.00    +0.000 S 
ENDBRANCH   6   9
ENDBRANCH   1   8
BRANCH   1  14
ATOM     14  N   UNL     1       5.665   5.733  17.788  0.00  0.00    +0.000 NA
ATOM     15  C   UNL     1       7.079   5.695  17.369  0.00  0.00    +0.000 C 
ATOM     16  C   UNL     1       7.478   4.574  16.370  0.00  0.00    +0.000 C 
ATOM     17  N   UNL     1       6.529   4.213  15.294  0.00  0.00    +0.000 NA
ATOM     18  C   UNL     1       5.129   4.405  15.686  0.00  0.00    +0.000 C 
ATOM     19  C   UNL     1       4.853   5.656  16.550  0.00  0.00    +0.000 C 
BRANCH  17  20
ATOM     20  C   UNL     1       6.841   4.780  13.973  0.00  0.00    +0.000 C 
BRANCH  20  21
ATOM     21  C   UNL     1       6.365   3.877  12.847  0.00  0.00    +0.000 A 
ATOM     22  C   UNL     1       5.011   3.861  12.476  0.00  0.00    +0.000 A 
ATOM     23  C   UNL     1       4.530   2.891  11.597  0.00  0.00    +0.000 A 
ATOM     24  C   UNL     1       5.401   1.945  11.060  0.00  0.00    +0.000 A 
ATOM     25  C   UNL     1       6.760   1.996  11.367  0.00  0.00    +0.000 A 
ATOM     26  C   UNL     1       7.245   2.965  12.248  0.00  0.00    +0.000 A 
ENDBRANCH  20  21
ENDBRANCH  17  20
ENDBRANCH   1  14
TORSDOF 5
ENDMDL
MODEL 2
REMARK VINA RESULT:      -7.1      2.221      3.536
REMARK  Name = 
REMARK  5 active torsions:
REMARK  status: ('A' for Active; 'I' for Inactive)
REMARK    1  A    between atoms: C_5  and  C_6
REMARK    2  A    between atoms: N_12  and  C_13
REMARK    3  A    between atoms: C_13  and  N_14
REMARK    4  A    between atoms: N_17  and  C_18
REMARK    5  A    between atoms: C_18  and  C_19
REMARK                            x       y       z     vdW  Elec       q    Type
REMARK                         _______ _______ _______ _____ _____    ______ ____
ROOT
ATOM      1  C   UNL     1       2.735   6.314  18.806  0.00  0.00    +0.000 C 
ENDROOT
BRANCH   1   8
ATOM      2  O   UNL     1       2.674   8.150  16.657  0.00  0.00    +0.000 OA
ATOM      3  C   UNL     1       2.410   8.526  17.795  0.00  0.00    +0.000 A 
ATOM      4  C   UNL     1       2.014   9.941  17.967  0.00  0.00    +0.000 A 
ATOM      5  C   UNL     1       1.436  10.344  19.098  0.00  0.00    +0.000 A 
ATOM      6  C   UNL     1       1.257   9.335  20.164  0.00  0.00    +0.000 A 
ATOM      7  N   UNL     1       1.735   8.124  20.099  0.00  0.00    +0.000 NA
ATOM      8  N   UNL     1       2.426   7.742  18.945  0.00  0.00    +0.000 N 
BRANCH   6   9
ATOM      9  C   UNL     1       0.442   9.684  21.321  0.00  0.00    +0.000 A 
ATOM     10  C   UNL     1       0.220   8.921  22.456  0.00  0.00    +0.000 A 
ATOM     11  C   UNL     1      -0.634   9.569  23.396  0.00  0.00    +0.000 A 
ATOM     12  C   UNL     1      -1.025  10.815  22.960  0.00  0.00    +0.000 A 
ATOM     13  S   UNL     1      -0.382  11.185  21.422  0.00  0.00    +0.000 S 
ENDBRANCH   6   9
ENDBRANCH   1   8
BRANCH   1  14
ATOM     14  N   UNL     1       4.154   5.985  19.062  0.00  0.00    +0.000 NA
ATOM     15  C   UNL     1       4.407   4.532  19.113  0.00  0.00    +0.000 C 
ATOM     16  C   UNL     1       4.334   3.766  17.763  0.00  0.00    +0.000 C 
ATOM     17  N   UNL     1       4.866   4.420  16.547  0.00  0.00    +0.000 NA
ATOM     18  C   UNL     1       4.739   5.880  16.588  0.00  0.00    +0.000 C 
ATOM     19  C   UNL     1       4.997   6.525  17.969  0.00  0.00    +0.000 C 
BRANCH  17  20
ATOM     20  C   UNL     1       6.203   3.967  16.132  0.00  0.00    +0.000 C 
BRANCH  20  21
ATOM     21  C   UNL     1       6.441   4.203  14.650  0.00  0.00    +0.000 A 
ATOM     22  C   UNL     1       5.684   3.510  13.691  0.00  0.00    +0.000 A 
ATOM     23  C   UNL     1       6.035   3.559  12.342  0.00  0.00    +0.000 A 
ATOM     24  C   UNL     1       7.129   4.320  11.936  0.00  0.00    +0.000 A 
ATOM     25  C   UNL     1       7.845   5.067  12.870  0.00  0.00    +0.000 A 
ATOM     26  C   UNL     1       7.496   5.020  14.221  0.00  0.00    +0.000 A 
ENDBRANCH  20  21
ENDBRANCH  17  20
ENDBRANCH   1  14
TORSDOF 5
ENDMDL
MODEL 3
REMARK VINA RESULT:      -7.1      2.239      8.389
REMARK  Name = 
REMARK  5 active torsions:
REMARK  status: ('A' for Active; 'I' for Inactive)
REMARK    1  A    between atoms: C_5  and  C_6
REMARK    2  A    between atoms: N_12  and  C_13
REMARK    3  A    between atoms: C_13  and  N_14
REMARK    4  A    between atoms: N_17  and  C_18
REMARK    5  A    between atoms: C_18  and  C_19
REMARK                            x       y       z     vdW  Elec       q    Type
REMARK                         _______ _______ _______ _____ _____    ______ ____
ROOT
ATOM      1  C   UNL     1       4.666   3.751  18.944  0.00  0.00    +0.000 C 
ENDROOT
BRANCH   1   8
ATOM      2  O   UNL     1       6.786   5.395  19.835  0.00  0.00    +0.000 OA
ATOM      3  C   UNL     1       6.502   5.352  18.642  0.00  0.00    +0.000 A 
ATOM      4  C   UNL     1       7.342   6.140  17.714  0.00  0.00    +0.000 A 
ATOM      5  C   UNL     1       7.286   5.916  16.402  0.00  0.00    +0.000 A 
ATOM      6  C   UNL     1       6.330   4.891  15.929  0.00  0.00    +0.000 A 
ATOM      7  N   UNL     1       5.470   4.294  16.707  0.00  0.00    +0.000 NA
ATOM      8  N   UNL     1       5.472   4.610  18.068  0.00  0.00    +0.000 N 
BRANCH   6   9
ATOM      9  C   UNL     1       6.395   4.471  14.536  0.00  0.00    +0.000 A 
ATOM     10  C   UNL     1       5.521   3.628  13.869  0.00  0.00    +0.000 A 
ATOM     11  C   UNL     1       5.884   3.427  12.504  0.00  0.00    +0.000 A 
ATOM     12  C   UNL     1       7.015   4.134  12.165  0.00  0.00    +0.000 A 
ATOM     13  S   UNL     1       7.640   5.015  13.488  0.00  0.00    +0.000 S 
ENDBRANCH   6   9
ENDBRANCH   1   8
BRANCH   1  14
ATOM     14  N   UNL     1       3.217   3.800  18.656  0.00  0.00    +0.000 NA
ATOM     15  C   UNL     1       2.385   3.467  19.828  0.00  0.00    +0.000 C 
ATOM     16  C   UNL     1       2.331   4.526  20.965  0.00  0.00    +0.000 C 
ATOM     17  N   UNL     1       2.295   5.958  20.598  0.00  0.00    +0.000 NA
ATOM     18  C   UNL     1       3.003   6.240  19.345  0.00  0.00    +0.000 C 
ATOM     19  C   UNL     1       2.836   5.171  18.241  0.00  0.00    +0.000 C 
BRANCH  17  20
ATOM     20  C   UNL     1       0.966   6.584  20.664  0.00  0.00    +0.000 C 
BRANCH  20  21
ATOM     21  C   UNL     1       1.061   8.097  20.769  0.00  0.00    +0.000 A 
ATOM     22  C   UNL     1       0.980   8.727  22.022  0.00  0.00    +0.000 A 
ATOM     23  C   UNL     1       0.854  10.113  22.110  0.00  0.00    +0.000 A 
ATOM     24  C   UNL     1       0.832  10.884  20.949  0.00  0.00    +0.000 A 
ATOM     25  C   UNL     1       0.982  10.275  19.704  0.00  0.00    +0.000 A 
ATOM     26  C   UNL     1       1.108   8.888  19.613  0.00  0.00    +0.000 A 
ENDBRANCH  20  21
ENDBRANCH  17  20
ENDBRANCH   1  14
TORSDOF 5
ENDMDL
MODEL 4
REMARK VINA RESULT:      -6.9      0.997      1.427
REMARK  Name = 
REMARK  5 active torsions:
REMARK  status: ('A' for Active; 'I' for Inactive)
REMARK    1  A    between atoms: C_5  and  C_6
REMARK    2  A    between atoms: N_12  and  C_13
REMARK    3  A    between atoms: C_13  and  N_14
REMARK    4  A    between atoms: N_17  and  C_18
REMARK    5  A    between atoms: C_18  and  C_19
REMARK                            x       y       z     vdW  Elec       q    Type
REMARK                         _______ _______ _______ _____ _____    ______ ____
ROOT
ATOM      1  C   UNL     1       5.038   4.511  19.627  0.00  0.00    +0.000 C 
ENDROOT
BRANCH   1   8
ATOM      2  O   UNL     1       3.267   2.604  20.731  0.00  0.00    +0.000 OA
ATOM      3  C   UNL     1       2.850   3.709  20.399  0.00  0.00    +0.000 A 
ATOM      4  C   UNL     1       1.423   4.002  20.654  0.00  0.00    +0.000 A 
ATOM      5  C   UNL     1       0.974   5.255  20.598  0.00  0.00    +0.000 A 
ATOM      6  C   UNL     1       1.946   6.308  20.233  0.00  0.00    +0.000 A 
ATOM      7  N   UNL     1       3.169   6.061  19.854  0.00  0.00    +0.000 NA
ATOM      8  N   UNL     1       3.600   4.731  19.822  0.00  0.00    +0.000 N 
BRANCH   6   9
ATOM      9  C   UNL     1       1.545   7.702  20.372  0.00  0.00    +0.000 A 
ATOM     10  C   UNL     1       1.146   8.353  21.527  0.00  0.00    +0.000 A 
ATOM     11  C   UNL     1       0.821   9.723  21.303  0.00  0.00    +0.000 A 
ATOM     12  C   UNL     1       0.995  10.083  19.986  0.00  0.00    +0.000 A 
ATOM     13  S   UNL     1       1.529   8.772  19.030  0.00  0.00    +0.000 S 
ENDBRANCH   6   9
ENDBRANCH   1   8
BRANCH   1  14
ATOM     14  N   UNL     1       5.752   5.686  19.084  0.00  0.00    +0.000 NA
ATOM     15  C   UNL     1       7.165   5.405  18.768  0.00  0.00    +0.000 C 
ATOM     16  C   UNL     1       7.435   4.503  17.532  0.00  0.00    +0.000 C 
ATOM     17  N   UNL     1       6.580   4.664  16.336  0.00  0.00    +0.000 NA
ATOM     18  C   UNL     1       5.217   5.091  16.669  0.00  0.00    +0.000 C 
ATOM     19  C   UNL     1       5.112   6.119  17.819  0.00  0.00    +0.000 C 
BRANCH  17  20
ATOM     20  C   UNL     1       7.179   5.443  15.243  0.00  0.00    +0.000 C 
BRANCH  20  21
ATOM     21  C   UNL     1       7.060   4.725  13.909  0.00  0.00    +0.000 A 
ATOM     22  C   UNL     1       7.811   5.156  12.802  0.00  0.00    +0.000 A 
ATOM     23  C   UNL     1       7.553   4.644  11.531  0.00  0.00    +0.000 A 
ATOM     24  C   UNL     1       6.563   3.680  11.357  0.00  0.00    +0.000 A 
ATOM     25  C   UNL     1       5.861   3.194  12.460  0.00  0.00    +0.000 A 
ATOM     26  C   UNL     1       6.115   3.705  13.734  0.00  0.00    +0.000 A 
ENDBRANCH  20  21
ENDBRANCH  17  20
ENDBRANCH   1  14
TORSDOF 5
ENDMDL
MODEL 5
REMARK VINA RESULT:      -6.9      3.588      9.785
REMARK  Name = 
REMARK  5 active torsions:
REMARK  status: ('A' for Active; 'I' for Inactive)
REMARK    1  A    between atoms: C_5  and  C_6
REMARK    2  A    between atoms: N_12  and  C_13
REMARK    3  A    between atoms: C_13  and  N_14
REMARK    4  A    between atoms: N_17  and  C_18
REMARK    5  A    between atoms: C_18  and  C_19
REMARK                            x       y       z     vdW  Elec       q    Type
REMARK                         _______ _______ _______ _____ _____    ______ ____
ROOT
ATOM      1  C   UNL     1       1.278   6.685  20.402  0.00  0.00    +0.000 C 
ENDROOT
BRANCH   1   8
ATOM      2  O   UNL     1       0.446   3.984  20.457  0.00  0.00    +0.000 OA
ATOM      3  C   UNL     1       1.634   4.258  20.314  0.00  0.00    +0.000 A 
ATOM      4  C   UNL     1       2.572   3.131  20.119  0.00  0.00    +0.000 A 
ATOM      5  C   UNL     1       3.805   3.354  19.669  0.00  0.00    +0.000 A 
ATOM      6  C   UNL     1       4.193   4.761  19.421  0.00  0.00    +0.000 A 
ATOM      7  N   UNL     1       3.441   5.781  19.730  0.00  0.00    +0.000 NA
ATOM      8  N   UNL     1       2.186   5.536  20.294  0.00  0.00    +0.000 N 
BRANCH   6   9
ATOM      9  C   UNL     1       5.448   5.024  18.730  0.00  0.00    +0.000 A 
ATOM     10  C   UNL     1       6.622   5.519  19.275  0.00  0.00    +0.000 A 
ATOM     11  C   UNL     1       7.662   5.656  18.309  0.00  0.00    +0.000 A 
ATOM     12  C   UNL     1       7.258   5.248  17.059  0.00  0.00    +0.000 A 
ATOM     13  S   UNL     1       5.633   4.722  17.051  0.00  0.00    +0.000 S 
ENDBRANCH   6   9
ENDBRANCH   1   8
BRANCH   1  14
ATOM     14  N   UNL     1       1.974   7.979  20.563  0.00  0.00    +0.000 NA
ATOM     15  C   UNL     1       1.669   8.935  19.482  0.00  0.00    +0.000 C 
ATOM     16  C   UNL     1       0.242   9.551  19.481  0.00  0.00    +0.000 C 
ATOM     17  N   UNL     1      -0.380   9.900  20.777  0.00  0.00    +0.000 NA
ATOM     18  C   UNL     1       0.058   9.026  21.870  0.00  0.00    +0.000 C 
ATOM     19  C   UNL     1       1.550   8.621  21.830  0.00  0.00    +0.000 C 
BRANCH  17  20
ATOM     20  C   UNL     1      -0.332  11.329  21.126  0.00  0.00    +0.000 C 
BRANCH  20  21
ATOM     21  C   UNL     1      -1.671  11.828  21.640  0.00  0.00    +0.000 A 
ATOM     22  C   UNL     1      -2.555  12.502  20.781  0.00  0.00    +0.000 A 
ATOM     23  C   UNL     1      -3.683  13.145  21.289  0.00  0.00    +0.000 A 
ATOM     24  C   UNL     1      -3.953  13.100  22.656  0.00  0.00    +0.000 A 
ATOM     25  C   UNL     1      -3.120  12.375  23.507  0.00  0.00    +0.000 A 
ATOM     26  C   UNL     1      -1.990  11.730  23.002  0.00  0.00    +0.000 A 
ENDBRANCH  20  21
ENDBRANCH  17  20
ENDBRANCH   1  14
TORSDOF 5
ENDMDL
MODEL 6
REMARK VINA RESULT:      -6.9      3.212      5.827
REMARK  Name = 
REMARK  5 active torsions:
REMARK  status: ('A' for Active; 'I' for Inactive)
REMARK    1  A    between atoms: C_5  and  C_6
REMARK    2  A    between atoms: N_12  and  C_13
REMARK    3  A    between atoms: C_13  and  N_14
REMARK    4  A    between atoms: N_17  and  C_18
REMARK    5  A    between atoms: C_18  and  C_19
REMARK                            x       y       z     vdW  Elec       q    Type
REMARK                         _______ _______ _______ _____ _____    ______ ____
ROOT
ATOM      1  C   UNL     1       5.632   4.321  18.616  0.00  0.00    +0.000 C 
ENDROOT
BRANCH   1   8
ATOM      2  O   UNL     1       3.651   2.351  18.180  0.00  0.00    +0.000 OA
ATOM      3  C   UNL     1       3.373   3.540  18.056  0.00  0.00    +0.000 A 
ATOM      4  C   UNL     1       1.970   3.879  17.732  0.00  0.00    +0.000 A 
ATOM      5  C   UNL     1       1.532   5.130  17.872  0.00  0.00    +0.000 A 
ATOM      6  C   UNL     1       2.511   6.146  18.317  0.00  0.00    +0.000 A 
ATOM      7  N   UNL     1       3.785   5.906  18.460  0.00  0.00    +0.000 NA
ATOM      8  N   UNL     1       4.250   4.611  18.214  0.00  0.00    +0.000 N 
BRANCH   6   9
ATOM      9  C   UNL     1       2.022   7.468  18.685  0.00  0.00    +0.000 A 
ATOM     10  C   UNL     1       1.806   8.549  17.847  0.00  0.00    +0.000 A 
ATOM     11  C   UNL     1       1.321   9.696  18.543  0.00  0.00    +0.000 A 
ATOM     12  C   UNL     1       1.166   9.453  19.888  0.00  0.00    +0.000 A 
ATOM     13  S   UNL     1       1.620   7.860  20.306  0.00  0.00    +0.000 S 
ENDBRANCH   6   9
ENDBRANCH   1   8
BRANCH   1  14
ATOM     14  N   UNL     1       6.627   4.579  17.553  0.00  0.00    +0.000 NA
ATOM     15  C   UNL     1       6.201   5.631  16.610  0.00  0.00    +0.000 C 
ATOM     16  C   UNL     1       6.201   7.089  17.149  0.00  0.00    +0.000 C 
ATOM     17  N   UNL     1       7.291   7.509  18.056  0.00  0.00    +0.000 NA
ATOM     18  C   UNL     1       7.801   6.407  18.877  0.00  0.00    +0.000 C 
ATOM     19  C   UNL     1       7.898   5.041  18.159  0.00  0.00    +0.000 C 
BRANCH  17  20
ATOM     20  C   UNL     1       8.358   8.299  17.422  0.00  0.00    +0.000 C 
BRANCH  20  21
ATOM     21  C   UNL     1       8.573   9.625  18.132  0.00  0.00    +0.000 A 
ATOM     22  C   UNL     1       8.290  10.835  17.476  0.00  0.00    +0.000 A 
ATOM     23  C   UNL     1       8.681  12.051  18.035  0.00  0.00    +0.000 A 
ATOM     24  C   UNL     1       9.335  12.072  19.265  0.00  0.00    +0.000 A 
ATOM     25  C   UNL     1       9.558  10.883  19.958  0.00  0.00    +0.000 A 
ATOM     26  C   UNL     1       9.169   9.664  19.400  0.00  0.00    +0.000 A 
ENDBRANCH  20  21
ENDBRANCH  17  20
ENDBRANCH   1  14
TORSDOF 5
ENDMDL
MODEL 7
REMARK VINA RESULT:      -6.8      1.962      3.216
REMARK  Name = 
REMARK  5 active torsions:
REMARK  status: ('A' for Active; 'I' for Inactive)
REMARK    1  A    between atoms: C_5  and  C_6
REMARK    2  A    between atoms: N_12  and  C_13
REMARK    3  A    between atoms: C_13  and  N_14
REMARK    4  A    between atoms: N_17  and  C_18
REMARK    5  A    between atoms: C_18  and  C_19
REMARK                            x       y       z     vdW  Elec       q    Type
REMARK                         _______ _______ _______ _____ _____    ______ ____
ROOT
ATOM      1  C   UNL     1       2.665   6.309  18.274  0.00  0.00    +0.000 C 
ENDROOT
BRANCH   1   8
ATOM      2  O   UNL     1       1.918   5.771  20.947  0.00  0.00    +0.000 OA
ATOM      3  C   UNL     1       1.632   6.849  20.434  0.00  0.00    +0.000 A 
ATOM      4  C   UNL     1       0.944   7.845  21.285  0.00  0.00    +0.000 A 
ATOM      5  C   UNL     1       0.868   9.118  20.900  0.00  0.00    +0.000 A 
ATOM      6  C   UNL     1       1.455   9.466  19.588  0.00  0.00    +0.000 A 
ATOM      7  N   UNL     1       1.927   8.584  18.752  0.00  0.00    +0.000 NA
ATOM      8  N   UNL     1       1.912   7.237  19.127  0.00  0.00    +0.000 N 
BRANCH   6   9
ATOM      9  C   UNL     1       1.580  10.874  19.234  0.00  0.00    +0.000 A 
ATOM     10  C   UNL     1       2.248  11.414  18.147  0.00  0.00    +0.000 A 
ATOM     11  C   UNL     1       2.171  12.837  18.105  0.00  0.00    +0.000 A 
ATOM     12  C   UNL     1       1.434  13.342  19.151  0.00  0.00    +0.000 A 
ATOM     13  S   UNL     1       0.858  12.108  20.183  0.00  0.00    +0.000 S 
ENDBRANCH   6   9
ENDBRANCH   1   8
BRANCH   1  14
ATOM     14  N   UNL     1       4.090   6.183  18.646  0.00  0.00    +0.000 NA
ATOM     15  C   UNL     1       4.546   4.782  18.711  0.00  0.00    +0.000 C 
ATOM     16  C   UNL     1       4.696   4.035  17.356  0.00  0.00    +0.000 C 
ATOM     17  N   UNL     1       5.225   4.779  16.192  0.00  0.00    +0.000 NA
ATOM     18  C   UNL     1       4.885   6.204  16.229  0.00  0.00    +0.000 C 
ATOM     19  C   UNL     1       4.934   6.857  17.629  0.00  0.00    +0.000 C 
BRANCH  17  20
ATOM     20  C   UNL     1       6.643   4.531  15.888  0.00  0.00    +0.000 C 
BRANCH  20  21
ATOM     21  C   UNL     1       6.878   4.373  14.395  0.00  0.00    +0.000 A 
ATOM     22  C   UNL     1       7.735   5.255  13.716  0.00  0.00    +0.000 A 
ATOM     23  C   UNL     1       7.793   5.252  12.322  0.00  0.00    +0.000 A 
ATOM     24  C   UNL     1       7.014   4.353  11.596  0.00  0.00    +0.000 A 
ATOM     25  C   UNL     1       6.213   3.427  12.263  0.00  0.00    +0.000 A 
ATOM     26  C   UNL     1       6.153   3.427  13.657  0.00  0.00    +0.000 A 
ENDBRANCH  20  21
ENDBRANCH  17  20
ENDBRANCH   1  14
TORSDOF 5
ENDMDL
MODEL 8
REMARK VINA RESULT:      -6.7      4.997     11.246
REMARK  Name = 
REMARK  5 active torsions:
REMARK  status: ('A' for Active; 'I' for Inactive)
REMARK    1  A    between atoms: C_5  and  C_6
REMARK    2  A    between atoms: N_12  and  C_13
REMARK    3  A    between atoms: C_13  and  N_14
REMARK    4  A    between atoms: N_17  and  C_18
REMARK    5  A    between atoms: C_18  and  C_19
REMARK                            x       y       z     vdW  Elec       q    Type
REMARK                         _______ _______ _______ _____ _____    ______ ____
ROOT
ATOM      1  C   UNL     1       1.199   9.208  20.576  0.00  0.00    +0.000 C 
ENDROOT
BRANCH   1   8
ATOM      2  O   UNL     1       2.482   9.740  18.114  0.00  0.00    +0.000 OA
ATOM      3  C   UNL     1       2.297   8.581  18.472  0.00  0.00    +0.000 A 
ATOM      4  C   UNL     1       2.819   7.509  17.598  0.00  0.00    +0.000 A 
ATOM      5  C   UNL     1       2.921   6.261  18.053  0.00  0.00    +0.000 A 
ATOM      6  C   UNL     1       2.454   6.002  19.433  0.00  0.00    +0.000 A 
ATOM      7  N   UNL     1       1.848   6.893  20.168  0.00  0.00    +0.000 NA
ATOM      8  N   UNL     1       1.660   8.174  19.641  0.00  0.00    +0.000 N 
BRANCH   6   9
ATOM      9  C   UNL     1       2.745   4.707  20.034  0.00  0.00    +0.000 A 
ATOM     10  C   UNL     1       2.100   4.111  21.105  0.00  0.00    +0.000 A 
ATOM     11  C   UNL     1       2.645   2.836  21.436  0.00  0.00    +0.000 A 
ATOM     12  C   UNL     1       3.681   2.488  20.599  0.00  0.00    +0.000 A 
ATOM     13  S   UNL     1       4.000   3.700  19.438  0.00  0.00    +0.000 S 
ENDBRANCH   6   9
ENDBRANCH   1   8
BRANCH   1  14
ATOM     14  N   UNL     1      -0.273   9.304  20.678  0.00  0.00    +0.000 NA
ATOM     15  C   UNL     1      -0.736   9.603  22.046  0.00  0.00    +0.000 C 
ATOM     16  C   UNL     1      -0.473  11.042  22.571  0.00  0.00    +0.000 C 
ATOM     17  N   UNL     1      -0.619  12.176  21.633  0.00  0.00    +0.000 NA
ATOM     18  C   UNL     1      -0.297  11.812  20.250  0.00  0.00    +0.000 C 
ATOM     19  C   UNL     1      -0.764  10.404  19.814  0.00  0.00    +0.000 C 
BRANCH  17  20
ATOM     20  C   UNL     1      -1.879  12.925  21.755  0.00  0.00    +0.000 C 
BRANCH  20  21
ATOM     21  C   UNL     1      -1.985  13.633  23.095  0.00  0.00    +0.000 A 
ATOM     22  C   UNL     1      -3.138  13.487  23.885  0.00  0.00    +0.000 A 
ATOM     23  C   UNL     1      -3.334  14.293  25.006  0.00  0.00    +0.000 A 
ATOM     24  C   UNL     1      -2.369  15.233  25.364  0.00  0.00    +0.000 A 
ATOM     25  C   UNL     1      -1.189  15.337  24.628  0.00  0.00    +0.000 A 
ATOM     26  C   UNL     1      -0.991  14.532  23.504  0.00  0.00    +0.000 A 
ENDBRANCH  20  21
ENDBRANCH  17  20
ENDBRANCH   1  14
TORSDOF 5
ENDMDL
MODEL 9
REMARK VINA RESULT:      -6.7      2.814      9.346
REMARK  Name = 
REMARK  5 active torsions:
REMARK  status: ('A' for Active; 'I' for Inactive)
REMARK    1  A    between atoms: C_5  and  C_6
REMARK    2  A    between atoms: N_12  and  C_13
REMARK    3  A    between atoms: C_13  and  N_14
REMARK    4  A    between atoms: N_17  and  C_18
REMARK    5  A    between atoms: C_18  and  C_19
REMARK                            x       y       z     vdW  Elec       q    Type
REMARK                         _______ _______ _______ _____ _____    ______ ____
ROOT
ATOM      1  C   UNL     1       1.641   6.063  19.214  0.00  0.00    +0.000 C 
ENDROOT
BRANCH   1   8
ATOM      2  O   UNL     1       0.665   3.412  19.325  0.00  0.00    +0.000 OA
ATOM      3  C   UNL     1       1.801   3.632  18.917  0.00  0.00    +0.000 A 
ATOM      4  C   UNL     1       2.589   2.472  18.444  0.00  0.00    +0.000 A 
ATOM      5  C   UNL     1       3.694   2.660  17.724  0.00  0.00    +0.000 A 
ATOM      6  C   UNL     1       4.105   4.057  17.464  0.00  0.00    +0.000 A 
ATOM      7  N   UNL     1       3.519   5.093  17.997  0.00  0.00    +0.000 NA
ATOM      8  N   UNL     1       2.418   4.877  18.831  0.00  0.00    +0.000 N 
BRANCH   6   9
ATOM      9  C   UNL     1       5.178   4.299  16.507  0.00  0.00    +0.000 A 
ATOM     10  C   UNL     1       5.104   4.236  15.126  0.00  0.00    +0.000 A 
ATOM     11  C   UNL     1       6.348   4.531  14.494  0.00  0.00    +0.000 A 
ATOM     12  C   UNL     1       7.331   4.826  15.410  0.00  0.00    +0.000 A 
ATOM     13  S   UNL     1       6.758   4.729  17.017  0.00  0.00    +0.000 S 
ENDBRANCH   6   9
ENDBRANCH   1   8
BRANCH   1  14
ATOM     14  N   UNL     1       2.475   7.213  19.624  0.00  0.00    +0.000 NA
ATOM     15  C   UNL     1       2.354   8.366  18.711  0.00  0.00    +0.000 C 
ATOM     16  C   UNL     1       1.013   9.151  18.756  0.00  0.00    +0.000 C 
ATOM     17  N   UNL     1       0.357   9.358  20.065  0.00  0.00    +0.000 NA
ATOM     18  C   UNL     1       0.618   8.267  21.008  0.00  0.00    +0.000 C 
ATOM     19  C   UNL     1       2.050   7.687  20.963  0.00  0.00    +0.000 C 
BRANCH  17  20
ATOM     20  C   UNL     1       0.552  10.691  20.655  0.00  0.00    +0.000 C 
BRANCH  20  21
ATOM     21  C   UNL     1      -0.740  11.248  21.227  0.00  0.00    +0.000 A 
ATOM     22  C   UNL     1      -1.624  11.972  20.409  0.00  0.00    +0.000 A 
ATOM     23  C   UNL     1      -2.699  12.663  20.967  0.00  0.00    +0.000 A 
ATOM     24  C   UNL     1      -2.916  12.618  22.343  0.00  0.00    +0.000 A 
ATOM     25  C   UNL     1      -2.086  11.846  23.155  0.00  0.00    +0.000 A 
ATOM     26  C   UNL     1      -1.008  11.153  22.599  0.00  0.00    +0.000 A 
ENDBRANCH  20  21
ENDBRANCH  17  20
ENDBRANCH   1  14
TORSDOF 5
ENDMDL
