MODEL 1
REMARK VINA RESULT:      -5.6      0.000      0.000
REMARK  Name = 
REMARK  15 active torsions:
REMARK  status: ('A' for Active; 'I' for Inactive)
REMARK    1  A    between atoms: C_1  and  C_2
REMARK    2  A    between atoms: C_2  and  C_3
REMARK    3  A    between atoms: C_3  and  C_4
REMARK    4  A    between atoms: C_4  and  C_5
REMARK    5  A    between atoms: C_5  and  C_6
REMARK    6  A    between atoms: C_6  and  N_7
REMARK    7  A    between atoms: N_7  and  C_8
REMARK    8  A    between atoms: C_8  and  C_9
REMARK    9  A    between atoms: C_9  and  C_10
REMARK   10  A    between atoms: C_10  and  C_11
REMARK   11  A    between atoms: C_11  and  C_12
REMARK   12  A    between atoms: C_12  and  C_13
REMARK   13  A    between atoms: C_14  and  C_16
REMARK   14  A    between atoms: N_28  and  C_29
REMARK   15  A    between atoms: C_29  and  C_30
REMARK                            x       y       z     vdW  Elec       q    Type
REMARK                         _______ _______ _______ _____ _____    ______ ____
ROOT
ATOM      1  C   UNL     1      -0.628  11.884  20.376  0.00  0.00    +0.000 C 
ATOM      2  C   UNL     1      -0.404  12.784  21.611  0.00  0.00    +0.000 C 
ATOM      3  C   UNL     1      -1.601  13.018  22.556  0.00  0.00    +0.000 C 
ATOM      4  C   UNL     1      -2.972  13.211  21.893  0.00  0.00    +0.000 C 
ATOM      5  C   UNL     1      -3.070  12.523  20.576  0.00  0.00    +0.000 A 
ATOM      6  C   UNL     1      -2.032  11.953  19.870  0.00  0.00    +0.000 A 
ATOM      7  C   UNL     1      -2.523  11.586  18.589  0.00  0.00    +0.000 A 
ATOM      8  C   UNL     1      -1.911  11.075  17.426  0.00  0.00    +0.000 A 
ATOM      9  C   UNL     1      -2.684  10.865  16.279  0.00  0.00    +0.000 A 
ATOM     10  C   UNL     1      -4.048  11.134  16.290  0.00  0.00    +0.000 A 
ATOM     11  C   UNL     1      -4.678  11.627  17.439  0.00  0.00    +0.000 A 
ATOM     12  C   UNL     1      -3.896  11.865  18.579  0.00  0.00    +0.000 A 
ATOM     13  N   UNL     1      -4.215  12.396  19.816  0.00  0.00    +0.000 N 
ENDROOT
BRANCH   1  15
ATOM     14  N   UNL     1       0.962  10.025  19.512  0.00  0.00    +0.000 N 
ATOM     15  C   UNL     1      -0.050  10.445  20.395  0.00  0.00    +0.000 C 
ATOM     16  O   UNL     1      -0.512   9.657  21.236  0.00  0.00    +0.000 OA
BRANCH  14  17
ATOM     17  C   UNL     1       1.377   8.610  19.577  0.00  0.00    +0.000 C 
BRANCH  17  18
ATOM     18  C   UNL     1       2.192   8.084  18.385  0.00  0.00    +0.000 C 
BRANCH  18  19
ATOM     19  C   UNL     1       3.197   6.974  18.701  0.00  0.00    +0.000 C 
BRANCH  19  20
ATOM     20  C   UNL     1       3.071   5.797  17.739  0.00  0.00    +0.000 C 
BRANCH  20  22
ATOM     21  C   UNL     1       2.054   3.555  18.198  0.00  0.00    +0.000 C 
ATOM     22  C   UNL     1       1.771   5.028  17.946  0.00  0.00    +0.000 C 
ENDBRANCH  20  22
ENDBRANCH  19  20
ENDBRANCH  18  19
ENDBRANCH  17  18
ENDBRANCH  14  17
BRANCH  14  23
ATOM     23  C   UNL     1       1.316  10.830  18.346  0.00  0.00    +0.000 C 
BRANCH  23  24
ATOM     24  C   UNL     1       2.346  11.941  18.482  0.00  0.00    +0.000 C 
BRANCH  24  25
ATOM     25  C   UNL     1       1.763  13.325  18.176  0.00  0.00    +0.000 C 
BRANCH  25  26
ATOM     26  C   UNL     1       2.119  14.267  19.326  0.00  0.00    +0.000 C 
BRANCH  26  27
ATOM     27  C   UNL     1       1.146  15.428  19.492  0.00  0.00    +0.000 C 
ATOM     28  C   UNL     1      -0.126  15.153  18.700  0.00  0.00    +0.000 C 
ENDBRANCH  26  27
ENDBRANCH  25  26
ENDBRANCH  24  25
ENDBRANCH  23  24
ENDBRANCH  14  23
ENDBRANCH   1  15
BRANCH  13  29
ATOM     29  C   UNL     1      -5.537  12.826  20.231  0.00  0.00    +0.000 C 
BRANCH  29  30
ATOM     30  C   UNL     1      -6.438  11.665  20.602  0.00  0.00    +0.000 C 
ATOM     31  F   UNL     1      -7.424  11.564  19.666  0.00  0.00    +0.000 F 
ENDBRANCH  29  30
ENDBRANCH  13  29
TORSDOF 13
ENDMDL
MODEL 2
REMARK VINA RESULT:      -5.6      1.918      3.731
REMARK  Name = 
REMARK  15 active torsions:
REMARK  status: ('A' for Active; 'I' for Inactive)
REMARK    1  A    between atoms: C_1  and  C_2
REMARK    2  A    between atoms: C_2  and  C_3
REMARK    3  A    between atoms: C_3  and  C_4
REMARK    4  A    between atoms: C_4  and  C_5
REMARK    5  A    between atoms: C_5  and  C_6
REMARK    6  A    between atoms: C_6  and  N_7
REMARK    7  A    between atoms: N_7  and  C_8
REMARK    8  A    between atoms: C_8  and  C_9
REMARK    9  A    between atoms: C_9  and  C_10
REMARK   10  A    between atoms: C_10  and  C_11
REMARK   11  A    between atoms: C_11  and  C_12
REMARK   12  A    between atoms: C_12  and  C_13
REMARK   13  A    between atoms: C_14  and  C_16
REMARK   14  A    between atoms: N_28  and  C_29
REMARK   15  A    between atoms: C_29  and  C_30
REMARK                            x       y       z     vdW  Elec       q    Type
REMARK                         _______ _______ _______ _____ _____    ______ ____
ROOT
ATOM      1  C   UNL     1      -0.037  10.803  20.523  0.00  0.00    +0.000 C 
ATOM      2  C   UNL     1       0.448  11.769  21.626  0.00  0.00    +0.000 C 
ATOM      3  C   UNL     1      -0.622  12.512  22.451  0.00  0.00    +0.000 C 
ATOM      4  C   UNL     1      -1.851  13.021  21.683  0.00  0.00    +0.000 C 
ATOM      5  C   UNL     1      -2.147  12.201  20.476  0.00  0.00    +0.000 A 
ATOM      6  C   UNL     1      -1.338  11.230  19.926  0.00  0.00    +0.000 A 
ATOM      7  C   UNL     1      -1.905  10.840  18.684  0.00  0.00    +0.000 A 
ATOM      8  C   UNL     1      -1.474   9.987  17.647  0.00  0.00    +0.000 A 
ATOM      9  C   UNL     1      -2.258   9.854  16.496  0.00  0.00    +0.000 A 
ATOM     10  C   UNL     1      -3.464  10.536  16.383  0.00  0.00    +0.000 A 
ATOM     11  C   UNL     1      -3.918  11.377  17.408  0.00  0.00    +0.000 A 
ATOM     12  C   UNL     1      -3.115  11.532  18.548  0.00  0.00    +0.000 A 
ATOM     13  N   UNL     1      -3.263  12.323  19.673  0.00  0.00    +0.000 N 
ENDROOT
BRANCH   1  15
ATOM     14  N   UNL     1       1.042   8.464  20.208  0.00  0.00    +0.000 N 
ATOM     15  C   UNL     1       0.049   9.276  20.785  0.00  0.00    +0.000 C 
ATOM     16  O   UNL     1      -0.801   8.781  21.544  0.00  0.00    +0.000 OA
BRANCH  14  17
ATOM     17  C   UNL     1       0.974   7.014  20.474  0.00  0.00    +0.000 C 
BRANCH  17  18
ATOM     18  C   UNL     1       2.277   6.347  20.945  0.00  0.00    +0.000 C 
BRANCH  18  19
ATOM     19  C   UNL     1       2.294   4.817  20.909  0.00  0.00    +0.000 C 
BRANCH  19  20
ATOM     20  C   UNL     1       0.959   4.241  20.445  0.00  0.00    +0.000 C 
BRANCH  20  22
ATOM     21  C   UNL     1       2.624   2.825  19.223  0.00  0.00    +0.000 C 
ATOM     22  C   UNL     1       1.145   3.091  19.463  0.00  0.00    +0.000 C 
ENDBRANCH  20  22
ENDBRANCH  19  20
ENDBRANCH  18  19
ENDBRANCH  17  18
ENDBRANCH  14  17
BRANCH  14  23
ATOM     23  C   UNL     1       1.865   8.960  19.108  0.00  0.00    +0.000 C 
BRANCH  23  24
ATOM     24  C   UNL     1       1.970   8.153  17.823  0.00  0.00    +0.000 C 
BRANCH  24  25
ATOM     25  C   UNL     1       3.402   7.685  17.538  0.00  0.00    +0.000 C 
BRANCH  25  26
ATOM     26  C   UNL     1       3.478   6.179  17.787  0.00  0.00    +0.000 C 
BRANCH  26  27
ATOM     27  C   UNL     1       4.469   5.456  16.882  0.00  0.00    +0.000 C 
ATOM     28  C   UNL     1       5.173   6.462  15.982  0.00  0.00    +0.000 C 
ENDBRANCH  26  27
ENDBRANCH  25  26
ENDBRANCH  24  25
ENDBRANCH  23  24
ENDBRANCH  14  23
ENDBRANCH   1  15
BRANCH  13  29
ATOM     29  C   UNL     1      -4.383  13.207  19.938  0.00  0.00    +0.000 C 
BRANCH  29  30
ATOM     30  C   UNL     1      -5.502  12.520  20.695  0.00  0.00    +0.000 C 
ATOM     31  F   UNL     1      -5.731  13.207  21.850  0.00  0.00    +0.000 F 
ENDBRANCH  29  30
ENDBRANCH  13  29
TORSDOF 13
ENDMDL
MODEL 3
REMARK VINA RESULT:      -5.5      5.483      8.742
REMARK  Name = 
REMARK  15 active torsions:
REMARK  status: ('A' for Active; 'I' for Inactive)
REMARK    1  A    between atoms: C_1  and  C_2
REMARK    2  A    between atoms: C_2  and  C_3
REMARK    3  A    between atoms: C_3  and  C_4
REMARK    4  A    between atoms: C_4  and  C_5
REMARK    5  A    between atoms: C_5  and  C_6
REMARK    6  A    between atoms: C_6  and  N_7
REMARK    7  A    between atoms: N_7  and  C_8
REMARK    8  A    between atoms: C_8  and  C_9
REMARK    9  A    between atoms: C_9  and  C_10
REMARK   10  A    between atoms: C_10  and  C_11
REMARK   11  A    between atoms: C_11  and  C_12
REMARK   12  A    between atoms: C_12  and  C_13
REMARK   13  A    between atoms: C_14  and  C_16
REMARK   14  A    between atoms: N_28  and  C_29
REMARK   15  A    between atoms: C_29  and  C_30
REMARK                            x       y       z     vdW  Elec       q    Type
REMARK                         _______ _______ _______ _____ _____    ______ ____
ROOT
ATOM      1  C   UNL     1       4.318   4.190  18.879  0.00  0.00    +0.000 C 
ATOM      2  C   UNL     1       4.412   3.156  20.023  0.00  0.00    +0.000 C 
ATOM      3  C   UNL     1       3.145   2.900  20.866  0.00  0.00    +0.000 C 
ATOM      4  C   UNL     1       2.291   4.129  21.213  0.00  0.00    +0.000 C 
ATOM      5  C   UNL     1       2.416   5.213  20.201  0.00  0.00    +0.000 A 
ATOM      6  C   UNL     1       3.332   5.273  19.173  0.00  0.00    +0.000 A 
ATOM      7  C   UNL     1       3.233   6.557  18.573  0.00  0.00    +0.000 A 
ATOM      8  C   UNL     1       3.974   7.219  17.572  0.00  0.00    +0.000 A 
ATOM      9  C   UNL     1       3.648   8.537  17.235  0.00  0.00    +0.000 A 
ATOM     10  C   UNL     1       2.588   9.182  17.862  0.00  0.00    +0.000 A 
ATOM     11  C   UNL     1       1.829   8.537  18.847  0.00  0.00    +0.000 A 
ATOM     12  C   UNL     1       2.176   7.226  19.205  0.00  0.00    +0.000 A 
ATOM     13  N   UNL     1       1.666   6.371  20.165  0.00  0.00    +0.000 N 
ENDROOT
BRANCH   1  15
ATOM     14  N   UNL     1       5.283   3.889  16.490  0.00  0.00    +0.000 N 
ATOM     15  C   UNL     1       4.248   3.673  17.418  0.00  0.00    +0.000 C 
ATOM     16  O   UNL     1       3.232   3.041  17.086  0.00  0.00    +0.000 OA
BRANCH  14  17
ATOM     17  C   UNL     1       5.067   3.413  15.109  0.00  0.00    +0.000 C 
BRANCH  17  18
ATOM     18  C   UNL     1       5.579   4.330  13.986  0.00  0.00    +0.000 C 
BRANCH  18  19
ATOM     19  C   UNL     1       6.232   3.624  12.796  0.00  0.00    +0.000 C 
BRANCH  19  20
ATOM     20  C   UNL     1       5.199   2.984  11.873  0.00  0.00    +0.000 C 
BRANCH  20  22
ATOM     21  C   UNL     1       7.228   1.724  11.120  0.00  0.00    +0.000 C 
ATOM     22  C   UNL     1       5.713   1.689  11.253  0.00  0.00    +0.000 C 
ENDBRANCH  20  22
ENDBRANCH  19  20
ENDBRANCH  18  19
ENDBRANCH  17  18
ENDBRANCH  14  17
BRANCH  14  23
ATOM     23  C   UNL     1       6.342   4.856  16.765  0.00  0.00    +0.000 C 
BRANCH  23  24
ATOM     24  C   UNL     1       7.682   4.374  17.299  0.00  0.00    +0.000 C 
BRANCH  24  25
ATOM     25  C   UNL     1       8.010   4.957  18.678  0.00  0.00    +0.000 C 
BRANCH  25  26
ATOM     26  C   UNL     1       7.348   6.330  18.793  0.00  0.00    +0.000 C 
BRANCH  26  27
ATOM     27  C   UNL     1       8.307   7.495  18.578  0.00  0.00    +0.000 C 
ATOM     28  C   UNL     1       7.728   8.457  17.551  0.00  0.00    +0.000 C 
ENDBRANCH  26  27
ENDBRANCH  25  26
ENDBRANCH  24  25
ENDBRANCH  23  24
ENDBRANCH  14  23
ENDBRANCH   1  15
BRANCH  13  29
ATOM     29  C   UNL     1       0.559   6.670  21.054  0.00  0.00    +0.000 C 
BRANCH  29  30
ATOM     30  C   UNL     1       0.493   8.137  21.429  0.00  0.00    +0.000 C 
ATOM     31  F   UNL     1       1.554   8.427  22.236  0.00  0.00    +0.000 F 
ENDBRANCH  29  30
ENDBRANCH  13  29
TORSDOF 13
ENDMDL
MODEL 4
REMARK VINA RESULT:      -5.5      0.955      1.059
REMARK  Name = 
REMARK  15 active torsions:
REMARK  status: ('A' for Active; 'I' for Inactive)
REMARK    1  A    between atoms: C_1  and  C_2
REMARK    2  A    between atoms: C_2  and  C_3
REMARK    3  A    between atoms: C_3  and  C_4
REMARK    4  A    between atoms: C_4  and  C_5
REMARK    5  A    between atoms: C_5  and  C_6
REMARK    6  A    between atoms: C_6  and  N_7
REMARK    7  A    between atoms: N_7  and  C_8
REMARK    8  A    between atoms: C_8  and  C_9
REMARK    9  A    between atoms: C_9  and  C_10
REMARK   10  A    between atoms: C_10  and  C_11
REMARK   11  A    between atoms: C_11  and  C_12
REMARK   12  A    between atoms: C_12  and  C_13
REMARK   13  A    between atoms: C_14  and  C_16
REMARK   14  A    between atoms: N_28  and  C_29
REMARK   15  A    between atoms: C_29  and  C_30
REMARK                            x       y       z     vdW  Elec       q    Type
REMARK                         _______ _______ _______ _____ _____    ______ ____
ROOT
ATOM      1  C   UNL     1      -1.003  12.078  20.156  0.00  0.00    +0.000 C 
ATOM      2  C   UNL     1      -0.918  12.952  21.426  0.00  0.00    +0.000 C 
ATOM      3  C   UNL     1      -2.163  13.024  22.333  0.00  0.00    +0.000 C 
ATOM      4  C   UNL     1      -3.525  13.094  21.627  0.00  0.00    +0.000 C 
ATOM      5  C   UNL     1      -3.505  12.447  20.286  0.00  0.00    +0.000 A 
ATOM      6  C   UNL     1      -2.389  12.016  19.601  0.00  0.00    +0.000 A 
ATOM      7  C   UNL     1      -2.795  11.645  18.292  0.00  0.00    +0.000 A 
ATOM      8  C   UNL     1      -2.094  11.244  17.136  0.00  0.00    +0.000 A 
ATOM      9  C   UNL     1      -2.801  10.994  15.955  0.00  0.00    +0.000 A 
ATOM     10  C   UNL     1      -4.186  11.116  15.925  0.00  0.00    +0.000 A 
ATOM     11  C   UNL     1      -4.903  11.499  17.065  0.00  0.00    +0.000 A 
ATOM     12  C   UNL     1      -4.189  11.777  18.240  0.00  0.00    +0.000 A 
ATOM     13  N   UNL     1      -4.604  12.227  19.481  0.00  0.00    +0.000 N 
ENDROOT
BRANCH   1  15
ATOM     14  N   UNL     1       0.977  10.520  19.536  0.00  0.00    +0.000 N 
ATOM     15  C   UNL     1      -0.275  10.708  20.149  0.00  0.00    +0.000 C 
ATOM     16  O   UNL     1      -0.840   9.761  20.721  0.00  0.00    +0.000 OA
BRANCH  14  17
ATOM     17  C   UNL     1       1.534   9.153  19.533  0.00  0.00    +0.000 C 
BRANCH  17  18
ATOM     18  C   UNL     1       1.999   8.611  18.171  0.00  0.00    +0.000 C 
BRANCH  18  19
ATOM     19  C   UNL     1       2.731   7.269  18.203  0.00  0.00    +0.000 C 
BRANCH  19  20
ATOM     20  C   UNL     1       2.552   6.550  19.537  0.00  0.00    +0.000 C 
BRANCH  20  22
ATOM     21  C   UNL     1       1.998   4.758  17.878  0.00  0.00    +0.000 C 
ATOM     22  C   UNL     1       2.036   5.127  19.353  0.00  0.00    +0.000 C 
ENDBRANCH  20  22
ENDBRANCH  19  20
ENDBRANCH  18  19
ENDBRANCH  17  18
ENDBRANCH  14  17
BRANCH  14  23
ATOM     23  C   UNL     1       1.522  11.526  18.627  0.00  0.00    +0.000 C 
BRANCH  23  24
ATOM     24  C   UNL     1       2.289  12.713  19.190  0.00  0.00    +0.000 C 
BRANCH  24  25
ATOM     25  C   UNL     1       2.591  13.775  18.127  0.00  0.00    +0.000 C 
BRANCH  25  26
ATOM     26  C   UNL     1       1.931  15.086  18.551  0.00  0.00    +0.000 C 
BRANCH  26  27
ATOM     27  C   UNL     1       2.557  16.323  17.917  0.00  0.00    +0.000 C 
ATOM     28  C   UNL     1       1.596  17.499  18.022  0.00  0.00    +0.000 C 
ENDBRANCH  26  27
ENDBRANCH  25  26
ENDBRANCH  24  25
ENDBRANCH  23  24
ENDBRANCH  14  23
ENDBRANCH   1  15
BRANCH  13  29
ATOM     29  C   UNL     1      -5.978  12.499  19.860  0.00  0.00    +0.000 C 
BRANCH  29  30
ATOM     30  C   UNL     1      -6.724  11.250  20.285  0.00  0.00    +0.000 C 
ATOM     31  F   UNL     1      -7.438  11.534  21.412  0.00  0.00    +0.000 F 
ENDBRANCH  29  30
ENDBRANCH  13  29
TORSDOF 13
ENDMDL
MODEL 5
REMARK VINA RESULT:      -5.5      1.429      5.924
REMARK  Name = 
REMARK  15 active torsions:
REMARK  status: ('A' for Active; 'I' for Inactive)
REMARK    1  A    between atoms: C_1  and  C_2
REMARK    2  A    between atoms: C_2  and  C_3
REMARK    3  A    between atoms: C_3  and  C_4
REMARK    4  A    between atoms: C_4  and  C_5
REMARK    5  A    between atoms: C_5  and  C_6
REMARK    6  A    between atoms: C_6  and  N_7
REMARK    7  A    between atoms: N_7  and  C_8
REMARK    8  A    between atoms: C_8  and  C_9
REMARK    9  A    between atoms: C_9  and  C_10
REMARK   10  A    between atoms: C_10  and  C_11
REMARK   11  A    between atoms: C_11  and  C_12
REMARK   12  A    between atoms: C_12  and  C_13
REMARK   13  A    between atoms: C_14  and  C_16
REMARK   14  A    between atoms: N_28  and  C_29
REMARK   15  A    between atoms: C_29  and  C_30
REMARK                            x       y       z     vdW  Elec       q    Type
REMARK                         _______ _______ _______ _____ _____    ______ ____
ROOT
ATOM      1  C   UNL     1      -1.617  11.287  18.466  0.00  0.00    +0.000 C 
ATOM      2  C   UNL     1      -2.105  10.587  17.179  0.00  0.00    +0.000 C 
ATOM      3  C   UNL     1      -3.392  11.118  16.516  0.00  0.00    +0.000 C 
ATOM      4  C   UNL     1      -4.530  11.535  17.460  0.00  0.00    +0.000 C 
ATOM      5  C   UNL     1      -4.032  11.979  18.790  0.00  0.00    +0.000 A 
ATOM      6  C   UNL     1      -2.745  11.849  19.268  0.00  0.00    +0.000 A 
ATOM      7  C   UNL     1      -2.749  12.219  20.640  0.00  0.00    +0.000 A 
ATOM      8  C   UNL     1      -1.772  12.183  21.656  0.00  0.00    +0.000 A 
ATOM      9  C   UNL     1      -2.116  12.577  22.954  0.00  0.00    +0.000 A 
ATOM     10  C   UNL     1      -3.401  13.024  23.236  0.00  0.00    +0.000 A 
ATOM     11  C   UNL     1      -4.382  13.082  22.238  0.00  0.00    +0.000 A 
ATOM     12  C   UNL     1      -4.044  12.658  20.944  0.00  0.00    +0.000 A 
ATOM     13  N   UNL     1      -4.797  12.543  19.790  0.00  0.00    +0.000 N 
ENDROOT
BRANCH   1  15
ATOM     14  N   UNL     1       0.930  11.778  18.499  0.00  0.00    +0.000 N 
ATOM     15  C   UNL     1      -0.394  12.237  18.374  0.00  0.00    +0.000 C 
ATOM     16  O   UNL     1      -0.622  13.441  18.175  0.00  0.00    +0.000 OA
BRANCH  14  17
ATOM     17  C   UNL     1       2.006  12.789  18.468  0.00  0.00    +0.000 C 
BRANCH  17  18
ATOM     18  C   UNL     1       2.400  13.404  19.821  0.00  0.00    +0.000 C 
BRANCH  18  19
ATOM     19  C   UNL     1       2.655  14.912  19.818  0.00  0.00    +0.000 C 
BRANCH  19  20
ATOM     20  C   UNL     1       1.374  15.710  20.038  0.00  0.00    +0.000 C 
BRANCH  20  22
ATOM     21  C   UNL     1      -0.935  15.615  21.004  0.00  0.00    +0.000 C 
ATOM     22  C   UNL     1       0.485  15.079  21.104  0.00  0.00    +0.000 C 
ENDBRANCH  20  22
ENDBRANCH  19  20
ENDBRANCH  18  19
ENDBRANCH  17  18
ENDBRANCH  14  17
BRANCH  14  23
ATOM     23  C   UNL     1       1.211  10.438  19.010  0.00  0.00    +0.000 C 
BRANCH  23  24
ATOM     24  C   UNL     1       1.606   9.332  18.043  0.00  0.00    +0.000 C 
BRANCH  24  25
ATOM     25  C   UNL     1       2.175   8.101  18.759  0.00  0.00    +0.000 C 
BRANCH  25  26
ATOM     26  C   UNL     1       3.105   7.367  17.794  0.00  0.00    +0.000 C 
BRANCH  26  27
ATOM     27  C   UNL     1       3.401   5.928  18.202  0.00  0.00    +0.000 C 
ATOM     28  C   UNL     1       2.161   5.069  17.996  0.00  0.00    +0.000 C 
ENDBRANCH  26  27
ENDBRANCH  25  26
ENDBRANCH  24  25
ENDBRANCH  23  24
ENDBRANCH  14  23
ENDBRANCH   1  15
BRANCH  13  29
ATOM     29  C   UNL     1      -6.200  12.890  19.664  0.00  0.00    +0.000 C 
BRANCH  29  30
ATOM     30  C   UNL     1      -7.120  11.734  20.005  0.00  0.00    +0.000 C 
ATOM     31  F   UNL     1      -7.347  11.743  21.350  0.00  0.00    +0.000 F 
ENDBRANCH  29  30
ENDBRANCH  13  29
TORSDOF 13
ENDMDL
MODEL 6
REMARK VINA RESULT:      -5.4      1.811      3.419
REMARK  Name = 
REMARK  15 active torsions:
REMARK  status: ('A' for Active; 'I' for Inactive)
REMARK    1  A    between atoms: C_1  and  C_2
REMARK    2  A    between atoms: C_2  and  C_3
REMARK    3  A    between atoms: C_3  and  C_4
REMARK    4  A    between atoms: C_4  and  C_5
REMARK    5  A    between atoms: C_5  and  C_6
REMARK    6  A    between atoms: C_6  and  N_7
REMARK    7  A    between atoms: N_7  and  C_8
REMARK    8  A    between atoms: C_8  and  C_9
REMARK    9  A    between atoms: C_9  and  C_10
REMARK   10  A    between atoms: C_10  and  C_11
REMARK   11  A    between atoms: C_11  and  C_12
REMARK   12  A    between atoms: C_12  and  C_13
REMARK   13  A    between atoms: C_14  and  C_16
REMARK   14  A    between atoms: N_28  and  C_29
REMARK   15  A    between atoms: C_29  and  C_30
REMARK                            x       y       z     vdW  Elec       q    Type
REMARK                         _______ _______ _______ _____ _____    ______ ____
ROOT
ATOM      1  C   UNL     1      -0.044  10.935  20.514  0.00  0.00    +0.000 C 
ATOM      2  C   UNL     1       0.478  11.966  21.539  0.00  0.00    +0.000 C 
ATOM      3  C   UNL     1      -0.563  12.767  22.346  0.00  0.00    +0.000 C 
ATOM      4  C   UNL     1      -1.813  13.234  21.585  0.00  0.00    +0.000 C 
ATOM      5  C   UNL     1      -2.149  12.341  20.442  0.00  0.00    +0.000 A 
ATOM      6  C   UNL     1      -1.361  11.332  19.931  0.00  0.00    +0.000 A 
ATOM      7  C   UNL     1      -1.967  10.868  18.733  0.00  0.00    +0.000 A 
ATOM      8  C   UNL     1      -1.572   9.948  17.740  0.00  0.00    +0.000 A 
ATOM      9  C   UNL     1      -2.392   9.747  16.624  0.00  0.00    +0.000 A 
ATOM     10  C   UNL     1      -3.598  10.429  16.505  0.00  0.00    +0.000 A 
ATOM     11  C   UNL     1      -4.016  11.336  17.487  0.00  0.00    +0.000 A 
ATOM     12  C   UNL     1      -3.179  11.558  18.590  0.00  0.00    +0.000 A 
ATOM     13  N   UNL     1      -3.288  12.420  19.667  0.00  0.00    +0.000 N 
ENDROOT
BRANCH   1  15
ATOM     14  N   UNL     1       1.104   8.610  20.443  0.00  0.00    +0.000 N 
ATOM     15  C   UNL     1       0.042   9.428  20.870  0.00  0.00    +0.000 C 
ATOM     16  O   UNL     1      -0.871   8.954  21.566  0.00  0.00    +0.000 OA
BRANCH  14  17
ATOM     17  C   UNL     1       1.035   7.175  20.783  0.00  0.00    +0.000 C 
BRANCH  17  18
ATOM     18  C   UNL     1       2.312   6.355  20.534  0.00  0.00    +0.000 C 
BRANCH  18  19
ATOM     19  C   UNL     1       2.100   4.934  20.008  0.00  0.00    +0.000 C 
BRANCH  19  20
ATOM     20  C   UNL     1       3.418   4.255  19.647  0.00  0.00    +0.000 C 
BRANCH  20  22
ATOM     21  C   UNL     1       2.044   3.906  17.583  0.00  0.00    +0.000 C 
ATOM     22  C   UNL     1       3.415   3.730  18.216  0.00  0.00    +0.000 C 
ENDBRANCH  20  22
ENDBRANCH  19  20
ENDBRANCH  18  19
ENDBRANCH  17  18
ENDBRANCH  14  17
BRANCH  14  23
ATOM     23  C   UNL     1       2.025   9.064  19.404  0.00  0.00    +0.000 C 
BRANCH  23  24
ATOM     24  C   UNL     1       1.654   8.888  17.939  0.00  0.00    +0.000 C 
BRANCH  24  25
ATOM     25  C   UNL     1       2.258   7.619  17.328  0.00  0.00    +0.000 C 
BRANCH  25  26
ATOM     26  C   UNL     1       3.748   7.580  17.666  0.00  0.00    +0.000 C 
BRANCH  26  27
ATOM     27  C   UNL     1       4.576   6.745  16.697  0.00  0.00    +0.000 C 
ATOM     28  C   UNL     1       5.939   6.448  17.307  0.00  0.00    +0.000 C 
ENDBRANCH  26  27
ENDBRANCH  25  26
ENDBRANCH  24  25
ENDBRANCH  23  24
ENDBRANCH  14  23
ENDBRANCH   1  15
BRANCH  13  29
ATOM     29  C   UNL     1      -4.395  13.326  19.909  0.00  0.00    +0.000 C 
BRANCH  29  30
ATOM     30  C   UNL     1      -5.415  12.756  20.874  0.00  0.00    +0.000 C 
ATOM     31  F   UNL     1      -5.961  11.637  20.318  0.00  0.00    +0.000 F 
ENDBRANCH  29  30
ENDBRANCH  13  29
TORSDOF 13
ENDMDL
MODEL 7
REMARK VINA RESULT:      -5.3      1.342      1.827
REMARK  Name = 
REMARK  15 active torsions:
REMARK  status: ('A' for Active; 'I' for Inactive)
REMARK    1  A    between atoms: C_1  and  C_2
REMARK    2  A    between atoms: C_2  and  C_3
REMARK    3  A    between atoms: C_3  and  C_4
REMARK    4  A    between atoms: C_4  and  C_5
REMARK    5  A    between atoms: C_5  and  C_6
REMARK    6  A    between atoms: C_6  and  N_7
REMARK    7  A    between atoms: N_7  and  C_8
REMARK    8  A    between atoms: C_8  and  C_9
REMARK    9  A    between atoms: C_9  and  C_10
REMARK   10  A    between atoms: C_10  and  C_11
REMARK   11  A    between atoms: C_11  and  C_12
REMARK   12  A    between atoms: C_12  and  C_13
REMARK   13  A    between atoms: C_14  and  C_16
REMARK   14  A    between atoms: N_28  and  C_29
REMARK   15  A    between atoms: C_29  and  C_30
REMARK                            x       y       z     vdW  Elec       q    Type
REMARK                         _______ _______ _______ _____ _____    ______ ____
ROOT
ATOM      1  C   UNL     1      -1.126  12.002  20.159  0.00  0.00    +0.000 C 
ATOM      2  C   UNL     1      -1.106  12.860  21.443  0.00  0.00    +0.000 C 
ATOM      3  C   UNL     1      -2.390  12.908  22.296  0.00  0.00    +0.000 C 
ATOM      4  C   UNL     1      -3.721  12.973  21.532  0.00  0.00    +0.000 C 
ATOM      5  C   UNL     1      -3.635  12.344  20.185  0.00  0.00    +0.000 A 
ATOM      6  C   UNL     1      -2.486  11.933  19.544  0.00  0.00    +0.000 A 
ATOM      7  C   UNL     1      -2.831  11.575  18.214  0.00  0.00    +0.000 A 
ATOM      8  C   UNL     1      -2.076  11.196  17.085  0.00  0.00    +0.000 A 
ATOM      9  C   UNL     1      -2.729  10.955  15.871  0.00  0.00    +0.000 A 
ATOM     10  C   UNL     1      -4.112  11.064  15.782  0.00  0.00    +0.000 A 
ATOM     11  C   UNL     1      -4.882  11.424  16.895  0.00  0.00    +0.000 A 
ATOM     12  C   UNL     1      -4.223  11.694  18.103  0.00  0.00    +0.000 A 
ATOM     13  N   UNL     1      -4.696  12.123  19.330  0.00  0.00    +0.000 N 
ENDROOT
BRANCH   1  15
ATOM     14  N   UNL     1       0.847  10.445  19.514  0.00  0.00    +0.000 N 
ATOM     15  C   UNL     1      -0.385  10.640  20.167  0.00  0.00    +0.000 C 
ATOM     16  O   UNL     1      -0.917   9.705  20.788  0.00  0.00    +0.000 OA
BRANCH  14  17
ATOM     17  C   UNL     1       1.417   9.084  19.531  0.00  0.00    +0.000 C 
BRANCH  17  18
ATOM     18  C   UNL     1       2.085   8.610  18.230  0.00  0.00    +0.000 C 
BRANCH  18  19
ATOM     19  C   UNL     1       2.633   7.182  18.243  0.00  0.00    +0.000 C 
BRANCH  19  20
ATOM     20  C   UNL     1       3.938   7.062  17.462  0.00  0.00    +0.000 C 
BRANCH  20  22
ATOM     21  C   UNL     1       6.292   6.241  17.699  0.00  0.00    +0.000 C 
ATOM     22  C   UNL     1       4.831   5.954  18.009  0.00  0.00    +0.000 C 
ENDBRANCH  20  22
ENDBRANCH  19  20
ENDBRANCH  18  19
ENDBRANCH  17  18
ENDBRANCH  14  17
BRANCH  14  23
ATOM     23  C   UNL     1       1.346  11.427  18.555  0.00  0.00    +0.000 C 
BRANCH  23  24
ATOM     24  C   UNL     1       2.133  12.631  19.052  0.00  0.00    +0.000 C 
BRANCH  24  25
ATOM     25  C   UNL     1       2.727  13.458  17.906  0.00  0.00    +0.000 C 
BRANCH  25  26
ATOM     26  C   UNL     1       3.331  14.734  18.492  0.00  0.00    +0.000 C 
BRANCH  26  27
ATOM     27  C   UNL     1       4.529  15.262  17.711  0.00  0.00    +0.000 C 
ATOM     28  C   UNL     1       5.783  15.176  18.571  0.00  0.00    +0.000 C 
ENDBRANCH  26  27
ENDBRANCH  25  26
ENDBRANCH  24  25
ENDBRANCH  23  24
ENDBRANCH  14  23
ENDBRANCH   1  15
BRANCH  13  29
ATOM     29  C   UNL     1      -6.088  12.377  19.653  0.00  0.00    +0.000 C 
BRANCH  29  30
ATOM     30  C   UNL     1      -6.767  11.180  20.287  0.00  0.00    +0.000 C 
ATOM     31  F   UNL     1      -6.608  10.105  19.464  0.00  0.00    +0.000 F 
ENDBRANCH  29  30
ENDBRANCH  13  29
TORSDOF 13
ENDMDL
MODEL 8
REMARK VINA RESULT:      -5.2      2.197      5.668
REMARK  Name = 
REMARK  15 active torsions:
REMARK  status: ('A' for Active; 'I' for Inactive)
REMARK    1  A    between atoms: C_1  and  C_2
REMARK    2  A    between atoms: C_2  and  C_3
REMARK    3  A    between atoms: C_3  and  C_4
REMARK    4  A    between atoms: C_4  and  C_5
REMARK    5  A    between atoms: C_5  and  C_6
REMARK    6  A    between atoms: C_6  and  N_7
REMARK    7  A    between atoms: N_7  and  C_8
REMARK    8  A    between atoms: C_8  and  C_9
REMARK    9  A    between atoms: C_9  and  C_10
REMARK   10  A    between atoms: C_10  and  C_11
REMARK   11  A    between atoms: C_11  and  C_12
REMARK   12  A    between atoms: C_12  and  C_13
REMARK   13  A    between atoms: C_14  and  C_16
REMARK   14  A    between atoms: N_28  and  C_29
REMARK   15  A    between atoms: C_29  and  C_30
REMARK                            x       y       z     vdW  Elec       q    Type
REMARK                         _______ _______ _______ _____ _____    ______ ____
ROOT
ATOM      1  C   UNL     1      -1.456  11.251  18.826  0.00  0.00    +0.000 C 
ATOM      2  C   UNL     1      -1.245  10.113  17.803  0.00  0.00    +0.000 C 
ATOM      3  C   UNL     1      -2.226  10.023  16.616  0.00  0.00    +0.000 C 
ATOM      4  C   UNL     1      -3.703  10.311  16.922  0.00  0.00    +0.000 C 
ATOM      5  C   UNL     1      -3.876  11.231  18.079  0.00  0.00    +0.000 A 
ATOM      6  C   UNL     1      -2.893  11.637  18.957  0.00  0.00    +0.000 A 
ATOM      7  C   UNL     1      -3.519  12.346  20.017  0.00  0.00    +0.000 A 
ATOM      8  C   UNL     1      -3.049  12.888  21.231  0.00  0.00    +0.000 A 
ATOM      9  C   UNL     1      -3.954  13.496  22.108  0.00  0.00    +0.000 A 
ATOM     10  C   UNL     1      -5.301  13.587  21.777  0.00  0.00    +0.000 A 
ATOM     11  C   UNL     1      -5.786  13.068  20.570  0.00  0.00    +0.000 A 
ATOM     12  C   UNL     1      -4.882  12.433  19.706  0.00  0.00    +0.000 A 
ATOM     13  N   UNL     1      -5.069  11.784  18.499  0.00  0.00    +0.000 N 
ENDROOT
BRANCH   1  15
ATOM     14  N   UNL     1       0.698  12.511  19.538  0.00  0.00    +0.000 N 
ATOM     15  C   UNL     1      -0.493  12.467  18.789  0.00  0.00    +0.000 C 
ATOM     16  O   UNL     1      -0.806  13.419  18.056  0.00  0.00    +0.000 OA
BRANCH  14  17
ATOM     17  C   UNL     1       1.493  13.754  19.477  0.00  0.00    +0.000 C 
BRANCH  17  18
ATOM     18  C   UNL     1       2.749  13.801  20.361  0.00  0.00    +0.000 C 
BRANCH  18  19
ATOM     19  C   UNL     1       3.699  14.973  20.107  0.00  0.00    +0.000 C 
BRANCH  19  20
ATOM     20  C   UNL     1       3.688  15.413  18.646  0.00  0.00    +0.000 C 
BRANCH  20  22
ATOM     21  C   UNL     1       6.167  15.179  18.375  0.00  0.00    +0.000 C 
ATOM     22  C   UNL     1       4.806  14.755  17.844  0.00  0.00    +0.000 C 
ENDBRANCH  20  22
ENDBRANCH  19  20
ENDBRANCH  18  19
ENDBRANCH  17  18
ENDBRANCH  14  17
BRANCH  14  23
ATOM     23  C   UNL     1       0.943  11.547  20.606  0.00  0.00    +0.000 C 
BRANCH  23  24
ATOM     24  C   UNL     1      -0.006  11.480  21.794  0.00  0.00    +0.000 C 
BRANCH  24  25
ATOM     25  C   UNL     1      -0.067  10.083  22.421  0.00  0.00    +0.000 C 
BRANCH  25  26
ATOM     26  C   UNL     1      -0.105   9.049  21.297  0.00  0.00    +0.000 C 
BRANCH  26  27
ATOM     27  C   UNL     1       0.992   7.994  21.395  0.00  0.00    +0.000 C 
ATOM     28  C   UNL     1       1.781   7.949  20.094  0.00  0.00    +0.000 C 
ENDBRANCH  26  27
ENDBRANCH  25  26
ENDBRANCH  24  25
ENDBRANCH  23  24
ENDBRANCH  14  23
ENDBRANCH   1  15
BRANCH  13  29
ATOM     29  C   UNL     1      -6.338  11.636  17.810  0.00  0.00    +0.000 C 
BRANCH  29  30
ATOM     30  C   UNL     1      -6.871  12.954  17.283  0.00  0.00    +0.000 C 
ATOM     31  F   UNL     1      -5.893  13.553  16.545  0.00  0.00    +0.000 F 
ENDBRANCH  29  30
ENDBRANCH  13  29
TORSDOF 13
ENDMDL
MODEL 9
REMARK VINA RESULT:      -5.2      1.006      1.324
REMARK  Name = 
REMARK  15 active torsions:
REMARK  status: ('A' for Active; 'I' for Inactive)
REMARK    1  A    between atoms: C_1  and  C_2
REMARK    2  A    between atoms: C_2  and  C_3
REMARK    3  A    between atoms: C_3  and  C_4
REMARK    4  A    between atoms: C_4  and  C_5
REMARK    5  A    between atoms: C_5  and  C_6
REMARK    6  A    between atoms: C_6  and  N_7
REMARK    7  A    between atoms: N_7  and  C_8
REMARK    8  A    between atoms: C_8  and  C_9
REMARK    9  A    between atoms: C_9  and  C_10
REMARK   10  A    between atoms: C_10  and  C_11
REMARK   11  A    between atoms: C_11  and  C_12
REMARK   12  A    between atoms: C_12  and  C_13
REMARK   13  A    between atoms: C_14  and  C_16
REMARK   14  A    between atoms: N_28  and  C_29
REMARK   15  A    between atoms: C_29  and  C_30
REMARK                            x       y       z     vdW  Elec       q    Type
REMARK                         _______ _______ _______ _____ _____    ______ ____
ROOT
ATOM      1  C   UNL     1      -0.925  12.130  20.084  0.00  0.00    +0.000 C 
ATOM      2  C   UNL     1      -0.852  13.099  21.284  0.00  0.00    +0.000 C 
ATOM      3  C   UNL     1      -2.108  13.247  22.166  0.00  0.00    +0.000 C 
ATOM      4  C   UNL     1      -3.460  13.268  21.438  0.00  0.00    +0.000 C 
ATOM      5  C   UNL     1      -3.426  12.520  20.152  0.00  0.00    +0.000 A 
ATOM      6  C   UNL     1      -2.304  12.032  19.517  0.00  0.00    +0.000 A 
ATOM      7  C   UNL     1      -2.696  11.562  18.235  0.00  0.00    +0.000 A 
ATOM      8  C   UNL     1      -1.981  11.070  17.124  0.00  0.00    +0.000 A 
ATOM      9  C   UNL     1      -2.675  10.733  15.956  0.00  0.00    +0.000 A 
ATOM     10  C   UNL     1      -4.058  10.859  15.898  0.00  0.00    +0.000 A 
ATOM     11  C   UNL     1      -4.788  11.332  16.996  0.00  0.00    +0.000 A 
ATOM     12  C   UNL     1      -4.088  11.697  18.155  0.00  0.00    +0.000 A 
ATOM     13  N   UNL     1      -4.516  12.243  19.352  0.00  0.00    +0.000 N 
ENDROOT
BRANCH   1  15
ATOM     14  N   UNL     1       0.958  10.458  19.461  0.00  0.00    +0.000 N 
ATOM     15  C   UNL     1      -0.205  10.760  20.193  0.00  0.00    +0.000 C 
ATOM     16  O   UNL     1      -0.692   9.922  20.968  0.00  0.00    +0.000 OA
BRANCH  14  17
ATOM     17  C   UNL     1       1.509   9.094  19.594  0.00  0.00    +0.000 C 
BRANCH  17  18
ATOM     18  C   UNL     1       1.912   8.393  18.287  0.00  0.00    +0.000 C 
BRANCH  18  19
ATOM     19  C   UNL     1       3.125   7.465  18.375  0.00  0.00    +0.000 C 
BRANCH  19  20
ATOM     20  C   UNL     1       2.868   6.121  17.700  0.00  0.00    +0.000 C 
BRANCH  20  22
ATOM     21  C   UNL     1       1.538   4.006  17.864  0.00  0.00    +0.000 C 
ATOM     22  C   UNL     1       2.209   5.124  18.647  0.00  0.00    +0.000 C 
ENDBRANCH  20  22
ENDBRANCH  19  20
ENDBRANCH  18  19
ENDBRANCH  17  18
ENDBRANCH  14  17
BRANCH  14  23
ATOM     23  C   UNL     1       1.382  11.304  18.349  0.00  0.00    +0.000 C 
BRANCH  23  24
ATOM     24  C   UNL     1       1.430  12.814  18.527  0.00  0.00    +0.000 C 
BRANCH  24  25
ATOM     25  C   UNL     1       2.857  13.369  18.461  0.00  0.00    +0.000 C 
BRANCH  25  26
ATOM     26  C   UNL     1       2.781  14.870  18.185  0.00  0.00    +0.000 C 
BRANCH  26  27
ATOM     27  C   UNL     1       4.057  15.450  17.586  0.00  0.00    +0.000 C 
ATOM     28  C   UNL     1       5.240  14.554  17.927  0.00  0.00    +0.000 C 
ENDBRANCH  26  27
ENDBRANCH  25  26
ENDBRANCH  24  25
ENDBRANCH  23  24
ENDBRANCH  14  23
ENDBRANCH   1  15
BRANCH  13  29
ATOM     29  C   UNL     1      -5.893  12.550  19.691  0.00  0.00    +0.000 C 
BRANCH  29  30
ATOM     30  C   UNL     1      -6.617  11.372  20.313  0.00  0.00    +0.000 C 
ATOM     31  F   UNL     1      -7.714  11.088  19.555  0.00  0.00    +0.000 F 
ENDBRANCH  29  30
ENDBRANCH  13  29
TORSDOF 13
ENDMDL
