MODEL 1
REMARK VINA RESULT:      -9.0      0.000      0.000
REMARK  Name = 
REMARK  3 active torsions:
REMARK  status: ('A' for Active; 'I' for Inactive)
REMARK    1  A    between atoms: C_4  and  C_5
REMARK    2  A    between atoms: C_10  and  C_11
REMARK    3  A    between atoms: C_16  and  C_17
REMARK                            x       y       z     vdW  Elec       q    Type
REMARK                         _______ _______ _______ _____ _____    ______ ____
ROOT
ATOM      1  C   UNL     1       5.988   5.594  15.673  0.00  0.00    +0.000 A 
ATOM      2  C   UNL     1       6.933   5.476  16.695  0.00  0.00    +0.000 A 
ATOM      3  C   UNL     1       6.535   5.568  18.013  0.00  0.00    +0.000 A 
ATOM      4  C   UNL     1       5.232   5.898  18.306  0.00  0.00    +0.000 A 
ATOM      5  N   UNL     1       4.690   5.431  19.436  0.00  0.00    +0.000 NA
ATOM      6  C   UNL     1       3.400   5.770  19.615  0.00  0.00    +0.000 A 
ATOM      7  C   UNL     1       3.024   7.027  19.199  0.00  0.00    +0.000 A 
ATOM      8  N   UNL     1       3.384   7.354  17.917  0.00  0.00    +0.000 NA
ATOM      9  C   UNL     1       4.452   6.608  17.383  0.00  0.00    +0.000 A 
ATOM     10  C   UNL     1       4.801   6.304  16.023  0.00  0.00    +0.000 A 
ENDROOT
BRANCH   1  14
ATOM     11  C   UNL     1       6.950   3.730  11.842  0.00  0.00    +0.000 A 
ATOM     12  C   UNL     1       7.761   4.712  12.370  0.00  0.00    +0.000 A 
ATOM     13  C   UNL     1       7.441   5.258  13.628  0.00  0.00    +0.000 A 
ATOM     14  C   UNL     1       6.290   4.884  14.383  0.00  0.00    +0.000 A 
ATOM     15  C   UNL     1       5.525   3.850  13.837  0.00  0.00    +0.000 A 
ATOM     16  C   UNL     1       5.851   3.288  12.586  0.00  0.00    +0.000 A 
ENDBRANCH   1  14
BRANCH   6  17
ATOM     17  C   UNL     1       2.396   4.769  19.124  0.00  0.00    +0.000 A 
ATOM     18  C   UNL     1       2.283   4.130  17.890  0.00  0.00    +0.000 A 
ATOM     19  C   UNL     1       1.295   3.142  18.022  0.00  0.00    +0.000 A 
ATOM     20  C   UNL     1       0.865   3.224  19.324  0.00  0.00    +0.000 A 
ATOM     21  O   UNL     1       1.522   4.205  20.004  0.00  0.00    +0.000 OA
ENDBRANCH   6  17
BRANCH   7  22
ATOM     22  C   UNL     1       1.954   7.659  19.988  0.00  0.00    +0.000 A 
ATOM     23  C   UNL     1       1.289   7.499  21.189  0.00  0.00    +0.000 A 
ATOM     24  C   UNL     1       0.437   8.639  21.362  0.00  0.00    +0.000 A 
ATOM     25  C   UNL     1       0.602   9.415  20.241  0.00  0.00    +0.000 A 
ATOM     26  O   UNL     1       1.474   8.818  19.400  0.00  0.00    +0.000 OA
ENDBRANCH   7  22
TORSDOF 3
ENDMDL
MODEL 2
REMARK VINA RESULT:      -8.3      0.661      1.153
REMARK  Name = 
REMARK  3 active torsions:
REMARK  status: ('A' for Active; 'I' for Inactive)
REMARK    1  A    between atoms: C_4  and  C_5
REMARK    2  A    between atoms: C_10  and  C_11
REMARK    3  A    between atoms: C_16  and  C_17
REMARK                            x       y       z     vdW  Elec       q    Type
REMARK                         _______ _______ _______ _____ _____    ______ ____
ROOT
ATOM      1  C   UNL     1       5.940   5.490  15.249  0.00  0.00    +0.000 A 
ATOM      2  C   UNL     1       6.987   5.525  16.173  0.00  0.00    +0.000 A 
ATOM      3  C   UNL     1       6.712   5.662  17.518  0.00  0.00    +0.000 A 
ATOM      4  C   UNL     1       5.417   5.888  17.926  0.00  0.00    +0.000 A 
ATOM      5  N   UNL     1       5.036   5.445  19.129  0.00  0.00    +0.000 NA
ATOM      6  C   UNL     1       3.743   5.673  19.421  0.00  0.00    +0.000 A 
ATOM      7  C   UNL     1       3.207   6.861  18.980  0.00  0.00    +0.000 A 
ATOM      8  N   UNL     1       3.406   7.139  17.653  0.00  0.00    +0.000 NA
ATOM      9  C   UNL     1       4.486   6.463  17.052  0.00  0.00    +0.000 A 
ATOM     10  C   UNL     1       4.728   6.108  15.681  0.00  0.00    +0.000 A 
ENDROOT
BRANCH   1  14
ATOM     11  C   UNL     1       6.531   3.110  11.635  0.00  0.00    +0.000 A 
ATOM     12  C   UNL     1       5.364   3.007  12.363  0.00  0.00    +0.000 A 
ATOM     13  C   UNL     1       5.194   3.822  13.498  0.00  0.00    +0.000 A 
ATOM     14  C   UNL     1       6.183   4.732  13.974  0.00  0.00    +0.000 A 
ATOM     15  C   UNL     1       7.327   4.845  13.179  0.00  0.00    +0.000 A 
ATOM     16  C   UNL     1       7.495   4.042  12.032  0.00  0.00    +0.000 A 
ENDBRANCH   1  14
BRANCH   6  17
ATOM     17  C   UNL     1       2.800   4.554  19.090  0.00  0.00    +0.000 A 
ATOM     18  C   UNL     1       1.651   4.541  18.299  0.00  0.00    +0.000 A 
ATOM     19  C   UNL     1       1.259   3.202  18.155  0.00  0.00    +0.000 A 
ATOM     20  C   UNL     1       2.188   2.470  18.854  0.00  0.00    +0.000 A 
ATOM     21  O   UNL     1       3.128   3.275  19.427  0.00  0.00    +0.000 OA
ENDBRANCH   6  17
BRANCH   7  22
ATOM     22  C   UNL     1       2.161   7.439  19.840  0.00  0.00    +0.000 A 
ATOM     23  C   UNL     1       1.556   7.220  21.063  0.00  0.00    +0.000 A 
ATOM     24  C   UNL     1       0.689   8.334  21.318  0.00  0.00    +0.000 A 
ATOM     25  C   UNL     1       0.786   9.154  20.222  0.00  0.00    +0.000 A 
ATOM     26  O   UNL     1       1.630   8.608  19.319  0.00  0.00    +0.000 OA
ENDBRANCH   7  22
TORSDOF 3
ENDMDL
MODEL 3
REMARK VINA RESULT:      -7.8      2.196      7.832
REMARK  Name = 
REMARK  3 active torsions:
REMARK  status: ('A' for Active; 'I' for Inactive)
REMARK    1  A    between atoms: C_4  and  C_5
REMARK    2  A    between atoms: C_10  and  C_11
REMARK    3  A    between atoms: C_16  and  C_17
REMARK                            x       y       z     vdW  Elec       q    Type
REMARK                         _______ _______ _______ _____ _____    ______ ____
ROOT
ATOM      1  C   UNL     1       1.956   7.278  19.713  0.00  0.00    +0.000 A 
ATOM      2  C   UNL     1       2.010   6.053  20.383  0.00  0.00    +0.000 A 
ATOM      3  C   UNL     1       2.974   5.126  20.044  0.00  0.00    +0.000 A 
ATOM      4  C   UNL     1       3.796   5.365  18.966  0.00  0.00    +0.000 A 
ATOM      5  N   UNL     1       5.032   4.855  18.975  0.00  0.00    +0.000 NA
ATOM      6  C   UNL     1       5.774   5.178  17.901  0.00  0.00    +0.000 A 
ATOM      7  C   UNL     1       5.121   5.246  16.691  0.00  0.00    +0.000 A 
ATOM      8  N   UNL     1       3.985   6.013  16.679  0.00  0.00    +0.000 NA
ATOM      9  C   UNL     1       3.388   6.224  17.937  0.00  0.00    +0.000 A 
ATOM     10  C   UNL     1       2.540   7.284  18.411  0.00  0.00    +0.000 A 
ENDROOT
BRANCH   1  14
ATOM     11  C   UNL     1       0.199  10.516  22.057  0.00  0.00    +0.000 A 
ATOM     12  C   UNL     1       0.577   9.335  22.661  0.00  0.00    +0.000 A 
ATOM     13  C   UNL     1       1.180   8.332  21.879  0.00  0.00    +0.000 A 
ATOM     14  C   UNL     1       1.389   8.444  20.472  0.00  0.00    +0.000 A 
ATOM     15  C   UNL     1       1.040   9.675  19.911  0.00  0.00    +0.000 A 
ATOM     16  C   UNL     1       0.452  10.690  20.693  0.00  0.00    +0.000 A 
ENDBRANCH   1  14
BRANCH   6  17
ATOM     17  C   UNL     1       6.643   6.391  18.059  0.00  0.00    +0.000 A 
ATOM     18  C   UNL     1       7.849   6.560  18.738  0.00  0.00    +0.000 A 
ATOM     19  C   UNL     1       8.343   7.829  18.402  0.00  0.00    +0.000 A 
ATOM     20  C   UNL     1       7.422   8.363  17.533  0.00  0.00    +0.000 A 
ATOM     21  O   UNL     1       6.386   7.504  17.316  0.00  0.00    +0.000 OA
ENDBRANCH   6  17
BRANCH   7  22
ATOM     22  C   UNL     1       5.925   4.867  15.518  0.00  0.00    +0.000 A 
ATOM     23  C   UNL     1       7.243   4.841  15.102  0.00  0.00    +0.000 A 
ATOM     24  C   UNL     1       7.279   4.168  13.836  0.00  0.00    +0.000 A 
ATOM     25  C   UNL     1       5.978   3.851  13.533  0.00  0.00    +0.000 A 
ATOM     26  O   UNL     1       5.161   4.300  14.511  0.00  0.00    +0.000 OA
ENDBRANCH   7  22
TORSDOF 3
ENDMDL
MODEL 4
REMARK VINA RESULT:      -7.8      3.653      6.441
REMARK  Name = 
REMARK  3 active torsions:
REMARK  status: ('A' for Active; 'I' for Inactive)
REMARK    1  A    between atoms: C_4  and  C_5
REMARK    2  A    between atoms: C_10  and  C_11
REMARK    3  A    between atoms: C_16  and  C_17
REMARK                            x       y       z     vdW  Elec       q    Type
REMARK                         _______ _______ _______ _____ _____    ______ ____
ROOT
ATOM      1  C   UNL     1       2.271   7.389  19.089  0.00  0.00    +0.000 A 
ATOM      2  C   UNL     1       1.875   7.237  20.420  0.00  0.00    +0.000 A 
ATOM      3  C   UNL     1       1.043   8.172  21.001  0.00  0.00    +0.000 A 
ATOM      4  C   UNL     1       0.711   9.311  20.303  0.00  0.00    +0.000 A 
ATOM      5  N   UNL     1      -0.471   9.888  20.542  0.00  0.00    +0.000 NA
ATOM      6  C   UNL     1      -0.725  10.969  19.782  0.00  0.00    +0.000 A 
ATOM      7  C   UNL     1       0.341  11.792  19.496  0.00  0.00    +0.000 A 
ATOM      8  N   UNL     1       1.452  11.163  18.997  0.00  0.00    +0.000 NA
ATOM      9  C   UNL     1       1.542   9.786  19.280  0.00  0.00    +0.000 A 
ATOM     10  C   UNL     1       2.225   8.726  18.591  0.00  0.00    +0.000 A 
ENDROOT
BRANCH   1  14
ATOM     11  C   UNL     1       3.089   3.626  17.031  0.00  0.00    +0.000 A 
ATOM     12  C   UNL     1       1.868   3.847  17.634  0.00  0.00    +0.000 A 
ATOM     13  C   UNL     1       1.628   5.090  18.250  0.00  0.00    +0.000 A 
ATOM     14  C   UNL     1       2.596   6.134  18.328  0.00  0.00    +0.000 A 
ATOM     15  C   UNL     1       3.798   5.889  17.659  0.00  0.00    +0.000 A 
ATOM     16  C   UNL     1       4.038   4.653  17.027  0.00  0.00    +0.000 A 
ENDBRANCH   1  14
BRANCH   6  17
ATOM     17  C   UNL     1      -1.494  10.705  18.521  0.00  0.00    +0.000 A 
ATOM     18  C   UNL     1      -1.296   9.754  17.521  0.00  0.00    +0.000 A 
ATOM     19  C   UNL     1      -2.413   9.803  16.672  0.00  0.00    +0.000 A 
ATOM     20  C   UNL     1      -3.233  10.771  17.200  0.00  0.00    +0.000 A 
ATOM     21  O   UNL     1      -2.690  11.327  18.320  0.00  0.00    +0.000 OA
ENDBRANCH   6  17
BRANCH   7  22
ATOM     22  C   UNL     1       0.014  13.220  19.352  0.00  0.00    +0.000 A 
ATOM     23  C   UNL     1      -0.958  14.127  19.729  0.00  0.00    +0.000 A 
ATOM     24  C   UNL     1      -0.505  15.429  19.337  0.00  0.00    +0.000 A 
ATOM     25  C   UNL     1       0.702  15.243  18.712  0.00  0.00    +0.000 A 
ATOM     26  O   UNL     1       1.000  13.926  18.681  0.00  0.00    +0.000 OA
ENDBRANCH   7  22
TORSDOF 3
ENDMDL
MODEL 5
REMARK VINA RESULT:      -7.7      3.573      6.266
REMARK  Name = 
REMARK  3 active torsions:
REMARK  status: ('A' for Active; 'I' for Inactive)
REMARK    1  A    between atoms: C_4  and  C_5
REMARK    2  A    between atoms: C_10  and  C_11
REMARK    3  A    between atoms: C_16  and  C_17
REMARK                            x       y       z     vdW  Elec       q    Type
REMARK                         _______ _______ _______ _____ _____    ______ ____
ROOT
ATOM      1  C   UNL     1       2.255   6.781  19.062  0.00  0.00    +0.000 A 
ATOM      2  C   UNL     1       2.058   6.829  20.445  0.00  0.00    +0.000 A 
ATOM      3  C   UNL     1       1.385   7.894  21.007  0.00  0.00    +0.000 A 
ATOM      4  C   UNL     1       1.022   8.960  20.216  0.00  0.00    +0.000 A 
ATOM      5  N   UNL     1      -0.072   9.658  20.541  0.00  0.00    +0.000 NA
ATOM      6  C   UNL     1      -0.370  10.652  19.685  0.00  0.00    +0.000 A 
ATOM      7  C   UNL     1       0.688  11.343  19.141  0.00  0.00    +0.000 A 
ATOM      8  N   UNL     1       1.669  10.568  18.578  0.00  0.00    +0.000 NA
ATOM      9  C   UNL     1       1.715   9.235  19.029  0.00  0.00    +0.000 A 
ATOM     10  C   UNL     1       2.218   8.045  18.400  0.00  0.00    +0.000 A 
ENDROOT
BRANCH   1  14
ATOM     11  C   UNL     1       2.537   2.733  17.449  0.00  0.00    +0.000 A 
ATOM     12  C   UNL     1       1.501   3.085  18.289  0.00  0.00    +0.000 A 
ATOM     13  C   UNL     1       1.422   4.412  18.754  0.00  0.00    +0.000 A 
ATOM     14  C   UNL     1       2.381   5.419  18.440  0.00  0.00    +0.000 A 
ATOM     15  C   UNL     1       3.383   5.035  17.545  0.00  0.00    +0.000 A 
ATOM     16  C   UNL     1       3.458   3.712  17.063  0.00  0.00    +0.000 A 
ENDBRANCH   1  14
BRANCH   6  17
ATOM     17  C   UNL     1      -1.338  10.297  18.595  0.00  0.00    +0.000 A 
ATOM     18  C   UNL     1      -2.708  10.532  18.488  0.00  0.00    +0.000 A 
ATOM     19  C   UNL     1      -3.091  10.179  17.184  0.00  0.00    +0.000 A 
ATOM     20  C   UNL     1      -1.939   9.756  16.566  0.00  0.00    +0.000 A 
ATOM     21  O   UNL     1      -0.869   9.821  17.407  0.00  0.00    +0.000 OA
ENDBRANCH   6  17
BRANCH   7  22
ATOM     22  C   UNL     1       0.433  12.764  18.853  0.00  0.00    +0.000 A 
ATOM     23  C   UNL     1      -0.594  13.594  18.444  0.00  0.00    +0.000 A 
ATOM     24  C   UNL     1      -0.119  14.943  18.541  0.00  0.00    +0.000 A 
ATOM     25  C   UNL     1       1.182  14.862  18.970  0.00  0.00    +0.000 A 
ATOM     26  O   UNL     1       1.531  13.566  19.120  0.00  0.00    +0.000 OA
ENDBRANCH   7  22
TORSDOF 3
ENDMDL
MODEL 6
REMARK VINA RESULT:      -7.7      2.229      7.738
REMARK  Name = 
REMARK  3 active torsions:
REMARK  status: ('A' for Active; 'I' for Inactive)
REMARK    1  A    between atoms: C_4  and  C_5
REMARK    2  A    between atoms: C_10  and  C_11
REMARK    3  A    between atoms: C_16  and  C_17
REMARK                            x       y       z     vdW  Elec       q    Type
REMARK                         _______ _______ _______ _____ _____    ______ ____
ROOT
ATOM      1  C   UNL     1       1.889   7.149  19.792  0.00  0.00    +0.000 A 
ATOM      2  C   UNL     1       1.935   5.938  20.486  0.00  0.00    +0.000 A 
ATOM      3  C   UNL     1       2.888   4.995  20.160  0.00  0.00    +0.000 A 
ATOM      4  C   UNL     1       3.705   5.205  19.073  0.00  0.00    +0.000 A 
ATOM      5  N   UNL     1       4.936   4.683  19.084  0.00  0.00    +0.000 NA
ATOM      6  C   UNL     1       5.674   4.978  17.999  0.00  0.00    +0.000 A 
ATOM      7  C   UNL     1       5.014   5.027  16.792  0.00  0.00    +0.000 A 
ATOM      8  N   UNL     1       3.885   5.805  16.772  0.00  0.00    +0.000 NA
ATOM      9  C   UNL     1       3.299   6.047  18.029  0.00  0.00    +0.000 A 
ATOM     10  C   UNL     1       2.464   7.124  18.487  0.00  0.00    +0.000 A 
ENDROOT
BRANCH   1  14
ATOM     11  C   UNL     1       0.393  10.733  21.790  0.00  0.00    +0.000 A 
ATOM     12  C   UNL     1       0.541  10.702  20.419  0.00  0.00    +0.000 A 
ATOM     13  C   UNL     1       0.986   9.514  19.808  0.00  0.00    +0.000 A 
ATOM     14  C   UNL     1       1.337   8.336  20.532  0.00  0.00    +0.000 A 
ATOM     15  C   UNL     1       1.121   8.393  21.911  0.00  0.00    +0.000 A 
ATOM     16  C   UNL     1       0.661   9.575  22.526  0.00  0.00    +0.000 A 
ENDBRANCH   1  14
BRANCH   6  17
ATOM     17  C   UNL     1       6.556   6.185  18.127  0.00  0.00    +0.000 A 
ATOM     18  C   UNL     1       7.799   6.339  18.740  0.00  0.00    +0.000 A 
ATOM     19  C   UNL     1       8.278   7.612  18.396  0.00  0.00    +0.000 A 
ATOM     20  C   UNL     1       7.312   8.163  17.590  0.00  0.00    +0.000 A 
ATOM     21  O   UNL     1       6.262   7.311  17.418  0.00  0.00    +0.000 OA
ENDBRANCH   6  17
BRANCH   7  22
ATOM     22  C   UNL     1       5.807   4.618  15.621  0.00  0.00    +0.000 A 
ATOM     23  C   UNL     1       5.930   3.556  14.745  0.00  0.00    +0.000 A 
ATOM     24  C   UNL     1       6.850   3.952  13.719  0.00  0.00    +0.000 A 
ATOM     25  C   UNL     1       7.264   5.220  14.043  0.00  0.00    +0.000 A 
ATOM     26  O   UNL     1       6.678   5.608  15.197  0.00  0.00    +0.000 OA
ENDBRANCH   7  22
TORSDOF 3
ENDMDL
MODEL 7
REMARK VINA RESULT:      -7.6      3.628      6.397
REMARK  Name = 
REMARK  3 active torsions:
REMARK  status: ('A' for Active; 'I' for Inactive)
REMARK    1  A    between atoms: C_4  and  C_5
REMARK    2  A    between atoms: C_10  and  C_11
REMARK    3  A    between atoms: C_16  and  C_17
REMARK                            x       y       z     vdW  Elec       q    Type
REMARK                         _______ _______ _______ _____ _____    ______ ____
ROOT
ATOM      1  C   UNL     1       2.206   7.334  19.213  0.00  0.00    +0.000 A 
ATOM      2  C   UNL     1       1.832   7.223  20.554  0.00  0.00    +0.000 A 
ATOM      3  C   UNL     1       1.031   8.189  21.127  0.00  0.00    +0.000 A 
ATOM      4  C   UNL     1       0.709   9.316  20.407  0.00  0.00    +0.000 A 
ATOM      5  N   UNL     1      -0.457   9.924  20.653  0.00  0.00    +0.000 NA
ATOM      6  C   UNL     1      -0.703  10.990  19.871  0.00  0.00    +0.000 A 
ATOM      7  C   UNL     1       0.373  11.784  19.545  0.00  0.00    +0.000 A 
ATOM      8  N   UNL     1       1.461  11.120  19.041  0.00  0.00    +0.000 NA
ATOM      9  C   UNL     1       1.529   9.749  19.357  0.00  0.00    +0.000 A 
ATOM     10  C   UNL     1       2.178   8.658  18.683  0.00  0.00    +0.000 A 
ENDROOT
BRANCH   1  14
ATOM     11  C   UNL     1       3.150   3.738  16.921  0.00  0.00    +0.000 A 
ATOM     12  C   UNL     1       4.053   4.777  17.004  0.00  0.00    +0.000 A 
ATOM     13  C   UNL     1       3.729   5.901  17.788  0.00  0.00    +0.000 A 
ATOM     14  C   UNL     1       2.491   6.054  18.478  0.00  0.00    +0.000 A 
ATOM     15  C   UNL     1       1.628   4.957  18.411  0.00  0.00    +0.000 A 
ATOM     16  C   UNL     1       1.954   3.822  17.641  0.00  0.00    +0.000 A 
ENDBRANCH   1  14
BRANCH   6  17
ATOM     17  C   UNL     1      -1.502  10.711  18.632  0.00  0.00    +0.000 A 
ATOM     18  C   UNL     1      -1.246   9.853  17.563  0.00  0.00    +0.000 A 
ATOM     19  C   UNL     1      -2.404   9.817  16.771  0.00  0.00    +0.000 A 
ATOM     20  C   UNL     1      -3.304  10.643  17.399  0.00  0.00    +0.000 A 
ATOM     21  O   UNL     1      -2.773  11.192  18.527  0.00  0.00    +0.000 OA
ENDBRANCH   6  17
BRANCH   7  22
ATOM     22  C   UNL     1       0.072  13.214  19.371  0.00  0.00    +0.000 A 
ATOM     23  C   UNL     1       0.295  14.241  18.473  0.00  0.00    +0.000 A 
ATOM     24  C   UNL     1      -0.467  15.372  18.917  0.00  0.00    +0.000 A 
ATOM     25  C   UNL     1      -1.086  14.984  20.080  0.00  0.00    +0.000 A 
ATOM     26  O   UNL     1      -0.737  13.713  20.378  0.00  0.00    +0.000 OA
ENDBRANCH   7  22
TORSDOF 3
ENDMDL
MODEL 8
REMARK VINA RESULT:      -7.5      2.372      7.735
REMARK  Name = 
REMARK  3 active torsions:
REMARK  status: ('A' for Active; 'I' for Inactive)
REMARK    1  A    between atoms: C_4  and  C_5
REMARK    2  A    between atoms: C_10  and  C_11
REMARK    3  A    between atoms: C_16  and  C_17
REMARK                            x       y       z     vdW  Elec       q    Type
REMARK                         _______ _______ _______ _____ _____    ______ ____
ROOT
ATOM      1  C   UNL     1       2.203   7.000  19.514  0.00  0.00    +0.000 A 
ATOM      2  C   UNL     1       2.321   5.768  20.162  0.00  0.00    +0.000 A 
ATOM      3  C   UNL     1       3.298   4.876  19.769  0.00  0.00    +0.000 A 
ATOM      4  C   UNL     1       4.066   5.155  18.663  0.00  0.00    +0.000 A 
ATOM      5  N   UNL     1       5.316   4.682  18.613  0.00  0.00    +0.000 NA
ATOM      6  C   UNL     1       6.003   5.044  17.514  0.00  0.00    +0.000 A 
ATOM      7  C   UNL     1       5.298   5.108  16.334  0.00  0.00    +0.000 A 
ATOM      8  N   UNL     1       4.140   5.840  16.380  0.00  0.00    +0.000 NA
ATOM      9  C   UNL     1       3.590   6.016  17.664  0.00  0.00    +0.000 A 
ATOM     10  C   UNL     1       2.732   7.042  18.189  0.00  0.00    +0.000 A 
ENDROOT
BRANCH   1  14
ATOM     11  C   UNL     1       0.634  10.450  21.683  0.00  0.00    +0.000 A 
ATOM     12  C   UNL     1       0.693  10.453  20.305  0.00  0.00    +0.000 A 
ATOM     13  C   UNL     1       1.164   9.304  19.641  0.00  0.00    +0.000 A 
ATOM     14  C   UNL     1       1.632   8.137  20.314  0.00  0.00    +0.000 A 
ATOM     15  C   UNL     1       1.507   8.156  21.705  0.00  0.00    +0.000 A 
ATOM     16  C   UNL     1       1.019   9.297  22.375  0.00  0.00    +0.000 A 
ENDBRANCH   1  14
BRANCH   6  17
ATOM     17  C   UNL     1       6.841   6.280  17.655  0.00  0.00    +0.000 A 
ATOM     18  C   UNL     1       6.673   7.555  17.116  0.00  0.00    +0.000 A 
ATOM     19  C   UNL     1       7.623   8.392  17.721  0.00  0.00    +0.000 A 
ATOM     20  C   UNL     1       8.312   7.591  18.599  0.00  0.00    +0.000 A 
ATOM     21  O   UNL     1       7.851   6.308  18.570  0.00  0.00    +0.000 OA
ENDBRANCH   6  17
BRANCH   7  22
ATOM     22  C   UNL     1       6.064   4.772  15.122  0.00  0.00    +0.000 A 
ATOM     23  C   UNL     1       7.354   4.841  14.632  0.00  0.00    +0.000 A 
ATOM     24  C   UNL     1       7.374   4.148  13.377  0.00  0.00    +0.000 A 
ATOM     25  C   UNL     1       6.088   3.724  13.153  0.00  0.00    +0.000 A 
ATOM     26  O   UNL     1       5.293   4.126  14.169  0.00  0.00    +0.000 OA
ENDBRANCH   7  22
TORSDOF 3
ENDMDL
MODEL 9
REMARK VINA RESULT:      -7.4      2.427      7.756
REMARK  Name = 
REMARK  3 active torsions:
REMARK  status: ('A' for Active; 'I' for Inactive)
REMARK    1  A    between atoms: C_4  and  C_5
REMARK    2  A    between atoms: C_10  and  C_11
REMARK    3  A    between atoms: C_16  and  C_17
REMARK                            x       y       z     vdW  Elec       q    Type
REMARK                         _______ _______ _______ _____ _____    ______ ____
ROOT
ATOM      1  C   UNL     1       2.132   7.122  19.551  0.00  0.00    +0.000 A 
ATOM      2  C   UNL     1       2.251   5.932  20.272  0.00  0.00    +0.000 A 
ATOM      3  C   UNL     1       3.225   5.016  19.932  0.00  0.00    +0.000 A 
ATOM      4  C   UNL     1       3.990   5.227  18.808  0.00  0.00    +0.000 A 
ATOM      5  N   UNL     1       5.240   4.750  18.783  0.00  0.00    +0.000 NA
ATOM      6  C   UNL     1       5.924   5.043  17.662  0.00  0.00    +0.000 A 
ATOM      7  C   UNL     1       5.215   5.037  16.482  0.00  0.00    +0.000 A 
ATOM      8  N   UNL     1       4.058   5.771  16.487  0.00  0.00    +0.000 NA
ATOM      9  C   UNL     1       3.512   6.026  17.761  0.00  0.00    +0.000 A 
ATOM     10  C   UNL     1       2.657   7.083  18.224  0.00  0.00    +0.000 A 
ENDROOT
BRANCH   1  14
ATOM     11  C   UNL     1       0.394  10.419  21.827  0.00  0.00    +0.000 A 
ATOM     12  C   UNL     1       0.858   9.289  22.468  0.00  0.00    +0.000 A 
ATOM     13  C   UNL     1       1.451   8.267  21.703  0.00  0.00    +0.000 A 
ATOM     14  C   UNL     1       1.566   8.307  20.282  0.00  0.00    +0.000 A 
ATOM     15  C   UNL     1       1.132   9.491  19.679  0.00  0.00    +0.000 A 
ATOM     16  C   UNL     1       0.553  10.524  20.442  0.00  0.00    +0.000 A 
ENDBRANCH   1  14
BRANCH   6  17
ATOM     17  C   UNL     1       6.764   6.285  17.725  0.00  0.00    +0.000 A 
ATOM     18  C   UNL     1       6.527   7.565  17.226  0.00  0.00    +0.000 A 
ATOM     19  C   UNL     1       7.533   8.402  17.732  0.00  0.00    +0.000 A 
ATOM     20  C   UNL     1       8.323   7.595  18.515  0.00  0.00    +0.000 A 
ATOM     21  O   UNL     1       7.870   6.309  18.521  0.00  0.00    +0.000 OA
ENDBRANCH   6  17
BRANCH   7  22
ATOM     22  C   UNL     1       5.977   4.625  15.291  0.00  0.00    +0.000 A 
ATOM     23  C   UNL     1       5.995   3.622  14.341  0.00  0.00    +0.000 A 
ATOM     24  C   UNL     1       6.970   3.984  13.354  0.00  0.00    +0.000 A 
ATOM     25  C   UNL     1       7.518   5.171  13.774  0.00  0.00    +0.000 A 
ATOM     26  O   UNL     1       6.960   5.539  14.947  0.00  0.00    +0.000 OA
ENDBRANCH   7  22
TORSDOF 3
ENDMDL
