MODEL 1
REMARK VINA RESULT:      -6.7      0.000      0.000
REMARK  Name = 
REMARK  6 active torsions:
REMARK  status: ('A' for Active; 'I' for Inactive)
REMARK    1  A    between atoms: C_1  and  O_2
REMARK    2  A    between atoms: O_2  and  C_3
REMARK    3  A    between atoms: C_5  and  S_6
REMARK    4  A    between atoms: S_6  and  N_9
REMARK    5  A    between atoms: N_9  and  C_10
REMARK    6  A    between atoms: C_10  and  C_11
REMARK                            x       y       z     vdW  Elec       q    Type
REMARK                         _______ _______ _______ _____ _____    ______ ____
ROOT
ATOM      1  S   UNL     1       3.361   3.663  17.570  0.00  0.00    +0.000 S 
ATOM      2  O   UNL     1       4.180   2.765  18.351  0.00  0.00    +0.000 OA
ATOM      3  O   UNL     1       2.163   3.217  16.892  0.00  0.00    +0.000 OA
ENDROOT
BRANCH   1   6
ATOM      4  C   UNL     1       2.505   7.420  18.911  0.00  0.00    +0.000 A 
ATOM      5  C   UNL     1       2.975   6.339  18.142  0.00  0.00    +0.000 A 
ATOM      6  C   UNL     1       2.887   5.024  18.617  0.00  0.00    +0.000 A 
ATOM      7  C   UNL     1       2.314   4.764  19.858  0.00  0.00    +0.000 A 
ATOM      8  C   UNL     1       1.839   5.830  20.625  0.00  0.00    +0.000 A 
ATOM      9  C   UNL     1       1.920   7.154  20.157  0.00  0.00    +0.000 A 
ATOM     10 BR   UNL     1       1.078   8.431  21.284  0.00  0.00    +0.000 Br
BRANCH   4  12
ATOM     11  C   UNL     1       1.422   9.215  17.745  0.00  0.00    +0.000 C 
ATOM     12  O   UNL     1       2.607   8.614  18.250  0.00  0.00    +0.000 OA
ENDBRANCH   4  12
ENDBRANCH   1   6
BRANCH   1  13
ATOM     13  N   UNL     1       4.332   4.417  16.409  0.00  0.00    +0.000 NA
ATOM     14  H   UNL     1       4.171   5.424  16.375  0.00  0.00    +0.000 HD
BRANCH  13  15
ATOM     15  C   UNL     1       5.758   4.063  16.442  0.00  0.00    +0.000 C 
BRANCH  15  16
ATOM     16  C   UNL     1       6.572   5.090  17.188  0.00  0.00    +0.000 A 
ATOM     17  C   UNL     1       6.710   6.389  16.693  0.00  0.00    +0.000 A 
ATOM     18  C   UNL     1       7.445   7.310  17.427  0.00  0.00    +0.000 A 
ATOM     19  N   UNL     1       8.043   7.025  18.603  0.00  0.00    +0.000 NA
ATOM     20  C   UNL     1       7.896   5.767  19.070  0.00  0.00    +0.000 A 
ATOM     21  C   UNL     1       7.182   4.779  18.409  0.00  0.00    +0.000 A 
ENDBRANCH  15  16
ENDBRANCH  13  15
ENDBRANCH   1  13
TORSDOF 5
ENDMDL
MODEL 2
REMARK VINA RESULT:      -6.6      2.900      5.064
REMARK  Name = 
REMARK  6 active torsions:
REMARK  status: ('A' for Active; 'I' for Inactive)
REMARK    1  A    between atoms: C_1  and  O_2
REMARK    2  A    between atoms: O_2  and  C_3
REMARK    3  A    between atoms: C_5  and  S_6
REMARK    4  A    between atoms: S_6  and  N_9
REMARK    5  A    between atoms: N_9  and  C_10
REMARK    6  A    between atoms: C_10  and  C_11
REMARK                            x       y       z     vdW  Elec       q    Type
REMARK                         _______ _______ _______ _____ _____    ______ ____
ROOT
ATOM      1  S   UNL     1       3.294   2.195  18.238  0.00  0.00    +0.000 S 
ATOM      2  O   UNL     1       2.370   2.275  17.129  0.00  0.00    +0.000 OA
ATOM      3  O   UNL     1       3.977   0.965  18.582  0.00  0.00    +0.000 OA
ENDROOT
BRANCH   1   6
ATOM      4  C   UNL     1       5.783   4.916  16.493  0.00  0.00    +0.000 A 
ATOM      5  C   UNL     1       4.873   3.863  16.702  0.00  0.00    +0.000 A 
ATOM      6  C   UNL     1       4.551   3.434  17.996  0.00  0.00    +0.000 A 
ATOM      7  C   UNL     1       5.117   4.059  19.104  0.00  0.00    +0.000 A 
ATOM      8  C   UNL     1       6.016   5.109  18.905  0.00  0.00    +0.000 A 
ATOM      9  C   UNL     1       6.346   5.549  17.611  0.00  0.00    +0.000 A 
ATOM     10 BR   UNL     1       7.463   7.086  17.572  0.00  0.00    +0.000 Br
BRANCH   4  12
ATOM     11  C   UNL     1       5.875   4.196  14.208  0.00  0.00    +0.000 C 
ATOM     12  O   UNL     1       5.911   5.240  15.170  0.00  0.00    +0.000 OA
ENDBRANCH   4  12
ENDBRANCH   1   6
BRANCH   1  13
ATOM     13  N   UNL     1       2.515   2.734  19.639  0.00  0.00    +0.000 NA
ATOM     14  H   UNL     1       3.170   3.147  20.302  0.00  0.00    +0.000 HD
BRANCH  13  15
ATOM     15  C   UNL     1       1.315   3.556  19.425  0.00  0.00    +0.000 C 
BRANCH  15  16
ATOM     16  C   UNL     1       1.646   5.027  19.382  0.00  0.00    +0.000 A 
ATOM     17  C   UNL     1       1.647   5.793  20.550  0.00  0.00    +0.000 A 
ATOM     18  C   UNL     1       1.985   7.136  20.468  0.00  0.00    +0.000 A 
ATOM     19  N   UNL     1       2.315   7.757  19.317  0.00  0.00    +0.000 NA
ATOM     20  C   UNL     1       2.313   7.002  18.198  0.00  0.00    +0.000 A 
ATOM     21  C   UNL     1       1.990   5.654  18.179  0.00  0.00    +0.000 A 
ENDBRANCH  15  16
ENDBRANCH  13  15
ENDBRANCH   1  13
TORSDOF 5
ENDMDL
MODEL 3
REMARK VINA RESULT:      -6.6      1.263      1.586
REMARK  Name = 
REMARK  6 active torsions:
REMARK  status: ('A' for Active; 'I' for Inactive)
REMARK    1  A    between atoms: C_1  and  O_2
REMARK    2  A    between atoms: O_2  and  C_3
REMARK    3  A    between atoms: C_5  and  S_6
REMARK    4  A    between atoms: S_6  and  N_9
REMARK    5  A    between atoms: N_9  and  C_10
REMARK    6  A    between atoms: C_10  and  C_11
REMARK                            x       y       z     vdW  Elec       q    Type
REMARK                         _______ _______ _______ _____ _____    ______ ____
ROOT
ATOM      1  S   UNL     1       2.581   3.019  18.107  0.00  0.00    +0.000 S 
ATOM      2  O   UNL     1       1.943   1.982  18.885  0.00  0.00    +0.000 OA
ATOM      3  O   UNL     1       2.226   3.273  16.727  0.00  0.00    +0.000 OA
ENDROOT
BRANCH   1   6
ATOM      4  C   UNL     1       2.413   7.003  18.974  0.00  0.00    +0.000 A 
ATOM      5  C   UNL     1       2.662   5.772  18.339  0.00  0.00    +0.000 A 
ATOM      6  C   UNL     1       2.387   4.559  18.983  0.00  0.00    +0.000 A 
ATOM      7  C   UNL     1       1.843   4.553  20.264  0.00  0.00    +0.000 A 
ATOM      8  C   UNL     1       1.587   5.770  20.899  0.00  0.00    +0.000 A 
ATOM      9  C   UNL     1       1.857   6.994  20.261  0.00  0.00    +0.000 A 
ATOM     10 BR   UNL     1       1.290   8.522  21.237  0.00  0.00    +0.000 Br
BRANCH   4  12
ATOM     11  C   UNL     1       1.597   8.923  17.792  0.00  0.00    +0.000 C 
ATOM     12  O   UNL     1       2.673   8.072  18.161  0.00  0.00    +0.000 OA
ENDBRANCH   4  12
ENDBRANCH   1   6
BRANCH   1  13
ATOM     13  N   UNL     1       4.255   2.784  18.150  0.00  0.00    +0.000 NA
ATOM     14  H   UNL     1       4.641   2.631  17.219  0.00  0.00    +0.000 HD
BRANCH  13  15
ATOM     15  C   UNL     1       5.017   3.765  18.937  0.00  0.00    +0.000 C 
BRANCH  15  16
ATOM     16  C   UNL     1       5.873   4.642  18.058  0.00  0.00    +0.000 A 
ATOM     17  C   UNL     1       6.634   5.678  18.607  0.00  0.00    +0.000 A 
ATOM     18  C   UNL     1       7.429   6.442  17.764  0.00  0.00    +0.000 A 
ATOM     19  N   UNL     1       7.515   6.245  16.432  0.00  0.00    +0.000 NA
ATOM     20  C   UNL     1       6.778   5.237  15.919  0.00  0.00    +0.000 A 
ATOM     21  C   UNL     1       5.954   4.421  16.678  0.00  0.00    +0.000 A 
ENDBRANCH  15  16
ENDBRANCH  13  15
ENDBRANCH   1  13
TORSDOF 5
ENDMDL
MODEL 4
REMARK VINA RESULT:      -6.5      1.354      1.618
REMARK  Name = 
REMARK  6 active torsions:
REMARK  status: ('A' for Active; 'I' for Inactive)
REMARK    1  A    between atoms: C_1  and  O_2
REMARK    2  A    between atoms: O_2  and  C_3
REMARK    3  A    between atoms: C_5  and  S_6
REMARK    4  A    between atoms: S_6  and  N_9
REMARK    5  A    between atoms: N_9  and  C_10
REMARK    6  A    between atoms: C_10  and  C_11
REMARK                            x       y       z     vdW  Elec       q    Type
REMARK                         _______ _______ _______ _____ _____    ______ ____
ROOT
ATOM      1  S   UNL     1       2.626   2.850  18.226  0.00  0.00    +0.000 S 
ATOM      2  O   UNL     1       2.081   1.810  19.069  0.00  0.00    +0.000 OA
ATOM      3  O   UNL     1       2.189   3.038  16.859  0.00  0.00    +0.000 OA
ENDROOT
BRANCH   1   6
ATOM      4  C   UNL     1       2.403   6.851  18.994  0.00  0.00    +0.000 A 
ATOM      5  C   UNL     1       2.677   5.608  18.393  0.00  0.00    +0.000 A 
ATOM      6  C   UNL     1       2.399   4.408  19.060  0.00  0.00    +0.000 A 
ATOM      7  C   UNL     1       1.827   4.426  20.329  0.00  0.00    +0.000 A 
ATOM      8  C   UNL     1       1.547   5.655  20.930  0.00  0.00    +0.000 A 
ATOM      9  C   UNL     1       1.819   6.867  20.269  0.00  0.00    +0.000 A 
ATOM     10 BR   UNL     1       1.218   8.412  21.196  0.00  0.00    +0.000 Br
BRANCH   4  12
ATOM     11  C   UNL     1       3.780   7.808  17.280  0.00  0.00    +0.000 C 
ATOM     12  O   UNL     1       2.670   7.903  18.161  0.00  0.00    +0.000 OA
ENDBRANCH   4  12
ENDBRANCH   1   6
BRANCH   1  13
ATOM     13  N   UNL     1       4.309   2.698  18.188  0.00  0.00    +0.000 NA
ATOM     14  H   UNL     1       4.663   2.627  17.235  0.00  0.00    +0.000 HD
BRANCH  13  15
ATOM     15  C   UNL     1       5.055   3.663  19.009  0.00  0.00    +0.000 C 
BRANCH  15  16
ATOM     16  C   UNL     1       5.907   4.576  18.164  0.00  0.00    +0.000 A 
ATOM     17  C   UNL     1       5.929   4.447  16.772  0.00  0.00    +0.000 A 
ATOM     18  C   UNL     1       6.705   5.326  16.032  0.00  0.00    +0.000 A 
ATOM     19  N   UNL     1       7.449   6.311  16.577  0.00  0.00    +0.000 NA
ATOM     20  C   UNL     1       7.413   6.426  17.921  0.00  0.00    +0.000 A 
ATOM     21  C   UNL     1       6.670   5.595  18.745  0.00  0.00    +0.000 A 
ENDBRANCH  15  16
ENDBRANCH  13  15
ENDBRANCH   1  13
TORSDOF 5
ENDMDL
MODEL 5
REMARK VINA RESULT:      -6.4      2.897      5.035
REMARK  Name = 
REMARK  6 active torsions:
REMARK  status: ('A' for Active; 'I' for Inactive)
REMARK    1  A    between atoms: C_1  and  O_2
REMARK    2  A    between atoms: O_2  and  C_3
REMARK    3  A    between atoms: C_5  and  S_6
REMARK    4  A    between atoms: S_6  and  N_9
REMARK    5  A    between atoms: N_9  and  C_10
REMARK    6  A    between atoms: C_10  and  C_11
REMARK                            x       y       z     vdW  Elec       q    Type
REMARK                         _______ _______ _______ _____ _____    ______ ____
ROOT
ATOM      1  S   UNL     1       4.102   2.532  19.219  0.00  0.00    +0.000 S 
ATOM      2  O   UNL     1       3.383   1.989  18.088  0.00  0.00    +0.000 OA
ATOM      3  O   UNL     1       4.918   1.703  20.080  0.00  0.00    +0.000 OA
ENDROOT
BRANCH   1   6
ATOM      4  C   UNL     1       5.949   5.222  16.771  0.00  0.00    +0.000 A 
ATOM      5  C   UNL     1       5.217   4.122  17.253  0.00  0.00    +0.000 A 
ATOM      6  C   UNL     1       5.147   3.847  18.625  0.00  0.00    +0.000 A 
ATOM      7  C   UNL     1       5.790   4.675  19.540  0.00  0.00    +0.000 A 
ATOM      8  C   UNL     1       6.514   5.773  19.070  0.00  0.00    +0.000 A 
ATOM      9  C   UNL     1       6.590   6.060  17.695  0.00  0.00    +0.000 A 
ATOM     10 BR   UNL     1       7.491   7.682  17.286  0.00  0.00    +0.000 Br
BRANCH   4  12
ATOM     11  C   UNL     1       6.835   4.794  14.584  0.00  0.00    +0.000 C 
ATOM     12  O   UNL     1       5.838   5.370  15.415  0.00  0.00    +0.000 OA
ENDBRANCH   4  12
ENDBRANCH   1   6
BRANCH   1  13
ATOM     13  N   UNL     1       3.012   3.354  20.216  0.00  0.00    +0.000 NA
ATOM     14  H   UNL     1       3.486   4.006  20.840  0.00  0.00    +0.000 HD
BRANCH  13  15
ATOM     15  C   UNL     1       1.850   3.948  19.537  0.00  0.00    +0.000 C 
BRANCH  15  16
ATOM     16  C   UNL     1       1.974   5.446  19.424  0.00  0.00    +0.000 A 
ATOM     17  C   UNL     1       2.338   6.044  18.215  0.00  0.00    +0.000 A 
ATOM     18  C   UNL     1       2.412   7.428  18.148  0.00  0.00    +0.000 A 
ATOM     19  N   UNL     1       2.152   8.243  19.191  0.00  0.00    +0.000 NA
ATOM     20  C   UNL     1       1.797   7.651  20.351  0.00  0.00    +0.000 A 
ATOM     21  C   UNL     1       1.696   6.278  20.515  0.00  0.00    +0.000 A 
ENDBRANCH  15  16
ENDBRANCH  13  15
ENDBRANCH   1  13
TORSDOF 5
ENDMDL
MODEL 6
REMARK VINA RESULT:      -6.4      1.440      1.844
REMARK  Name = 
REMARK  6 active torsions:
REMARK  status: ('A' for Active; 'I' for Inactive)
REMARK    1  A    between atoms: C_1  and  O_2
REMARK    2  A    between atoms: O_2  and  C_3
REMARK    3  A    between atoms: C_5  and  S_6
REMARK    4  A    between atoms: S_6  and  N_9
REMARK    5  A    between atoms: N_9  and  C_10
REMARK    6  A    between atoms: C_10  and  C_11
REMARK                            x       y       z     vdW  Elec       q    Type
REMARK                         _______ _______ _______ _____ _____    ______ ____
ROOT
ATOM      1  S   UNL     1       2.410   3.376  18.705  0.00  0.00    +0.000 S 
ATOM      2  O   UNL     1       2.309   2.414  19.779  0.00  0.00    +0.000 OA
ATOM      3  O   UNL     1       1.556   3.316  17.537  0.00  0.00    +0.000 OA
ENDROOT
BRANCH   1   6
ATOM      4  C   UNL     1       2.323   7.431  19.148  0.00  0.00    +0.000 A 
ATOM      5  C   UNL     1       2.568   6.135  18.658  0.00  0.00    +0.000 A 
ATOM      6  C   UNL     1       2.216   5.003  19.405  0.00  0.00    +0.000 A 
ATOM      7  C   UNL     1       1.596   5.144  20.643  0.00  0.00    +0.000 A 
ATOM      8  C   UNL     1       1.343   6.427  21.133  0.00  0.00    +0.000 A 
ATOM      9  C   UNL     1       1.691   7.570  20.392  0.00  0.00    +0.000 A 
ATOM     10 BR   UNL     1       1.118   9.206  21.170  0.00  0.00    +0.000 Br
BRANCH   4  12
ATOM     11  C   UNL     1       1.637   9.215  17.700  0.00  0.00    +0.000 C 
ATOM     12  O   UNL     1       2.666   8.403  18.247  0.00  0.00    +0.000 OA
ENDBRANCH   4  12
ENDBRANCH   1   6
BRANCH   1  13
ATOM     13  N   UNL     1       4.006   3.407  18.147  0.00  0.00    +0.000 NA
ATOM     14  H   UNL     1       4.582   2.700  18.604  0.00  0.00    +0.000 HD
BRANCH  13  15
ATOM     15  C   UNL     1       4.171   3.428  16.686  0.00  0.00    +0.000 C 
BRANCH  15  16
ATOM     16  C   UNL     1       5.372   4.240  16.270  0.00  0.00    +0.000 A 
ATOM     17  C   UNL     1       5.958   4.057  15.016  0.00  0.00    +0.000 A 
ATOM     18  C   UNL     1       7.045   4.845  14.664  0.00  0.00    +0.000 A 
ATOM     19  N   UNL     1       7.577   5.789  15.468  0.00  0.00    +0.000 NA
ATOM     20  C   UNL     1       6.995   5.957  16.674  0.00  0.00    +0.000 A 
ATOM     21  C   UNL     1       5.908   5.219  17.115  0.00  0.00    +0.000 A 
ENDBRANCH  15  16
ENDBRANCH  13  15
ENDBRANCH   1  13
TORSDOF 5
ENDMDL
MODEL 7
REMARK VINA RESULT:      -6.3      3.271      4.902
REMARK  Name = 
REMARK  6 active torsions:
REMARK  status: ('A' for Active; 'I' for Inactive)
REMARK    1  A    between atoms: C_1  and  O_2
REMARK    2  A    between atoms: O_2  and  C_3
REMARK    3  A    between atoms: C_5  and  S_6
REMARK    4  A    between atoms: S_6  and  N_9
REMARK    5  A    between atoms: N_9  and  C_10
REMARK    6  A    between atoms: C_10  and  C_11
REMARK                            x       y       z     vdW  Elec       q    Type
REMARK                         _______ _______ _______ _____ _____    ______ ____
ROOT
ATOM      1  S   UNL     1       7.404   5.459  17.973  0.00  0.00    +0.000 S 
ATOM      2  O   UNL     1       7.914   6.561  18.757  0.00  0.00    +0.000 OA
ATOM      3  O   UNL     1       8.089   4.185  17.903  0.00  0.00    +0.000 OA
ENDROOT
BRANCH   1   6
ATOM      4  C   UNL     1       4.074   3.531  19.330  0.00  0.00    +0.000 A 
ATOM      5  C   UNL     1       5.347   3.808  18.797  0.00  0.00    +0.000 A 
ATOM      6  C   UNL     1       5.741   5.123  18.516  0.00  0.00    +0.000 A 
ATOM      7  C   UNL     1       4.880   6.184  18.778  0.00  0.00    +0.000 A 
ATOM      8  C   UNL     1       3.618   5.919  19.313  0.00  0.00    +0.000 A 
ATOM      9  C   UNL     1       3.212   4.603  19.600  0.00  0.00    +0.000 A 
ATOM     10 BR   UNL     1       1.524   4.481  20.464  0.00  0.00    +0.000 Br
BRANCH   4  12
ATOM     11  C   UNL     1       3.470   1.341  18.562  0.00  0.00    +0.000 C 
ATOM     12  O   UNL     1       3.901   2.202  19.606  0.00  0.00    +0.000 OA
ENDBRANCH   4  12
ENDBRANCH   1   6
BRANCH   1  13
ATOM     13  N   UNL     1       7.171   5.980  16.383  0.00  0.00    +0.000 NA
ATOM     14  H   UNL     1       8.026   5.915  15.832  0.00  0.00    +0.000 HD
BRANCH  13  15
ATOM     15  C   UNL     1       5.998   5.422  15.694  0.00  0.00    +0.000 C 
BRANCH  15  16
ATOM     16  C   UNL     1       6.361   4.845  14.349  0.00  0.00    +0.000 A 
ATOM     17  C   UNL     1       5.577   3.848  13.763  0.00  0.00    +0.000 A 
ATOM     18  C   UNL     1       5.933   3.366  12.511  0.00  0.00    +0.000 A 
ATOM     19  N   UNL     1       7.002   3.806  11.816  0.00  0.00    +0.000 NA
ATOM     20  C   UNL     1       7.747   4.772  12.393  0.00  0.00    +0.000 A 
ATOM     21  C   UNL     1       7.472   5.316  13.638  0.00  0.00    +0.000 A 
ENDBRANCH  15  16
ENDBRANCH  13  15
ENDBRANCH   1  13
TORSDOF 5
ENDMDL
MODEL 8
REMARK VINA RESULT:      -6.3      2.809      4.770
REMARK  Name = 
REMARK  6 active torsions:
REMARK  status: ('A' for Active; 'I' for Inactive)
REMARK    1  A    between atoms: C_1  and  O_2
REMARK    2  A    between atoms: O_2  and  C_3
REMARK    3  A    between atoms: C_5  and  S_6
REMARK    4  A    between atoms: S_6  and  N_9
REMARK    5  A    between atoms: N_9  and  C_10
REMARK    6  A    between atoms: C_10  and  C_11
REMARK                            x       y       z     vdW  Elec       q    Type
REMARK                         _______ _______ _______ _____ _____    ______ ____
ROOT
ATOM      1  S   UNL     1       5.943   4.783  18.551  0.00  0.00    +0.000 S 
ATOM      2  O   UNL     1       6.815   4.955  17.412  0.00  0.00    +0.000 OA
ATOM      3  O   UNL     1       6.419   4.922  19.911  0.00  0.00    +0.000 OA
ENDROOT
BRANCH   1   6
ATOM      4  C   UNL     1       2.547   6.923  19.282  0.00  0.00    +0.000 A 
ATOM      5  C   UNL     1       3.580   5.970  19.354  0.00  0.00    +0.000 A 
ATOM      6  C   UNL     1       4.571   5.904  18.366  0.00  0.00    +0.000 A 
ATOM      7  C   UNL     1       4.559   6.799  17.300  0.00  0.00    +0.000 A 
ATOM      8  C   UNL     1       3.541   7.752  17.224  0.00  0.00    +0.000 A 
ATOM      9  C   UNL     1       2.542   7.828  18.211  0.00  0.00    +0.000 A 
ATOM     10 BR   UNL     1       1.349   9.292  18.000  0.00  0.00    +0.000 Br
BRANCH   4  12
ATOM     11  C   UNL     1       1.498   8.079  21.102  0.00  0.00    +0.000 C 
ATOM     12  O   UNL     1       1.721   6.881  20.372  0.00  0.00    +0.000 OA
ENDBRANCH   4  12
ENDBRANCH   1   6
BRANCH   1  13
ATOM     13  N   UNL     1       5.195   3.271  18.443  0.00  0.00    +0.000 NA
ATOM     14  H   UNL     1       5.733   2.621  17.871  0.00  0.00    +0.000 HD
BRANCH  13  15
ATOM     15  C   UNL     1       4.753   2.685  19.718  0.00  0.00    +0.000 C 
BRANCH  15  16
ATOM     16  C   UNL     1       3.250   2.688  19.843  0.00  0.00    +0.000 A 
ATOM     17  C   UNL     1       2.637   2.859  21.087  0.00  0.00    +0.000 A 
ATOM     18  C   UNL     1       1.251   2.883  21.152  0.00  0.00    +0.000 A 
ATOM     19  N   UNL     1       0.449   2.750  20.076  0.00  0.00    +0.000 NA
ATOM     20  C   UNL     1       1.056   2.592  18.881  0.00  0.00    +0.000 A 
ATOM     21  C   UNL     1       2.432   2.554  18.715  0.00  0.00    +0.000 A 
ENDBRANCH  15  16
ENDBRANCH  13  15
ENDBRANCH   1  13
TORSDOF 5
ENDMDL
MODEL 9
REMARK VINA RESULT:      -6.3      3.357      5.708
REMARK  Name = 
REMARK  6 active torsions:
REMARK  status: ('A' for Active; 'I' for Inactive)
REMARK    1  A    between atoms: C_1  and  O_2
REMARK    2  A    between atoms: O_2  and  C_3
REMARK    3  A    between atoms: C_5  and  S_6
REMARK    4  A    between atoms: S_6  and  N_9
REMARK    5  A    between atoms: N_9  and  C_10
REMARK    6  A    between atoms: C_10  and  C_11
REMARK                            x       y       z     vdW  Elec       q    Type
REMARK                         _______ _______ _______ _____ _____    ______ ____
ROOT
ATOM      1  S   UNL     1       2.861   4.677  19.330  0.00  0.00    +0.000 S 
ATOM      2  O   UNL     1       1.494   4.555  18.874  0.00  0.00    +0.000 OA
ATOM      3  O   UNL     1       3.479   3.682  20.180  0.00  0.00    +0.000 OA
ENDROOT
BRANCH   1   6
ATOM      4  C   UNL     1       5.607   6.106  16.672  0.00  0.00    +0.000 A 
ATOM      5  C   UNL     1       4.697   5.996  17.739  0.00  0.00    +0.000 A 
ATOM      6  C   UNL     1       3.903   4.851  17.895  0.00  0.00    +0.000 A 
ATOM      7  C   UNL     1       4.018   3.791  17.001  0.00  0.00    +0.000 A 
ATOM      8  C   UNL     1       4.923   3.890  15.943  0.00  0.00    +0.000 A 
ATOM      9  C   UNL     1       5.726   5.033  15.777  0.00  0.00    +0.000 A 
ATOM     10 BR   UNL     1       6.996   4.896  14.370  0.00  0.00    +0.000 Br
BRANCH   4  12
ATOM     11  C   UNL     1       7.501   7.285  17.553  0.00  0.00    +0.000 C 
ATOM     12  O   UNL     1       6.343   7.258  16.731  0.00  0.00    +0.000 OA
ENDBRANCH   4  12
ENDBRANCH   1   6
BRANCH   1  13
ATOM     13  N   UNL     1       3.048   6.170  20.101  0.00  0.00    +0.000 NA
ATOM     14  H   UNL     1       3.673   6.789  19.584  0.00  0.00    +0.000 HD
BRANCH  13  15
ATOM     15  C   UNL     1       1.805   6.830  20.524  0.00  0.00    +0.000 C 
BRANCH  15  16
ATOM     16  C   UNL     1       1.600   8.145  19.815  0.00  0.00    +0.000 A 
ATOM     17  C   UNL     1       0.971   9.214  20.460  0.00  0.00    +0.000 A 
ATOM     18  C   UNL     1       0.829  10.415  19.779  0.00  0.00    +0.000 A 
ATOM     19  N   UNL     1       1.266  10.618  18.518  0.00  0.00    +0.000 NA
ATOM     20  C   UNL     1       1.875   9.577  17.912  0.00  0.00    +0.000 A 
ATOM     21  C   UNL     1       2.063   8.340  18.509  0.00  0.00    +0.000 A 
ENDBRANCH  15  16
ENDBRANCH  13  15
ENDBRANCH   1  13
TORSDOF 5
ENDMDL
