MODEL 1
REMARK VINA RESULT:      -7.5      0.000      0.000
REMARK  Name = 
REMARK  4 active torsions:
REMARK  status: ('A' for Active; 'I' for Inactive)
REMARK    1  A    between atoms: C_2  and  O_3
REMARK    2  A    between atoms: C_2  and  C_4
REMARK    3  A    between atoms: C_8  and  C_9
REMARK    4  A    between atoms: C_14  and  O_15
REMARK                            x       y       z     vdW  Elec       q    Type
REMARK                         _______ _______ _______ _____ _____    ______ ____
ROOT
ATOM      1  C   UNL     1       6.520   4.464  15.859  0.00  0.00    +0.000 A 
ATOM      2  C   UNL     1       7.419   4.874  16.842  0.00  0.00    +0.000 A 
ATOM      3  C   UNL     1       7.029   4.858  18.177  0.00  0.00    +0.000 A 
ATOM      4  C   UNL     1       5.740   4.435  18.527  0.00  0.00    +0.000 A 
ATOM      5  C   UNL     1       4.822   3.979  17.559  0.00  0.00    +0.000 A 
ATOM      6  C   UNL     1       5.254   3.983  16.222  0.00  0.00    +0.000 A 
ENDROOT
BRANCH   5   7
ATOM      7  C   UNL     1       3.475   3.465  17.927  0.00  0.00    +0.000 A 
ATOM      8  C   UNL     1       2.357   4.323  17.880  0.00  0.00    +0.000 A 
ATOM      9  C   UNL     1       1.083   3.900  18.273  0.00  0.00    +0.000 A 
ATOM     10  C   UNL     1       0.892   2.605  18.739  0.00  0.00    +0.000 A 
ATOM     11  C   UNL     1       1.969   1.724  18.789  0.00  0.00    +0.000 A 
ATOM     12  C   UNL     1       3.239   2.147  18.378  0.00  0.00    +0.000 A 
BRANCH  12  13
ATOM     13  O   UNL     1       4.266   1.235  18.419  0.00  0.00    +0.000 OA
ATOM     14  H   UNL     1       3.886   0.347  18.535  0.00  0.00    +0.000 HD
ENDBRANCH  12  13
ENDBRANCH   5   7
BRANCH   1  16
ATOM     15  O   UNL     1       7.672   5.368  13.986  0.00  0.00    +0.000 OA
ATOM     16  C   UNL     1       6.936   4.505  14.440  0.00  0.00    +0.000 C 
BRANCH  16  17
ATOM     17  O   UNL     1       6.382   3.530  13.686  0.00  0.00    +0.000 OA
ATOM     18  H   UNL     1       6.707   2.629  13.887  0.00  0.00    +0.000 HD
ENDBRANCH  16  17
ENDBRANCH   1  16
TORSDOF 4
ENDMDL
MODEL 2
REMARK VINA RESULT:      -7.3      2.135      2.782
REMARK  Name = 
REMARK  4 active torsions:
REMARK  status: ('A' for Active; 'I' for Inactive)
REMARK    1  A    between atoms: C_2  and  O_3
REMARK    2  A    between atoms: C_2  and  C_4
REMARK    3  A    between atoms: C_8  and  C_9
REMARK    4  A    between atoms: C_14  and  O_15
REMARK                            x       y       z     vdW  Elec       q    Type
REMARK                         _______ _______ _______ _____ _____    ______ ____
ROOT
ATOM      1  C   UNL     1       6.989   5.386  17.995  0.00  0.00    +0.000 A 
ATOM      2  C   UNL     1       7.356   5.218  16.661  0.00  0.00    +0.000 A 
ATOM      3  C   UNL     1       6.538   4.477  15.814  0.00  0.00    +0.000 A 
ATOM      4  C   UNL     1       5.358   3.903  16.303  0.00  0.00    +0.000 A 
ATOM      5  C   UNL     1       4.942   4.086  17.637  0.00  0.00    +0.000 A 
ATOM      6  C   UNL     1       5.776   4.861  18.461  0.00  0.00    +0.000 A 
ENDROOT
BRANCH   5   7
ATOM      7  C   UNL     1       3.657   3.536  18.148  0.00  0.00    +0.000 A 
ATOM      8  C   UNL     1       2.433   4.066  17.694  0.00  0.00    +0.000 A 
ATOM      9  C   UNL     1       1.204   3.620  18.192  0.00  0.00    +0.000 A 
ATOM     10  C   UNL     1       1.165   2.634  19.171  0.00  0.00    +0.000 A 
ATOM     11  C   UNL     1       2.353   2.077  19.636  0.00  0.00    +0.000 A 
ATOM     12  C   UNL     1       3.580   2.515  19.123  0.00  0.00    +0.000 A 
BRANCH  12  13
ATOM     13  O   UNL     1       4.725   1.916  19.591  0.00  0.00    +0.000 OA
ATOM     14  H   UNL     1       4.480   1.088  20.037  0.00  0.00    +0.000 HD
ENDBRANCH  12  13
ENDBRANCH   5   7
BRANCH   1  16
ATOM     15  O   UNL     1       8.288   7.275  18.625  0.00  0.00    +0.000 OA
ATOM     16  C   UNL     1       7.876   6.158  18.894  0.00  0.00    +0.000 C 
BRANCH  16  17
ATOM     17  O   UNL     1       8.228   5.485  20.012  0.00  0.00    +0.000 OA
ATOM     18  H   UNL     1       9.047   4.957  19.926  0.00  0.00    +0.000 HD
ENDBRANCH  16  17
ENDBRANCH   1  16
TORSDOF 4
ENDMDL
MODEL 3
REMARK VINA RESULT:      -7.3      2.369      2.727
REMARK  Name = 
REMARK  4 active torsions:
REMARK  status: ('A' for Active; 'I' for Inactive)
REMARK    1  A    between atoms: C_2  and  O_3
REMARK    2  A    between atoms: C_2  and  C_4
REMARK    3  A    between atoms: C_8  and  C_9
REMARK    4  A    between atoms: C_14  and  O_15
REMARK                            x       y       z     vdW  Elec       q    Type
REMARK                         _______ _______ _______ _____ _____    ______ ____
ROOT
ATOM      1  C   UNL     1       5.823   5.307  17.193  0.00  0.00    +0.000 A 
ATOM      2  C   UNL     1       5.540   6.610  16.789  0.00  0.00    +0.000 A 
ATOM      3  C   UNL     1       4.330   7.193  17.152  0.00  0.00    +0.000 A 
ATOM      4  C   UNL     1       3.403   6.469  17.915  0.00  0.00    +0.000 A 
ATOM      5  C   UNL     1       3.677   5.164  18.369  0.00  0.00    +0.000 A 
ATOM      6  C   UNL     1       4.918   4.612  18.007  0.00  0.00    +0.000 A 
ENDROOT
BRANCH   5   7
ATOM      7  C   UNL     1       2.728   4.412  19.235  0.00  0.00    +0.000 A 
ATOM      8  C   UNL     1       2.913   4.392  20.632  0.00  0.00    +0.000 A 
ATOM      9  C   UNL     1       2.081   3.651  21.477  0.00  0.00    +0.000 A 
ATOM     10  C   UNL     1       1.042   2.895  20.946  0.00  0.00    +0.000 A 
ATOM     11  C   UNL     1       0.820   2.899  19.572  0.00  0.00    +0.000 A 
ATOM     12  C   UNL     1       1.646   3.656  18.731  0.00  0.00    +0.000 A 
BRANCH  12  13
ATOM     13  O   UNL     1       1.370   3.651  17.385  0.00  0.00    +0.000 OA
ATOM     14  H   UNL     1       0.477   4.010  17.250  0.00  0.00    +0.000 HD
ENDBRANCH  12  13
ENDBRANCH   5   7
BRANCH   1  16
ATOM     15  O   UNL     1       7.516   4.710  15.635  0.00  0.00    +0.000 OA
ATOM     16  C   UNL     1       7.103   4.688  16.783  0.00  0.00    +0.000 C 
BRANCH  16  17
ATOM     17  O   UNL     1       7.742   4.054  17.791  0.00  0.00    +0.000 OA
ATOM     18  H   UNL     1       7.685   4.508  18.656  0.00  0.00    +0.000 HD
ENDBRANCH  16  17
ENDBRANCH   1  16
TORSDOF 4
ENDMDL
MODEL 4
REMARK VINA RESULT:      -7.3      2.333      2.866
REMARK  Name = 
REMARK  4 active torsions:
REMARK  status: ('A' for Active; 'I' for Inactive)
REMARK    1  A    between atoms: C_2  and  O_3
REMARK    2  A    between atoms: C_2  and  C_4
REMARK    3  A    between atoms: C_8  and  C_9
REMARK    4  A    between atoms: C_14  and  O_15
REMARK                            x       y       z     vdW  Elec       q    Type
REMARK                         _______ _______ _______ _____ _____    ______ ____
ROOT
ATOM      1  C   UNL     1       6.456   5.903  17.484  0.00  0.00    +0.000 A 
ATOM      2  C   UNL     1       6.397   5.406  16.184  0.00  0.00    +0.000 A 
ATOM      3  C   UNL     1       5.435   4.456  15.857  0.00  0.00    +0.000 A 
ATOM      4  C   UNL     1       4.537   4.002  16.832  0.00  0.00    +0.000 A 
ATOM      5  C   UNL     1       4.549   4.513  18.145  0.00  0.00    +0.000 A 
ATOM      6  C   UNL     1       5.516   5.490  18.438  0.00  0.00    +0.000 A 
ENDROOT
BRANCH   5   7
ATOM      7  C   UNL     1       3.558   4.085  19.170  0.00  0.00    +0.000 A 
ATOM      8  C   UNL     1       2.370   4.822  19.351  0.00  0.00    +0.000 A 
ATOM      9  C   UNL     1       1.439   4.491  20.342  0.00  0.00    +0.000 A 
ATOM     10  C   UNL     1       1.676   3.416  21.191  0.00  0.00    +0.000 A 
ATOM     11  C   UNL     1       2.832   2.657  21.034  0.00  0.00    +0.000 A 
ATOM     12  C   UNL     1       3.753   2.982  20.030  0.00  0.00    +0.000 A 
BRANCH  12  13
ATOM     13  O   UNL     1       4.866   2.186  19.896  0.00  0.00    +0.000 OA
ATOM     14  H   UNL     1       5.194   1.961  20.782  0.00  0.00    +0.000 HD
ENDBRANCH  12  13
ENDBRANCH   5   7
BRANCH   1  16
ATOM     15  O   UNL     1       7.775   7.846  17.110  0.00  0.00    +0.000 OA
ATOM     16  C   UNL     1       7.497   6.898  17.828  0.00  0.00    +0.000 C 
BRANCH  16  17
ATOM     17  O   UNL     1       8.143   6.626  18.983  0.00  0.00    +0.000 OA
ATOM     18  H   UNL     1       7.838   5.813  19.436  0.00  0.00    +0.000 HD
ENDBRANCH  16  17
ENDBRANCH   1  16
TORSDOF 4
ENDMDL
MODEL 5
REMARK VINA RESULT:      -7.3      1.465      1.605
REMARK  Name = 
REMARK  4 active torsions:
REMARK  status: ('A' for Active; 'I' for Inactive)
REMARK    1  A    between atoms: C_2  and  O_3
REMARK    2  A    between atoms: C_2  and  C_4
REMARK    3  A    between atoms: C_8  and  C_9
REMARK    4  A    between atoms: C_14  and  O_15
REMARK                            x       y       z     vdW  Elec       q    Type
REMARK                         _______ _______ _______ _____ _____    ______ ____
ROOT
ATOM      1  C   UNL     1       5.757   5.182  15.593  0.00  0.00    +0.000 A 
ATOM      2  C   UNL     1       5.690   6.553  15.836  0.00  0.00    +0.000 A 
ATOM      3  C   UNL     1       4.802   7.036  16.792  0.00  0.00    +0.000 A 
ATOM      4  C   UNL     1       3.980   6.149  17.499  0.00  0.00    +0.000 A 
ATOM      5  C   UNL     1       4.052   4.755  17.301  0.00  0.00    +0.000 A 
ATOM      6  C   UNL     1       4.976   4.296  16.347  0.00  0.00    +0.000 A 
ENDROOT
BRANCH   5   7
ATOM      7  C   UNL     1       3.230   3.800  18.093  0.00  0.00    +0.000 A 
ATOM      8  C   UNL     1       1.851   3.671  17.832  0.00  0.00    +0.000 A 
ATOM      9  C   UNL     1       1.030   2.831  18.591  0.00  0.00    +0.000 A 
ATOM     10  C   UNL     1       1.565   2.100  19.645  0.00  0.00    +0.000 A 
ATOM     11  C   UNL     1       2.925   2.191  19.926  0.00  0.00    +0.000 A 
ATOM     12  C   UNL     1       3.746   3.022  19.154  0.00  0.00    +0.000 A 
BRANCH  12  13
ATOM     13  O   UNL     1       5.087   3.057  19.451  0.00  0.00    +0.000 OA
ATOM     14  H   UNL     1       5.586   2.773  18.666  0.00  0.00    +0.000 HD
ENDBRANCH  12  13
ENDBRANCH   5   7
BRANCH   1  16
ATOM     15  O   UNL     1       7.654   5.316  14.166  0.00  0.00    +0.000 OA
ATOM     16  C   UNL     1       6.689   4.679  14.559  0.00  0.00    +0.000 C 
BRANCH  16  17
ATOM     17  O   UNL     1       6.338   3.474  14.057  0.00  0.00    +0.000 OA
ATOM     18  H   UNL     1       6.592   2.713  14.617  0.00  0.00    +0.000 HD
ENDBRANCH  16  17
ENDBRANCH   1  16
TORSDOF 4
ENDMDL
MODEL 6
REMARK VINA RESULT:      -7.3      2.463      2.994
REMARK  Name = 
REMARK  4 active torsions:
REMARK  status: ('A' for Active; 'I' for Inactive)
REMARK    1  A    between atoms: C_2  and  O_3
REMARK    2  A    between atoms: C_2  and  C_4
REMARK    3  A    between atoms: C_8  and  C_9
REMARK    4  A    between atoms: C_14  and  O_15
REMARK                            x       y       z     vdW  Elec       q    Type
REMARK                         _______ _______ _______ _____ _____    ______ ____
ROOT
ATOM      1  C   UNL     1       6.362   5.384  18.090  0.00  0.00    +0.000 A 
ATOM      2  C   UNL     1       6.195   6.496  17.266  0.00  0.00    +0.000 A 
ATOM      3  C   UNL     1       4.911   6.918  16.938  0.00  0.00    +0.000 A 
ATOM      4  C   UNL     1       3.796   6.226  17.431  0.00  0.00    +0.000 A 
ATOM      5  C   UNL     1       3.933   5.122  18.295  0.00  0.00    +0.000 A 
ATOM      6  C   UNL     1       5.243   4.735  18.629  0.00  0.00    +0.000 A 
ENDROOT
BRANCH   5   7
ATOM      7  C   UNL     1       2.756   4.421  18.876  0.00  0.00    +0.000 A 
ATOM      8  C   UNL     1       2.358   4.692  20.202  0.00  0.00    +0.000 A 
ATOM      9  C   UNL     1       1.295   4.014  20.807  0.00  0.00    +0.000 A 
ATOM     10  C   UNL     1       0.604   3.033  20.106  0.00  0.00    +0.000 A 
ATOM     11  C   UNL     1       0.959   2.746  18.791  0.00  0.00    +0.000 A 
ATOM     12  C   UNL     1       2.013   3.439  18.183  0.00  0.00    +0.000 A 
BRANCH  12  13
ATOM     13  O   UNL     1       2.309   3.141  16.875  0.00  0.00    +0.000 OA
ATOM     14  H   UNL     1       3.260   3.284  16.733  0.00  0.00    +0.000 HD
ENDBRANCH  12  13
ENDBRANCH   5   7
BRANCH   1  16
ATOM     15  O   UNL     1       8.358   4.149  17.717  0.00  0.00    +0.000 OA
ATOM     16  C   UNL     1       7.732   4.929  18.416  0.00  0.00    +0.000 C 
BRANCH  16  17
ATOM     17  O   UNL     1       8.198   5.418  19.587  0.00  0.00    +0.000 OA
ATOM     18  H   UNL     1       8.630   4.753  20.160  0.00  0.00    +0.000 HD
ENDBRANCH  16  17
ENDBRANCH   1  16
TORSDOF 4
ENDMDL
MODEL 7
REMARK VINA RESULT:      -7.3      2.938      6.058
REMARK  Name = 
REMARK  4 active torsions:
REMARK  status: ('A' for Active; 'I' for Inactive)
REMARK    1  A    between atoms: C_2  and  O_3
REMARK    2  A    between atoms: C_2  and  C_4
REMARK    3  A    between atoms: C_8  and  C_9
REMARK    4  A    between atoms: C_14  and  O_15
REMARK                            x       y       z     vdW  Elec       q    Type
REMARK                         _______ _______ _______ _____ _____    ______ ____
ROOT
ATOM      1  C   UNL     1       2.335   4.403  20.535  0.00  0.00    +0.000 A 
ATOM      2  C   UNL     1       1.704   5.643  20.608  0.00  0.00    +0.000 A 
ATOM      3  C   UNL     1       2.183   6.702  19.844  0.00  0.00    +0.000 A 
ATOM      4  C   UNL     1       3.296   6.519  19.012  0.00  0.00    +0.000 A 
ATOM      5  C   UNL     1       3.932   5.268  18.890  0.00  0.00    +0.000 A 
ATOM      6  C   UNL     1       3.408   4.211  19.654  0.00  0.00    +0.000 A 
ENDROOT
BRANCH   5   7
ATOM      7  C   UNL     1       5.073   5.048  17.959  0.00  0.00    +0.000 A 
ATOM      8  C   UNL     1       4.832   4.841  16.586  0.00  0.00    +0.000 A 
ATOM      9  C   UNL     1       5.869   4.571  15.686  0.00  0.00    +0.000 A 
ATOM     10  C   UNL     1       7.181   4.489  16.138  0.00  0.00    +0.000 A 
ATOM     11  C   UNL     1       7.460   4.700  17.486  0.00  0.00    +0.000 A 
ATOM     12  C   UNL     1       6.421   4.985  18.380  0.00  0.00    +0.000 A 
BRANCH  12  13
ATOM     13  O   UNL     1       6.748   5.214  19.695  0.00  0.00    +0.000 OA
ATOM     14  H   UNL     1       7.365   4.522  19.985  0.00  0.00    +0.000 HD
ENDBRANCH  12  13
ENDBRANCH   5   7
BRANCH   1  16
ATOM     15  O   UNL     1       2.479   2.785  22.271  0.00  0.00    +0.000 OA
ATOM     16  C   UNL     1       1.831   3.288  21.368  0.00  0.00    +0.000 C 
BRANCH  16  17
ATOM     17  O   UNL     1       0.608   2.848  20.997  0.00  0.00    +0.000 OA
ATOM     18  H   UNL     1      -0.079   2.929  21.689  0.00  0.00    +0.000 HD
ENDBRANCH  16  17
ENDBRANCH   1  16
TORSDOF 4
ENDMDL
MODEL 8
REMARK VINA RESULT:      -7.3      2.349      2.712
REMARK  Name = 
REMARK  4 active torsions:
REMARK  status: ('A' for Active; 'I' for Inactive)
REMARK    1  A    between atoms: C_2  and  O_3
REMARK    2  A    between atoms: C_2  and  C_4
REMARK    3  A    between atoms: C_8  and  C_9
REMARK    4  A    between atoms: C_14  and  O_15
REMARK                            x       y       z     vdW  Elec       q    Type
REMARK                         _______ _______ _______ _____ _____    ______ ____
ROOT
ATOM      1  C   UNL     1       6.003   5.264  17.137  0.00  0.00    +0.000 A 
ATOM      2  C   UNL     1       5.786   6.597  16.794  0.00  0.00    +0.000 A 
ATOM      3  C   UNL     1       4.549   7.179  17.053  0.00  0.00    +0.000 A 
ATOM      4  C   UNL     1       3.530   6.425  17.650  0.00  0.00    +0.000 A 
ATOM      5  C   UNL     1       3.732   5.087  18.042  0.00  0.00    +0.000 A 
ATOM      6  C   UNL     1       5.000   4.535  17.791  0.00  0.00    +0.000 A 
ENDROOT
BRANCH   5   7
ATOM      7  C   UNL     1       2.678   4.299  18.737  0.00  0.00    +0.000 A 
ATOM      8  C   UNL     1       2.033   3.239  18.066  0.00  0.00    +0.000 A 
ATOM      9  C   UNL     1       0.996   2.511  18.660  0.00  0.00    +0.000 A 
ATOM     10  C   UNL     1       0.565   2.830  19.942  0.00  0.00    +0.000 A 
ATOM     11  C   UNL     1       1.186   3.861  20.641  0.00  0.00    +0.000 A 
ATOM     12  C   UNL     1       2.234   4.577  20.049  0.00  0.00    +0.000 A 
BRANCH  12  13
ATOM     13  O   UNL     1       2.835   5.567  20.789  0.00  0.00    +0.000 OA
ATOM     14  H   UNL     1       2.146   6.057  21.269  0.00  0.00    +0.000 HD
ENDBRANCH  12  13
ENDBRANCH   5   7
BRANCH   1  16
ATOM     15  O   UNL     1       7.806   4.638  15.721  0.00  0.00    +0.000 OA
ATOM     16  C   UNL     1       7.314   4.648  16.838  0.00  0.00    +0.000 C 
BRANCH  16  17
ATOM     17  O   UNL     1       7.887   4.052  17.908  0.00  0.00    +0.000 OA
ATOM     18  H   UNL     1       7.975   4.629  18.693  0.00  0.00    +0.000 HD
ENDBRANCH  16  17
ENDBRANCH   1  16
TORSDOF 4
ENDMDL
MODEL 9
REMARK VINA RESULT:      -7.2      1.393      1.440
REMARK  Name = 
REMARK  4 active torsions:
REMARK  status: ('A' for Active; 'I' for Inactive)
REMARK    1  A    between atoms: C_2  and  O_3
REMARK    2  A    between atoms: C_2  and  C_4
REMARK    3  A    between atoms: C_8  and  C_9
REMARK    4  A    between atoms: C_14  and  O_15
REMARK                            x       y       z     vdW  Elec       q    Type
REMARK                         _______ _______ _______ _____ _____    ______ ____
ROOT
ATOM      1  C   UNL     1       6.582   4.823  16.660  0.00  0.00    +0.000 A 
ATOM      2  C   UNL     1       7.551   5.496  17.403  0.00  0.00    +0.000 A 
ATOM      3  C   UNL     1       7.323   5.756  18.750  0.00  0.00    +0.000 A 
ATOM      4  C   UNL     1       6.124   5.347  19.351  0.00  0.00    +0.000 A 
ATOM      5  C   UNL     1       5.143   4.633  18.635  0.00  0.00    +0.000 A 
ATOM      6  C   UNL     1       5.414   4.363  17.283  0.00  0.00    +0.000 A 
ENDROOT
BRANCH   5   7
ATOM      7  C   UNL     1       3.897   4.137  19.281  0.00  0.00    +0.000 A 
ATOM      8  C   UNL     1       2.743   4.948  19.301  0.00  0.00    +0.000 A 
ATOM      9  C   UNL     1       1.570   4.547  19.948  0.00  0.00    +0.000 A 
ATOM     10  C   UNL     1       1.519   3.323  20.605  0.00  0.00    +0.000 A 
ATOM     11  C   UNL     1       2.633   2.489  20.596  0.00  0.00    +0.000 A 
ATOM     12  C   UNL     1       3.801   2.888  19.933  0.00  0.00    +0.000 A 
BRANCH  12  13
ATOM     13  O   UNL     1       4.866   2.019  19.927  0.00  0.00    +0.000 OA
ATOM     14  H   UNL     1       5.534   2.344  20.554  0.00  0.00    +0.000 HD
ENDBRANCH  12  13
ENDBRANCH   5   7
BRANCH   1  16
ATOM     15  O   UNL     1       7.483   5.317  14.516  0.00  0.00    +0.000 OA
ATOM     16  C   UNL     1       6.825   4.569  15.223  0.00  0.00    +0.000 C 
BRANCH  16  17
ATOM     17  O   UNL     1       6.205   3.462  14.758  0.00  0.00    +0.000 OA
ATOM     18  H   UNL     1       5.248   3.420  14.956  0.00  0.00    +0.000 HD
ENDBRANCH  16  17
ENDBRANCH   1  16
TORSDOF 4
ENDMDL
