MODEL 1
REMARK VINA RESULT:      -7.7      0.000      0.000
REMARK  Name = 
REMARK  11 active torsions:
REMARK  status: ('A' for Active; 'I' for Inactive)
REMARK    1  A    between atoms: C_1  and  C_2
REMARK    2  A    between atoms: C_2  and  O_3
REMARK    3  A    between atoms: C_2  and  C_21
REMARK    4  A    between atoms: O_3  and  C_4
REMARK    5  A    between atoms: C_6  and  C_7
REMARK    6  A    between atoms: N_9  and  C_10
REMARK    7  A    between atoms: N_9  and  C_11
REMARK    8  A    between atoms: C_11  and  C_12
REMARK    9  A    between atoms: C_11  and  C_13
REMARK   10  A    between atoms: C_11  and  C_14
REMARK   11  A    between atoms: C_17  and  C_18
REMARK                            x       y       z     vdW  Elec       q    Type
REMARK                         _______ _______ _______ _____ _____    ______ ____
ROOT
ATOM      1  C   UNL     1       2.872   5.148  17.775  0.00  0.00    +0.000 A 
ATOM      2  N   UNL     1       2.155   6.220  18.200  0.00  0.00    +0.000 NA
ATOM      3  C   UNL     1       2.693   7.455  18.028  0.00  0.00    +0.000 A 
ATOM      4  C   UNL     1       3.990   7.636  17.566  0.00  0.00    +0.000 A 
ATOM      5  C   UNL     1       4.692   6.521  17.106  0.00  0.00    +0.000 A 
ATOM      6  C   UNL     1       4.121   5.235  17.140  0.00  0.00    +0.000 A 
ENDROOT
BRANCH   3   7
ATOM      7  C   UNL     1       1.880   8.693  18.353  0.00  0.00    +0.000 C 
ATOM      8  O   UNL     1       1.656   9.446  17.412  0.00  0.00    +0.000 OA
ATOM      9  N   UNL     1       1.355   8.935  19.663  0.00  0.00    +0.000 N 
ATOM     10  C   UNL     1       1.496   7.977  20.760  0.00  0.00    +0.000 C 
BRANCH   9  11
ATOM     11  C   UNL     1       0.497  10.160  19.915  0.00  0.00    +0.000 C 
ATOM     12  C   UNL     1       1.262  11.481  19.669  0.00  0.00    +0.000 C 
ATOM     13  C   UNL     1      -0.763  10.212  19.002  0.00  0.00    +0.000 C 
ATOM     14  C   UNL     1      -0.035  10.154  21.364  0.00  0.00    +0.000 C 
ENDBRANCH   9  11
ENDBRANCH   3   7
BRANCH   6  15
ATOM     15  C   UNL     1       4.904   4.098  16.505  0.00  0.00    +0.000 C 
ATOM     16  C   UNL     1       5.710   4.176  15.236  0.00  0.00    +0.000 C 
ATOM     17  C   UNL     1       6.420   4.239  16.549  0.00  0.00    +0.000 C 
ENDBRANCH   6  15
BRANCH   1  18
ATOM     18  O   UNL     1       2.331   3.886  17.946  0.00  0.00    +0.000 OA
BRANCH  18  20
ATOM     19  C   UNL     1       3.123   1.905  19.021  0.00  0.00    +0.000 C 
ATOM     20  C   UNL     1       2.474   3.273  19.246  0.00  0.00    +0.000 C 
BRANCH  20  21
ATOM     21  C   UNL     1       1.122   3.102  19.964  0.00  0.00    +0.000 C 
ATOM     22  F   UNL     1       0.209   2.456  19.203  0.00  0.00    +0.000 F 
ATOM     23  F   UNL     1       1.270   2.368  21.096  0.00  0.00    +0.000 F 
ATOM     24  F   UNL     1       0.564   4.281  20.327  0.00  0.00    +0.000 F 
ENDBRANCH  20  21
ENDBRANCH  18  20
ENDBRANCH   1  18
TORSDOF 6
ENDMDL
MODEL 2
REMARK VINA RESULT:      -7.6      0.376      1.210
REMARK  Name = 
REMARK  11 active torsions:
REMARK  status: ('A' for Active; 'I' for Inactive)
REMARK    1  A    between atoms: C_1  and  C_2
REMARK    2  A    between atoms: C_2  and  O_3
REMARK    3  A    between atoms: C_2  and  C_21
REMARK    4  A    between atoms: O_3  and  C_4
REMARK    5  A    between atoms: C_6  and  C_7
REMARK    6  A    between atoms: N_9  and  C_10
REMARK    7  A    between atoms: N_9  and  C_11
REMARK    8  A    between atoms: C_11  and  C_12
REMARK    9  A    between atoms: C_11  and  C_13
REMARK   10  A    between atoms: C_11  and  C_14
REMARK   11  A    between atoms: C_17  and  C_18
REMARK                            x       y       z     vdW  Elec       q    Type
REMARK                         _______ _______ _______ _____ _____    ______ ____
ROOT
ATOM      1  C   UNL     1       3.030   5.208  18.027  0.00  0.00    +0.000 A 
ATOM      2  N   UNL     1       2.312   6.287  18.431  0.00  0.00    +0.000 NA
ATOM      3  C   UNL     1       2.740   7.517  18.047  0.00  0.00    +0.000 A 
ATOM      4  C   UNL     1       3.945   7.704  17.383  0.00  0.00    +0.000 A 
ATOM      5  C   UNL     1       4.646   6.578  16.951  0.00  0.00    +0.000 A 
ATOM      6  C   UNL     1       4.170   5.279  17.210  0.00  0.00    +0.000 A 
ENDROOT
BRANCH   3   7
ATOM      7  C   UNL     1       1.901   8.744  18.348  0.00  0.00    +0.000 C 
ATOM      8  O   UNL     1       1.687   9.490  17.399  0.00  0.00    +0.000 OA
ATOM      9  N   UNL     1       1.344   8.984  19.646  0.00  0.00    +0.000 N 
ATOM     10  C   UNL     1       1.475   8.032  20.748  0.00  0.00    +0.000 C 
BRANCH   9  11
ATOM     11  C   UNL     1       0.463  10.197  19.873  0.00  0.00    +0.000 C 
ATOM     12  C   UNL     1      -0.085  10.270  21.317  0.00  0.00    +0.000 C 
ATOM     13  C   UNL     1       1.210  11.540  19.625  0.00  0.00    +0.000 C 
ATOM     14  C   UNL     1      -0.726  10.189  18.889  0.00  0.00    +0.000 C 
ENDBRANCH   9  11
ENDBRANCH   3   7
BRANCH   6  15
ATOM     15  C   UNL     1       4.929   4.113  16.597  0.00  0.00    +0.000 C 
ATOM     16  C   UNL     1       5.662   4.126  15.282  0.00  0.00    +0.000 C 
ATOM     17  C   UNL     1       6.443   4.268  16.548  0.00  0.00    +0.000 C 
ENDBRANCH   6  15
BRANCH   1  18
ATOM     18  O   UNL     1       2.601   3.950  18.413  0.00  0.00    +0.000 OA
BRANCH  18  20
ATOM     19  C   UNL     1       3.484   2.421  20.022  0.00  0.00    +0.000 C 
ATOM     20  C   UNL     1       2.600   3.655  19.827  0.00  0.00    +0.000 C 
BRANCH  20  21
ATOM     21  C   UNL     1       1.184   3.378  20.366  0.00  0.00    +0.000 C 
ATOM     22  F   UNL     1       0.472   4.513  20.561  0.00  0.00    +0.000 F 
ATOM     23  F   UNL     1       0.476   2.625  19.486  0.00  0.00    +0.000 F 
ATOM     24  F   UNL     1       1.187   2.712  21.544  0.00  0.00    +0.000 F 
ENDBRANCH  20  21
ENDBRANCH  18  20
ENDBRANCH   1  18
TORSDOF 6
ENDMDL
MODEL 3
REMARK VINA RESULT:      -7.5      0.386      1.220
REMARK  Name = 
REMARK  11 active torsions:
REMARK  status: ('A' for Active; 'I' for Inactive)
REMARK    1  A    between atoms: C_1  and  C_2
REMARK    2  A    between atoms: C_2  and  O_3
REMARK    3  A    between atoms: C_2  and  C_21
REMARK    4  A    between atoms: O_3  and  C_4
REMARK    5  A    between atoms: C_6  and  C_7
REMARK    6  A    between atoms: N_9  and  C_10
REMARK    7  A    between atoms: N_9  and  C_11
REMARK    8  A    between atoms: C_11  and  C_12
REMARK    9  A    between atoms: C_11  and  C_13
REMARK   10  A    between atoms: C_11  and  C_14
REMARK   11  A    between atoms: C_17  and  C_18
REMARK                            x       y       z     vdW  Elec       q    Type
REMARK                         _______ _______ _______ _____ _____    ______ ____
ROOT
ATOM      1  C   UNL     1       3.113   5.074  17.628  0.00  0.00    +0.000 A 
ATOM      2  N   UNL     1       2.322   6.117  17.989  0.00  0.00    +0.000 NA
ATOM      3  C   UNL     1       2.868   7.360  17.989  0.00  0.00    +0.000 A 
ATOM      4  C   UNL     1       4.222   7.570  17.768  0.00  0.00    +0.000 A 
ATOM      5  C   UNL     1       5.005   6.487  17.368  0.00  0.00    +0.000 A 
ATOM      6  C   UNL     1       4.451   5.201  17.224  0.00  0.00    +0.000 A 
ENDROOT
BRANCH   3   7
ATOM      7  C   UNL     1       1.997   8.575  18.245  0.00  0.00    +0.000 C 
ATOM      8  O   UNL     1       1.779   9.290  17.273  0.00  0.00    +0.000 OA
ATOM      9  N   UNL     1       1.417   8.837  19.528  0.00  0.00    +0.000 N 
ATOM     10  C   UNL     1       1.555   7.919  20.659  0.00  0.00    +0.000 C 
BRANCH   9  11
ATOM     11  C   UNL     1       0.504  10.035  19.711  0.00  0.00    +0.000 C 
ATOM     12  C   UNL     1      -0.655  10.059  18.689  0.00  0.00    +0.000 C 
ATOM     13  C   UNL     1      -0.159  10.079  21.119  0.00  0.00    +0.000 C 
ATOM     14  C   UNL     1       1.308  11.346  19.584  0.00  0.00    +0.000 C 
ENDBRANCH   9  11
ENDBRANCH   3   7
BRANCH   6  15
ATOM     15  C   UNL     1       5.344   4.106  16.663  0.00  0.00    +0.000 C 
ATOM     16  C   UNL     1       5.693   3.901  15.213  0.00  0.00    +0.000 C 
ATOM     17  C   UNL     1       6.684   4.571  16.108  0.00  0.00    +0.000 C 
ENDBRANCH   6  15
BRANCH   1  18
ATOM     18  O   UNL     1       2.565   3.804  17.625  0.00  0.00    +0.000 OA
BRANCH  18  20
ATOM     19  C   UNL     1       3.226   1.681  18.501  0.00  0.00    +0.000 C 
ATOM     20  C   UNL     1       2.634   3.048  18.855  0.00  0.00    +0.000 C 
BRANCH  20  21
ATOM     21  C   UNL     1       1.252   2.869  19.510  0.00  0.00    +0.000 C 
ATOM     22  F   UNL     1       1.316   2.188  20.678  0.00  0.00    +0.000 F 
ATOM     23  F   UNL     1       0.698   4.075  19.796  0.00  0.00    +0.000 F 
ATOM     24  F   UNL     1       0.374   2.209  18.720  0.00  0.00    +0.000 F 
ENDBRANCH  20  21
ENDBRANCH  18  20
ENDBRANCH   1  18
TORSDOF 6
ENDMDL
MODEL 4
REMARK VINA RESULT:      -7.5      1.175      1.455
REMARK  Name = 
REMARK  11 active torsions:
REMARK  status: ('A' for Active; 'I' for Inactive)
REMARK    1  A    between atoms: C_1  and  C_2
REMARK    2  A    between atoms: C_2  and  O_3
REMARK    3  A    between atoms: C_2  and  C_21
REMARK    4  A    between atoms: O_3  and  C_4
REMARK    5  A    between atoms: C_6  and  C_7
REMARK    6  A    between atoms: N_9  and  C_10
REMARK    7  A    between atoms: N_9  and  C_11
REMARK    8  A    between atoms: C_11  and  C_12
REMARK    9  A    between atoms: C_11  and  C_13
REMARK   10  A    between atoms: C_11  and  C_14
REMARK   11  A    between atoms: C_17  and  C_18
REMARK                            x       y       z     vdW  Elec       q    Type
REMARK                         _______ _______ _______ _____ _____    ______ ____
ROOT
ATOM      1  C   UNL     1       3.151   5.527  18.951  0.00  0.00    +0.000 A 
ATOM      2  N   UNL     1       2.399   6.630  19.197  0.00  0.00    +0.000 NA
ATOM      3  C   UNL     1       2.595   7.722  18.414  0.00  0.00    +0.000 A 
ATOM      4  C   UNL     1       3.621   7.785  17.480  0.00  0.00    +0.000 A 
ATOM      5  C   UNL     1       4.357   6.628  17.225  0.00  0.00    +0.000 A 
ATOM      6  C   UNL     1       4.098   5.431  17.918  0.00  0.00    +0.000 A 
ENDROOT
BRANCH   3   7
ATOM      7  C   UNL     1       1.689   8.930  18.551  0.00  0.00    +0.000 C 
ATOM      8  O   UNL     1       1.458   9.543  17.514  0.00  0.00    +0.000 OA
ATOM      9  N   UNL     1       1.092   9.295  19.800  0.00  0.00    +0.000 N 
ATOM     10  C   UNL     1       1.247   8.491  21.013  0.00  0.00    +0.000 C 
BRANCH   9  11
ATOM     11  C   UNL     1       0.144  10.477  19.865  0.00  0.00    +0.000 C 
ATOM     12  C   UNL     1       0.826  11.806  19.464  0.00  0.00    +0.000 C 
ATOM     13  C   UNL     1      -1.083  10.319  18.920  0.00  0.00    +0.000 C 
ATOM     14  C   UNL     1      -0.436  10.624  21.287  0.00  0.00    +0.000 C 
ENDBRANCH   9  11
ENDBRANCH   3   7
BRANCH   6  15
ATOM     15  C   UNL     1       4.861   4.188  17.490  0.00  0.00    +0.000 C 
ATOM     16  C   UNL     1       5.503   3.960  16.148  0.00  0.00    +0.000 C 
ATOM     17  C   UNL     1       6.361   4.370  17.301  0.00  0.00    +0.000 C 
ENDBRANCH   6  15
BRANCH   1  18
ATOM     18  O   UNL     1       2.958   4.409  19.743  0.00  0.00    +0.000 OA
BRANCH  18  20
ATOM     19  C   UNL     1       1.578   2.931  21.014  0.00  0.00    +0.000 C 
ATOM     20  C   UNL     1       1.626   3.854  19.794  0.00  0.00    +0.000 C 
BRANCH  20  21
ATOM     21  C   UNL     1       1.273   3.062  18.521  0.00  0.00    +0.000 C 
ATOM     22  F   UNL     1       0.192   2.265  18.688  0.00  0.00    +0.000 F 
ATOM     23  F   UNL     1       0.977   3.904  17.499  0.00  0.00    +0.000 F 
ATOM     24  F   UNL     1       2.283   2.266  18.097  0.00  0.00    +0.000 F 
ENDBRANCH  20  21
ENDBRANCH  18  20
ENDBRANCH   1  18
TORSDOF 6
ENDMDL
MODEL 5
REMARK VINA RESULT:      -7.5      0.498      1.012
REMARK  Name = 
REMARK  11 active torsions:
REMARK  status: ('A' for Active; 'I' for Inactive)
REMARK    1  A    between atoms: C_1  and  C_2
REMARK    2  A    between atoms: C_2  and  O_3
REMARK    3  A    between atoms: C_2  and  C_21
REMARK    4  A    between atoms: O_3  and  C_4
REMARK    5  A    between atoms: C_6  and  C_7
REMARK    6  A    between atoms: N_9  and  C_10
REMARK    7  A    between atoms: N_9  and  C_11
REMARK    8  A    between atoms: C_11  and  C_12
REMARK    9  A    between atoms: C_11  and  C_13
REMARK   10  A    between atoms: C_11  and  C_14
REMARK   11  A    between atoms: C_17  and  C_18
REMARK                            x       y       z     vdW  Elec       q    Type
REMARK                         _______ _______ _______ _____ _____    ______ ____
ROOT
ATOM      1  C   UNL     1       2.827   5.243  17.952  0.00  0.00    +0.000 A 
ATOM      2  N   UNL     1       2.130   6.331  18.369  0.00  0.00    +0.000 NA
ATOM      3  C   UNL     1       2.635   7.559  18.083  0.00  0.00    +0.000 A 
ATOM      4  C   UNL     1       3.888   7.725  17.511  0.00  0.00    +0.000 A 
ATOM      5  C   UNL     1       4.568   6.593  17.063  0.00  0.00    +0.000 A 
ATOM      6  C   UNL     1       4.021   5.305  17.217  0.00  0.00    +0.000 A 
ENDROOT
BRANCH   3   7
ATOM      7  C   UNL     1       1.831   8.805  18.399  0.00  0.00    +0.000 C 
ATOM      8  O   UNL     1       1.618   9.556  17.453  0.00  0.00    +0.000 OA
ATOM      9  N   UNL     1       1.302   9.058  19.705  0.00  0.00    +0.000 N 
ATOM     10  C   UNL     1       1.429   8.104  20.807  0.00  0.00    +0.000 C 
BRANCH   9  11
ATOM     11  C   UNL     1       0.454  10.292  19.948  0.00  0.00    +0.000 C 
ATOM     12  C   UNL     1       1.196  11.602  19.596  0.00  0.00    +0.000 C 
ATOM     13  C   UNL     1      -0.857  10.297  19.106  0.00  0.00    +0.000 C 
ATOM     14  C   UNL     1       0.006  10.354  21.423  0.00  0.00    +0.000 C 
ENDBRANCH   9  11
ENDBRANCH   3   7
BRANCH   6  15
ATOM     15  C   UNL     1       4.770   4.140  16.589  0.00  0.00    +0.000 C 
ATOM     16  C   UNL     1       5.637   4.202  15.360  0.00  0.00    +0.000 C 
ATOM     17  C   UNL     1       6.287   4.194  16.706  0.00  0.00    +0.000 C 
ENDBRANCH   6  15
BRANCH   1  18
ATOM     18  O   UNL     1       2.320   3.988  18.239  0.00  0.00    +0.000 OA
BRANCH  18  20
ATOM     19  C   UNL     1       2.773   1.880  19.268  0.00  0.00    +0.000 C 
ATOM     20  C   UNL     1       2.698   3.392  19.499  0.00  0.00    +0.000 C 
BRANCH  20  21
ATOM     21  C   UNL     1       1.688   3.703  20.619  0.00  0.00    +0.000 C 
ATOM     22  F   UNL     1       2.066   4.756  21.381  0.00  0.00    +0.000 F 
ATOM     23  F   UNL     1       0.476   4.020  20.096  0.00  0.00    +0.000 F 
ATOM     24  F   UNL     1       1.494   2.661  21.460  0.00  0.00    +0.000 F 
ENDBRANCH  20  21
ENDBRANCH  18  20
ENDBRANCH   1  18
TORSDOF 6
ENDMDL
MODEL 6
REMARK VINA RESULT:      -7.4      1.166      1.677
REMARK  Name = 
REMARK  11 active torsions:
REMARK  status: ('A' for Active; 'I' for Inactive)
REMARK    1  A    between atoms: C_1  and  C_2
REMARK    2  A    between atoms: C_2  and  O_3
REMARK    3  A    between atoms: C_2  and  C_21
REMARK    4  A    between atoms: O_3  and  C_4
REMARK    5  A    between atoms: C_6  and  C_7
REMARK    6  A    between atoms: N_9  and  C_10
REMARK    7  A    between atoms: N_9  and  C_11
REMARK    8  A    between atoms: C_11  and  C_12
REMARK    9  A    between atoms: C_11  and  C_13
REMARK   10  A    between atoms: C_11  and  C_14
REMARK   11  A    between atoms: C_17  and  C_18
REMARK                            x       y       z     vdW  Elec       q    Type
REMARK                         _______ _______ _______ _____ _____    ______ ____
ROOT
ATOM      1  C   UNL     1       3.131   5.526  18.955  0.00  0.00    +0.000 A 
ATOM      2  N   UNL     1       2.375   6.627  19.204  0.00  0.00    +0.000 NA
ATOM      3  C   UNL     1       2.573   7.723  18.428  0.00  0.00    +0.000 A 
ATOM      4  C   UNL     1       3.603   7.793  17.499  0.00  0.00    +0.000 A 
ATOM      5  C   UNL     1       4.342   6.639  17.241  0.00  0.00    +0.000 A 
ATOM      6  C   UNL     1       4.082   5.437  17.927  0.00  0.00    +0.000 A 
ENDROOT
BRANCH   3   7
ATOM      7  C   UNL     1       1.664   8.929  18.567  0.00  0.00    +0.000 C 
ATOM      8  O   UNL     1       1.423   9.537  17.530  0.00  0.00    +0.000 OA
ATOM      9  N   UNL     1       1.076   9.297  19.820  0.00  0.00    +0.000 N 
ATOM     10  C   UNL     1       1.242   8.499  21.035  0.00  0.00    +0.000 C 
BRANCH   9  11
ATOM     11  C   UNL     1       0.125  10.477  19.887  0.00  0.00    +0.000 C 
ATOM     12  C   UNL     1      -1.087  10.318  18.940  0.00  0.00    +0.000 C 
ATOM     13  C   UNL     1      -0.464  10.697  21.311  0.00  0.00    +0.000 C 
ATOM     14  C   UNL     1       0.866  11.784  19.532  0.00  0.00    +0.000 C 
ENDBRANCH   9  11
ENDBRANCH   3   7
BRANCH   6  15
ATOM     15  C   UNL     1       4.849   4.197  17.496  0.00  0.00    +0.000 C 
ATOM     16  C   UNL     1       5.644   4.043  16.227  0.00  0.00    +0.000 C 
ATOM     17  C   UNL     1       6.366   4.327  17.504  0.00  0.00    +0.000 C 
ENDBRANCH   6  15
BRANCH   1  18
ATOM     18  O   UNL     1       2.936   4.404  19.741  0.00  0.00    +0.000 OA
BRANCH  18  20
ATOM     19  C   UNL     1       1.412   3.150  21.088  0.00  0.00    +0.000 C 
ATOM     20  C   UNL     1       1.625   3.796  19.717  0.00  0.00    +0.000 C 
BRANCH  20  21
ATOM     21  C   UNL     1       1.494   2.734  18.609  0.00  0.00    +0.000 C 
ATOM     22  F   UNL     1       2.403   1.739  18.734  0.00  0.00    +0.000 F 
ATOM     23  F   UNL     1       0.271   2.148  18.650  0.00  0.00    +0.000 F 
ATOM     24  F   UNL     1       1.645   3.247  17.365  0.00  0.00    +0.000 F 
ENDBRANCH  20  21
ENDBRANCH  18  20
ENDBRANCH   1  18
TORSDOF 6
ENDMDL
MODEL 7
REMARK VINA RESULT:      -7.4      1.269      1.712
REMARK  Name = 
REMARK  11 active torsions:
REMARK  status: ('A' for Active; 'I' for Inactive)
REMARK    1  A    between atoms: C_1  and  C_2
REMARK    2  A    between atoms: C_2  and  O_3
REMARK    3  A    between atoms: C_2  and  C_21
REMARK    4  A    between atoms: O_3  and  C_4
REMARK    5  A    between atoms: C_6  and  C_7
REMARK    6  A    between atoms: N_9  and  C_10
REMARK    7  A    between atoms: N_9  and  C_11
REMARK    8  A    between atoms: C_11  and  C_12
REMARK    9  A    between atoms: C_11  and  C_13
REMARK   10  A    between atoms: C_11  and  C_14
REMARK   11  A    between atoms: C_17  and  C_18
REMARK                            x       y       z     vdW  Elec       q    Type
REMARK                         _______ _______ _______ _____ _____    ______ ____
ROOT
ATOM      1  C   UNL     1       2.963   5.659  19.132  0.00  0.00    +0.000 A 
ATOM      2  N   UNL     1       2.215   6.751  19.434  0.00  0.00    +0.000 NA
ATOM      3  C   UNL     1       2.365   7.859  18.664  0.00  0.00    +0.000 A 
ATOM      4  C   UNL     1       3.345   7.948  17.684  0.00  0.00    +0.000 A 
ATOM      5  C   UNL     1       4.076   6.802  17.372  0.00  0.00    +0.000 A 
ATOM      6  C   UNL     1       3.861   5.590  18.054  0.00  0.00    +0.000 A 
ENDROOT
BRANCH   3   7
ATOM      7  C   UNL     1       1.457   9.056  18.866  0.00  0.00    +0.000 C 
ATOM      8  O   UNL     1       1.119   9.647  17.846  0.00  0.00    +0.000 OA
ATOM      9  N   UNL     1       0.975   9.435  20.160  0.00  0.00    +0.000 N 
ATOM     10  C   UNL     1       1.257   8.655  21.366  0.00  0.00    +0.000 C 
BRANCH   9  11
ATOM     11  C   UNL     1       0.020  10.605  20.295  0.00  0.00    +0.000 C 
ATOM     12  C   UNL     1      -0.516  10.772  21.736  0.00  0.00    +0.000 C 
ATOM     13  C   UNL     1       0.676  11.965  19.916  0.00  0.00    +0.000 C 
ATOM     14  C   UNL     1      -1.177  10.434  19.335  0.00  0.00    +0.000 C 
ENDBRANCH   9  11
ENDBRANCH   3   7
BRANCH   6  15
ATOM     15  C   UNL     1       4.612   4.362  17.567  0.00  0.00    +0.000 C 
ATOM     16  C   UNL     1       5.599   4.318  16.431  0.00  0.00    +0.000 C 
ATOM     17  C   UNL     1       6.110   4.359  17.835  0.00  0.00    +0.000 C 
ENDBRANCH   6  15
BRANCH   1  18
ATOM     18  O   UNL     1       2.816   4.525  19.911  0.00  0.00    +0.000 OA
BRANCH  18  20
ATOM     19  C   UNL     1       1.456   3.041  21.197  0.00  0.00    +0.000 C 
ATOM     20  C   UNL     1       1.517   3.895  19.927  0.00  0.00    +0.000 C 
BRANCH  20  21
ATOM     21  C   UNL     1       1.279   3.012  18.688  0.00  0.00    +0.000 C 
ATOM     22  F   UNL     1       1.149   3.737  17.552  0.00  0.00    +0.000 F 
ATOM     23  F   UNL     1       2.326   2.171  18.491  0.00  0.00    +0.000 F 
ATOM     24  F   UNL     1       0.170   2.244  18.791  0.00  0.00    +0.000 F 
ENDBRANCH  20  21
ENDBRANCH  18  20
ENDBRANCH   1  18
TORSDOF 6
ENDMDL
MODEL 8
REMARK VINA RESULT:      -7.4      4.300      6.309
REMARK  Name = 
REMARK  11 active torsions:
REMARK  status: ('A' for Active; 'I' for Inactive)
REMARK    1  A    between atoms: C_1  and  C_2
REMARK    2  A    between atoms: C_2  and  O_3
REMARK    3  A    between atoms: C_2  and  C_21
REMARK    4  A    between atoms: O_3  and  C_4
REMARK    5  A    between atoms: C_6  and  C_7
REMARK    6  A    between atoms: N_9  and  C_10
REMARK    7  A    between atoms: N_9  and  C_11
REMARK    8  A    between atoms: C_11  and  C_12
REMARK    9  A    between atoms: C_11  and  C_13
REMARK   10  A    between atoms: C_11  and  C_14
REMARK   11  A    between atoms: C_17  and  C_18
REMARK                            x       y       z     vdW  Elec       q    Type
REMARK                         _______ _______ _______ _____ _____    ______ ____
ROOT
ATOM      1  C   UNL     1       6.469   5.768  16.940  0.00  0.00    +0.000 A 
ATOM      2  N   UNL     1       5.598   4.823  17.377  0.00  0.00    +0.000 NA
ATOM      3  C   UNL     1       5.508   4.611  18.716  0.00  0.00    +0.000 A 
ATOM      4  C   UNL     1       6.366   5.224  19.618  0.00  0.00    +0.000 A 
ATOM      5  C   UNL     1       7.228   6.214  19.147  0.00  0.00    +0.000 A 
ATOM      6  C   UNL     1       7.261   6.563  17.783  0.00  0.00    +0.000 A 
ENDROOT
BRANCH   3   7
ATOM      7  C   UNL     1       4.454   3.672  19.268  0.00  0.00    +0.000 C 
ATOM      8  O   UNL     1       4.848   2.555  19.586  0.00  0.00    +0.000 OA
ATOM      9  N   UNL     1       3.096   4.083  19.463  0.00  0.00    +0.000 N 
ATOM     10  C   UNL     1       2.644   5.453  19.220  0.00  0.00    +0.000 C 
BRANCH   9  11
ATOM     11  C   UNL     1       2.099   3.119  20.077  0.00  0.00    +0.000 C 
ATOM     12  C   UNL     1       1.884   1.856  19.211  0.00  0.00    +0.000 C 
ATOM     13  C   UNL     1       2.537   2.611  21.482  0.00  0.00    +0.000 C 
ATOM     14  C   UNL     1       0.738   3.816  20.287  0.00  0.00    +0.000 C 
ENDBRANCH   9  11
ENDBRANCH   3   7
BRANCH   6  15
ATOM     15  C   UNL     1       8.138   7.736  17.376  0.00  0.00    +0.000 C 
ATOM     16  C   UNL     1       7.777   9.194  17.486  0.00  0.00    +0.000 C 
ATOM     17  C   UNL     1       8.669   8.588  18.521  0.00  0.00    +0.000 C 
ENDBRANCH   6  15
BRANCH   1  18
ATOM     18  O   UNL     1       6.568   5.992  15.578  0.00  0.00    +0.000 OA
BRANCH  18  20
ATOM     19  C   UNL     1       7.871   5.640  13.607  0.00  0.00    +0.000 C 
ATOM     20  C   UNL     1       7.164   4.949  14.776  0.00  0.00    +0.000 C 
BRANCH  20  21
ATOM     21  C   UNL     1       6.118   3.952  14.242  0.00  0.00    +0.000 C 
ATOM     22  F   UNL     1       6.477   3.410  13.055  0.00  0.00    +0.000 F 
ATOM     23  F   UNL     1       5.957   2.918  15.106  0.00  0.00    +0.000 F 
ATOM     24  F   UNL     1       4.898   4.511  14.063  0.00  0.00    +0.000 F 
ENDBRANCH  20  21
ENDBRANCH  18  20
ENDBRANCH   1  18
TORSDOF 6
ENDMDL
MODEL 9
REMARK VINA RESULT:      -7.3      4.300      6.331
REMARK  Name = 
REMARK  11 active torsions:
REMARK  status: ('A' for Active; 'I' for Inactive)
REMARK    1  A    between atoms: C_1  and  C_2
REMARK    2  A    between atoms: C_2  and  O_3
REMARK    3  A    between atoms: C_2  and  C_21
REMARK    4  A    between atoms: O_3  and  C_4
REMARK    5  A    between atoms: C_6  and  C_7
REMARK    6  A    between atoms: N_9  and  C_10
REMARK    7  A    between atoms: N_9  and  C_11
REMARK    8  A    between atoms: C_11  and  C_12
REMARK    9  A    between atoms: C_11  and  C_13
REMARK   10  A    between atoms: C_11  and  C_14
REMARK   11  A    between atoms: C_17  and  C_18
REMARK                            x       y       z     vdW  Elec       q    Type
REMARK                         _______ _______ _______ _____ _____    ______ ____
ROOT
ATOM      1  C   UNL     1       6.481   5.775  16.948  0.00  0.00    +0.000 A 
ATOM      2  N   UNL     1       5.612   4.827  17.384  0.00  0.00    +0.000 NA
ATOM      3  C   UNL     1       5.521   4.614  18.722  0.00  0.00    +0.000 A 
ATOM      4  C   UNL     1       6.376   5.230  19.626  0.00  0.00    +0.000 A 
ATOM      5  C   UNL     1       7.235   6.222  19.156  0.00  0.00    +0.000 A 
ATOM      6  C   UNL     1       7.269   6.573  17.793  0.00  0.00    +0.000 A 
ENDROOT
BRANCH   3   7
ATOM      7  C   UNL     1       4.469   3.671  19.273  0.00  0.00    +0.000 C 
ATOM      8  O   UNL     1       4.866   2.554  19.588  0.00  0.00    +0.000 OA
ATOM      9  N   UNL     1       3.110   4.079  19.469  0.00  0.00    +0.000 N 
ATOM     10  C   UNL     1       2.655   5.448  19.228  0.00  0.00    +0.000 C 
BRANCH   9  11
ATOM     11  C   UNL     1       2.115   3.111  20.080  0.00  0.00    +0.000 C 
ATOM     12  C   UNL     1       2.552   2.613  21.477  0.00  0.00    +0.000 C 
ATOM     13  C   UNL     1       0.702   3.737  20.267  0.00  0.00    +0.000 C 
ATOM     14  C   UNL     1       1.916   1.891  19.156  0.00  0.00    +0.000 C 
ENDBRANCH   9  11
ENDBRANCH   3   7
BRANCH   6  15
ATOM     15  C   UNL     1       8.142   7.749  17.388  0.00  0.00    +0.000 C 
ATOM     16  C   UNL     1       7.773   9.205  17.489  0.00  0.00    +0.000 C 
ATOM     17  C   UNL     1       8.661   8.608  18.533  0.00  0.00    +0.000 C 
ENDBRANCH   6  15
BRANCH   1  18
ATOM     18  O   UNL     1       6.580   6.000  15.586  0.00  0.00    +0.000 OA
BRANCH  18  20
ATOM     19  C   UNL     1       7.863   5.640  13.603  0.00  0.00    +0.000 C 
ATOM     20  C   UNL     1       7.169   4.954  14.783  0.00  0.00    +0.000 C 
BRANCH  20  21
ATOM     21  C   UNL     1       6.119   3.953  14.265  0.00  0.00    +0.000 C 
ATOM     22  F   UNL     1       4.908   4.526  14.071  0.00  0.00    +0.000 F 
ATOM     23  F   UNL     1       6.498   3.437  13.069  0.00  0.00    +0.000 F 
ATOM     24  F   UNL     1       5.926   2.909  15.104  0.00  0.00    +0.000 F 
ENDBRANCH  20  21
ENDBRANCH  18  20
ENDBRANCH   1  18
TORSDOF 6
ENDMDL
