MODEL 1
REMARK VINA RESULT:      -8.1      0.000      0.000
REMARK  Name = 
REMARK  13 active torsions:
REMARK  status: ('A' for Active; 'I' for Inactive)
REMARK    1  A    between atoms: C_1  and  O_2
REMARK    2  A    between atoms: O_2  and  C_3
REMARK    3  A    between atoms: C_3  and  C_5
REMARK    4  A    between atoms: C_10  and  O_11
REMARK    5  A    between atoms: O_11  and  C_12
REMARK    6  A    between atoms: C_12  and  C_13
REMARK    7  A    between atoms: C_13  and  C_14
REMARK    8  A    between atoms: C_16  and  C_17
REMARK    9  A    between atoms: C_20  and  C_21
REMARK   10  A    between atoms: C_21  and  C_22
REMARK   11  A    between atoms: C_21  and  C_23
REMARK   12  A    between atoms: C_21  and  C_24
REMARK   13  A    between atoms: C_28  and  C_29
REMARK                            x       y       z     vdW  Elec       q    Type
REMARK                         _______ _______ _______ _____ _____    ______ ____
ROOT
ATOM      1  C   UNL     1       8.288   9.359  18.429  0.00  0.00    +0.000 C 
ENDROOT
BRANCH   1   2
ATOM      2  O   UNL     1       8.678   7.982  18.478  0.00  0.00    +0.000 OA
BRANCH   2   8
ATOM      3  C   UNL     1       3.730   4.126  18.262  0.00  0.00    +0.000 C 
ATOM      4  C   UNL     1       4.450   4.517  16.976  0.00  0.00    +0.000 C 
ATOM      5  C   UNL     1       5.599   5.410  17.323  0.00  0.00    +0.000 A 
ATOM      6  C   UNL     1       5.998   6.478  16.521  0.00  0.00    +0.000 A 
ATOM      7  C   UNL     1       7.039   7.313  16.948  0.00  0.00    +0.000 A 
ATOM      8  C   UNL     1       7.698   7.078  18.160  0.00  0.00    +0.000 A 
ATOM      9  C   UNL     1       7.327   5.982  18.938  0.00  0.00    +0.000 A 
ATOM     10  C   UNL     1       6.283   5.171  18.513  0.00  0.00    +0.000 A 
ATOM     11  O   UNL     1       5.935   4.083  19.338  0.00  0.00    +0.000 OA
ATOM     12  C   UNL     1       4.708   3.450  19.183  0.00  0.00    +0.000 C 
ATOM     13  O   UNL     1       4.443   2.409  19.782  0.00  0.00    +0.000 OA
BRANCH   3  14
ATOM     14  C   UNL     1       3.057   5.292  18.943  0.00  0.00    +0.000 C 
ATOM     15  O   UNL     1       3.135   5.553  20.135  0.00  0.00    +0.000 OA
BRANCH  14  17
ATOM     16  C   UNL     1       2.378   7.420  18.239  0.00  0.00    +0.000 C 
ATOM     17  O   UNL     1       2.314   6.005  18.047  0.00  0.00    +0.000 OA
ENDBRANCH  14  17
ENDBRANCH   3  14
ENDBRANCH   2   8
ENDBRANCH   1   2
BRANCH   1  18
ATOM     18  C   UNL     1       9.529  10.231  18.281  0.00  0.00    +0.000 C 
BRANCH  18  19
ATOM     19  C   UNL     1       9.769  11.043  19.501  0.00  0.00    +0.000 A 
ATOM     20  N   UNL     1       8.780  11.214  20.445  0.00  0.00    +0.000 NA
ATOM     21  C   UNL     1       9.351  11.944  21.386  0.00  0.00    +0.000 A 
ATOM     22  O   UNL     1      10.656  12.266  21.122  0.00  0.00    +0.000 OA
ATOM     23  C   UNL     1      10.916  11.682  19.918  0.00  0.00    +0.000 A 
ATOM     24  C   UNL     1      12.277  11.835  19.379  0.00  0.00    +0.000 C 
BRANCH  21  25
ATOM     25  C   UNL     1       8.811  12.406  22.661  0.00  0.00    +0.000 A 
ATOM     26  C   UNL     1       8.908  13.756  23.012  0.00  0.00    +0.000 A 
ATOM     27  C   UNL     1       8.358  14.230  24.210  0.00  0.00    +0.000 A 
ATOM     28  C   UNL     1       7.688  13.375  25.101  0.00  0.00    +0.000 A 
ATOM     29  C   UNL     1       7.624  12.014  24.753  0.00  0.00    +0.000 A 
ATOM     30  C   UNL     1       8.171  11.538  23.554  0.00  0.00    +0.000 A 
BRANCH  28  31
ATOM     31  C   UNL     1       7.008  13.883  26.384  0.00  0.00    +0.000 C 
ATOM     32  C   UNL     1       7.631  13.301  27.673  0.00  0.00    +0.000 C 
ATOM     33  C   UNL     1       7.145  15.421  26.462  0.00  0.00    +0.000 C 
ATOM     34  C   UNL     1       5.509  13.516  26.391  0.00  0.00    +0.000 C 
ENDBRANCH  28  31
ENDBRANCH  21  25
ENDBRANCH  18  19
ENDBRANCH   1  18
TORSDOF 8
ENDMDL
MODEL 2
REMARK VINA RESULT:      -8.1      5.426      8.319
REMARK  Name = 
REMARK  13 active torsions:
REMARK  status: ('A' for Active; 'I' for Inactive)
REMARK    1  A    between atoms: C_1  and  O_2
REMARK    2  A    between atoms: O_2  and  C_3
REMARK    3  A    between atoms: C_3  and  C_5
REMARK    4  A    between atoms: C_10  and  O_11
REMARK    5  A    between atoms: O_11  and  C_12
REMARK    6  A    between atoms: C_12  and  C_13
REMARK    7  A    between atoms: C_13  and  C_14
REMARK    8  A    between atoms: C_16  and  C_17
REMARK    9  A    between atoms: C_20  and  C_21
REMARK   10  A    between atoms: C_21  and  C_22
REMARK   11  A    between atoms: C_21  and  C_23
REMARK   12  A    between atoms: C_21  and  C_24
REMARK   13  A    between atoms: C_28  and  C_29
REMARK                            x       y       z     vdW  Elec       q    Type
REMARK                         _______ _______ _______ _____ _____    ______ ____
ROOT
ATOM      1  C   UNL     1       3.991   1.938  20.963  0.00  0.00    +0.000 C 
ENDROOT
BRANCH   1   2
ATOM      2  O   UNL     1       3.697   1.957  19.561  0.00  0.00    +0.000 OA
BRANCH   2   8
ATOM      3  C   UNL     1       6.819   6.477  16.526  0.00  0.00    +0.000 C 
ATOM      4  C   UNL     1       5.297   6.414  16.446  0.00  0.00    +0.000 C 
ATOM      5  C   UNL     1       4.821   5.268  17.281  0.00  0.00    +0.000 A 
ATOM      6  C   UNL     1       3.731   4.474  16.928  0.00  0.00    +0.000 A 
ATOM      7  C   UNL     1       3.388   3.375  17.726  0.00  0.00    +0.000 A 
ATOM      8  C   UNL     1       4.113   3.074  18.885  0.00  0.00    +0.000 A 
ATOM      9  C   UNL     1       5.175   3.896  19.260  0.00  0.00    +0.000 A 
ATOM     10  C   UNL     1       5.515   4.974  18.453  0.00  0.00    +0.000 A 
ATOM     11  O   UNL     1       6.603   5.769  18.865  0.00  0.00    +0.000 OA
ATOM     12  C   UNL     1       7.227   6.624  17.965  0.00  0.00    +0.000 C 
ATOM     13  O   UNL     1       8.074   7.437  18.334  0.00  0.00    +0.000 OA
BRANCH   3  14
ATOM     14  C   UNL     1       7.496   5.290  15.886  0.00  0.00    +0.000 C 
ATOM     15  O   UNL     1       8.018   4.366  16.492  0.00  0.00    +0.000 OA
BRANCH  14  17
ATOM     16  C   UNL     1       6.750   4.361  13.869  0.00  0.00    +0.000 C 
ATOM     17  O   UNL     1       7.476   5.404  14.526  0.00  0.00    +0.000 OA
ENDBRANCH  14  17
ENDBRANCH   3  14
ENDBRANCH   2   8
ENDBRANCH   1   2
BRANCH   1  18
ATOM     18  C   UNL     1       2.758   2.378  21.744  0.00  0.00    +0.000 C 
BRANCH  18  19
ATOM     19  C   UNL     1       2.043   3.481  21.050  0.00  0.00    +0.000 A 
ATOM     20  N   UNL     1       2.394   4.797  21.263  0.00  0.00    +0.000 NA
ATOM     21  C   UNL     1       1.590   5.481  20.470  0.00  0.00    +0.000 A 
ATOM     22  O   UNL     1       0.728   4.698  19.747  0.00  0.00    +0.000 OA
ATOM     23  C   UNL     1       1.029   3.422  20.121  0.00  0.00    +0.000 A 
ATOM     24  C   UNL     1       0.270   2.338  19.476  0.00  0.00    +0.000 C 
BRANCH  21  25
ATOM     25  C   UNL     1       1.523   6.919  20.227  0.00  0.00    +0.000 A 
ATOM     26  C   UNL     1       2.152   7.468  19.106  0.00  0.00    +0.000 A 
ATOM     27  C   UNL     1       2.063   8.838  18.828  0.00  0.00    +0.000 A 
ATOM     28  C   UNL     1       1.340   9.710  19.659  0.00  0.00    +0.000 A 
ATOM     29  C   UNL     1       0.738   9.153  20.801  0.00  0.00    +0.000 A 
ATOM     30  C   UNL     1       0.823   7.782  21.078  0.00  0.00    +0.000 A 
BRANCH  28  31
ATOM     31  C   UNL     1       1.162  11.204  19.336  0.00  0.00    +0.000 C 
ATOM     32  C   UNL     1       2.134  11.711  18.247  0.00  0.00    +0.000 C 
ATOM     33  C   UNL     1      -0.274  11.449  18.820  0.00  0.00    +0.000 C 
ATOM     34  C   UNL     1       1.393  12.067  20.595  0.00  0.00    +0.000 C 
ENDBRANCH  28  31
ENDBRANCH  21  25
ENDBRANCH  18  19
ENDBRANCH   1  18
TORSDOF 8
ENDMDL
MODEL 3
REMARK VINA RESULT:      -8.1      6.146      9.513
REMARK  Name = 
REMARK  13 active torsions:
REMARK  status: ('A' for Active; 'I' for Inactive)
REMARK    1  A    between atoms: C_1  and  O_2
REMARK    2  A    between atoms: O_2  and  C_3
REMARK    3  A    between atoms: C_3  and  C_5
REMARK    4  A    between atoms: C_10  and  O_11
REMARK    5  A    between atoms: O_11  and  C_12
REMARK    6  A    between atoms: C_12  and  C_13
REMARK    7  A    between atoms: C_13  and  C_14
REMARK    8  A    between atoms: C_16  and  C_17
REMARK    9  A    between atoms: C_20  and  C_21
REMARK   10  A    between atoms: C_21  and  C_22
REMARK   11  A    between atoms: C_21  and  C_23
REMARK   12  A    between atoms: C_21  and  C_24
REMARK   13  A    between atoms: C_28  and  C_29
REMARK                            x       y       z     vdW  Elec       q    Type
REMARK                         _______ _______ _______ _____ _____    ______ ____
ROOT
ATOM      1  C   UNL     1       1.250   9.101  17.999  0.00  0.00    +0.000 C 
ENDROOT
BRANCH   1   2
ATOM      2  O   UNL     1       1.749   8.304  19.078  0.00  0.00    +0.000 OA
BRANCH   2   8
ATOM      3  C   UNL     1       6.762   5.049  17.163  0.00  0.00    +0.000 C 
ATOM      4  C   UNL     1       5.696   4.375  18.020  0.00  0.00    +0.000 C 
ATOM      5  C   UNL     1       4.611   5.366  18.302  0.00  0.00    +0.000 A 
ATOM      6  C   UNL     1       3.926   5.415  19.515  0.00  0.00    +0.000 A 
ATOM      7  C   UNL     1       2.971   6.418  19.730  0.00  0.00    +0.000 A 
ATOM      8  C   UNL     1       2.680   7.358  18.735  0.00  0.00    +0.000 A 
ATOM      9  C   UNL     1       3.335   7.279  17.507  0.00  0.00    +0.000 A 
ATOM     10  C   UNL     1       4.291   6.291  17.310  0.00  0.00    +0.000 A 
ATOM     11  O   UNL     1       4.935   6.258  16.058  0.00  0.00    +0.000 OA
ATOM     12  C   UNL     1       6.125   5.557  15.900  0.00  0.00    +0.000 C 
ATOM     13  O   UNL     1       6.625   5.385  14.789  0.00  0.00    +0.000 OA
BRANCH   3  14
ATOM     14  C   UNL     1       7.494   6.153  17.887  0.00  0.00    +0.000 C 
ATOM     15  O   UNL     1       7.852   6.113  19.055  0.00  0.00    +0.000 OA
BRANCH  14  17
ATOM     16  C   UNL     1       7.864   8.462  17.756  0.00  0.00    +0.000 C 
ATOM     17  O   UNL     1       7.675   7.226  17.063  0.00  0.00    +0.000 OA
ENDBRANCH  14  17
ENDBRANCH   3  14
ENDBRANCH   2   8
ENDBRANCH   1   2
BRANCH   1  18
ATOM     18  C   UNL     1       1.763  10.529  18.146  0.00  0.00    +0.000 C 
BRANCH  18  19
ATOM     19  C   UNL     1       0.689  11.445  18.607  0.00  0.00    +0.000 A 
ATOM     20  N   UNL     1      -0.618  11.016  18.701  0.00  0.00    +0.000 NA
ATOM     21  C   UNL     1      -1.271  12.063  19.170  0.00  0.00    +0.000 A 
ATOM     22  O   UNL     1      -0.478  13.158  19.391  0.00  0.00    +0.000 OA
ATOM     23  C   UNL     1       0.774  12.753  19.033  0.00  0.00    +0.000 A 
ATOM     24  C   UNL     1       1.865  13.727  19.191  0.00  0.00    +0.000 C 
BRANCH  21  25
ATOM     25  C   UNL     1      -2.682  12.199  19.522  0.00  0.00    +0.000 A 
ATOM     26  C   UNL     1      -3.665  11.667  18.682  0.00  0.00    +0.000 A 
ATOM     27  C   UNL     1      -5.021  11.746  19.021  0.00  0.00    +0.000 A 
ATOM     28  C   UNL     1      -5.447  12.358  20.213  0.00  0.00    +0.000 A 
ATOM     29  C   UNL     1      -4.452  12.918  21.033  0.00  0.00    +0.000 A 
ATOM     30  C   UNL     1      -3.095  12.837  20.697  0.00  0.00    +0.000 A 
BRANCH  28  31
ATOM     31  C   UNL     1      -6.923  12.390  20.646  0.00  0.00    +0.000 C 
ATOM     32  C   UNL     1      -7.662  11.057  20.389  0.00  0.00    +0.000 C 
ATOM     33  C   UNL     1      -7.005  12.676  22.163  0.00  0.00    +0.000 C 
ATOM     34  C   UNL     1      -7.691  13.494  19.889  0.00  0.00    +0.000 C 
ENDBRANCH  28  31
ENDBRANCH  21  25
ENDBRANCH  18  19
ENDBRANCH   1  18
TORSDOF 8
ENDMDL
MODEL 4
REMARK VINA RESULT:      -7.9      5.841      8.068
REMARK  Name = 
REMARK  13 active torsions:
REMARK  status: ('A' for Active; 'I' for Inactive)
REMARK    1  A    between atoms: C_1  and  O_2
REMARK    2  A    between atoms: O_2  and  C_3
REMARK    3  A    between atoms: C_3  and  C_5
REMARK    4  A    between atoms: C_10  and  O_11
REMARK    5  A    between atoms: O_11  and  C_12
REMARK    6  A    between atoms: C_12  and  C_13
REMARK    7  A    between atoms: C_13  and  C_14
REMARK    8  A    between atoms: C_16  and  C_17
REMARK    9  A    between atoms: C_20  and  C_21
REMARK   10  A    between atoms: C_21  and  C_22
REMARK   11  A    between atoms: C_21  and  C_23
REMARK   12  A    between atoms: C_21  and  C_24
REMARK   13  A    between atoms: C_28  and  C_29
REMARK                            x       y       z     vdW  Elec       q    Type
REMARK                         _______ _______ _______ _____ _____    ______ ____
ROOT
ATOM      1  C   UNL     1       1.488   9.204  18.066  0.00  0.00    +0.000 C 
ENDROOT
BRANCH   1   2
ATOM      2  O   UNL     1       2.101   8.353  19.041  0.00  0.00    +0.000 OA
BRANCH   2   8
ATOM      3  C   UNL     1       6.443   4.516  16.630  0.00  0.00    +0.000 C 
ATOM      4  C   UNL     1       5.209   3.938  17.315  0.00  0.00    +0.000 C 
ATOM      5  C   UNL     1       4.337   5.068  17.763  0.00  0.00    +0.000 A 
ATOM      6  C   UNL     1       3.603   5.036  18.947  0.00  0.00    +0.000 A 
ATOM      7  C   UNL     1       2.864   6.161  19.335  0.00  0.00    +0.000 A 
ATOM      8  C   UNL     1       2.836   7.312  18.538  0.00  0.00    +0.000 A 
ATOM      9  C   UNL     1       3.535   7.325  17.332  0.00  0.00    +0.000 A 
ATOM     10  C   UNL     1       4.277   6.209  16.966  0.00  0.00    +0.000 A 
ATOM     11  O   UNL     1       4.977   6.273  15.745  0.00  0.00    +0.000 OA
ATOM     12  C   UNL     1       6.004   5.376  15.477  0.00  0.00    +0.000 C 
ATOM     13  O   UNL     1       6.525   5.311  14.365  0.00  0.00    +0.000 OA
BRANCH   3  14
ATOM     14  C   UNL     1       7.340   5.282  17.570  0.00  0.00    +0.000 C 
ATOM     15  O   UNL     1       7.657   4.918  18.694  0.00  0.00    +0.000 OA
BRANCH  14  17
ATOM     16  C   UNL     1       7.832   7.542  17.937  0.00  0.00    +0.000 C 
ATOM     17  O   UNL     1       7.729   6.462  17.006  0.00  0.00    +0.000 OA
ENDBRANCH  14  17
ENDBRANCH   3  14
ENDBRANCH   2   8
ENDBRANCH   1   2
BRANCH   1  18
ATOM     18  C   UNL     1       2.197  10.554  18.055  0.00  0.00    +0.000 C 
BRANCH  18  19
ATOM     19  C   UNL     1       1.420  11.580  18.797  0.00  0.00    +0.000 A 
ATOM     20  N   UNL     1       0.348  11.223  19.587  0.00  0.00    +0.000 NA
ATOM     21  C   UNL     1      -0.065  12.364  20.109  0.00  0.00    +0.000 A 
ATOM     22  O   UNL     1       0.666  13.452  19.712  0.00  0.00    +0.000 OA
ATOM     23  C   UNL     1       1.616  12.941  18.878  0.00  0.00    +0.000 A 
ATOM     24  C   UNL     1       2.586  13.888  18.306  0.00  0.00    +0.000 C 
BRANCH  21  25
ATOM     25  C   UNL     1      -1.140  12.615  21.064  0.00  0.00    +0.000 A 
ATOM     26  C   UNL     1      -0.837  13.048  22.358  0.00  0.00    +0.000 A 
ATOM     27  C   UNL     1      -1.854  13.339  23.277  0.00  0.00    +0.000 A 
ATOM     28  C   UNL     1      -3.211  13.211  22.937  0.00  0.00    +0.000 A 
ATOM     29  C   UNL     1      -3.504  12.744  21.643  0.00  0.00    +0.000 A 
ATOM     30  C   UNL     1      -2.488  12.456  20.722  0.00  0.00    +0.000 A 
BRANCH  28  31
ATOM     31  C   UNL     1      -4.347  13.596  23.900  0.00  0.00    +0.000 C 
ATOM     32  C   UNL     1      -5.716  13.746  23.198  0.00  0.00    +0.000 C 
ATOM     33  C   UNL     1      -4.501  12.498  24.976  0.00  0.00    +0.000 C 
ATOM     34  C   UNL     1      -4.039  14.938  24.598  0.00  0.00    +0.000 C 
ENDBRANCH  28  31
ENDBRANCH  21  25
ENDBRANCH  18  19
ENDBRANCH   1  18
TORSDOF 8
ENDMDL
MODEL 5
REMARK VINA RESULT:      -7.9      1.083      1.727
REMARK  Name = 
REMARK  13 active torsions:
REMARK  status: ('A' for Active; 'I' for Inactive)
REMARK    1  A    between atoms: C_1  and  O_2
REMARK    2  A    between atoms: O_2  and  C_3
REMARK    3  A    between atoms: C_3  and  C_5
REMARK    4  A    between atoms: C_10  and  O_11
REMARK    5  A    between atoms: O_11  and  C_12
REMARK    6  A    between atoms: C_12  and  C_13
REMARK    7  A    between atoms: C_13  and  C_14
REMARK    8  A    between atoms: C_16  and  C_17
REMARK    9  A    between atoms: C_20  and  C_21
REMARK   10  A    between atoms: C_21  and  C_22
REMARK   11  A    between atoms: C_21  and  C_23
REMARK   12  A    between atoms: C_21  and  C_24
REMARK   13  A    between atoms: C_28  and  C_29
REMARK                            x       y       z     vdW  Elec       q    Type
REMARK                         _______ _______ _______ _____ _____    ______ ____
ROOT
ATOM      1  C   UNL     1       8.310   9.142  18.261  0.00  0.00    +0.000 C 
ENDROOT
BRANCH   1   2
ATOM      2  O   UNL     1       8.552   7.812  18.735  0.00  0.00    +0.000 OA
BRANCH   2   8
ATOM      3  C   UNL     1       3.787   3.815  17.897  0.00  0.00    +0.000 C 
ATOM      4  C   UNL     1       4.726   4.136  16.739  0.00  0.00    +0.000 C 
ATOM      5  C   UNL     1       5.778   5.082  17.225  0.00  0.00    +0.000 A 
ATOM      6  C   UNL     1       6.303   6.103  16.434  0.00  0.00    +0.000 A 
ATOM      7  C   UNL     1       7.235   6.994  16.983  0.00  0.00    +0.000 A 
ATOM      8  C   UNL     1       7.662   6.861  18.309  0.00  0.00    +0.000 A 
ATOM      9  C   UNL     1       7.168   5.813  19.084  0.00  0.00    +0.000 A 
ATOM     10  C   UNL     1       6.234   4.945  18.535  0.00  0.00    +0.000 A 
ATOM     11  O   UNL     1       5.754   3.908  19.359  0.00  0.00    +0.000 OA
ATOM     12  C   UNL     1       4.586   3.232  19.029  0.00  0.00    +0.000 C 
ATOM     13  O   UNL     1       4.230   2.227  19.643  0.00  0.00    +0.000 OA
BRANCH   3  14
ATOM     14  C   UNL     1       2.982   5.006  18.355  0.00  0.00    +0.000 C 
ATOM     15  O   UNL     1       3.069   6.134  17.893  0.00  0.00    +0.000 OA
BRANCH  14  17
ATOM     16  C   UNL     1       1.990   5.688  20.364  0.00  0.00    +0.000 C 
ATOM     17  O   UNL     1       2.159   4.658  19.387  0.00  0.00    +0.000 OA
ENDBRANCH  14  17
ENDBRANCH   3  14
ENDBRANCH   2   8
ENDBRANCH   1   2
BRANCH   1  18
ATOM     18  C   UNL     1       9.555   9.993  18.488  0.00  0.00    +0.000 C 
BRANCH  18  19
ATOM     19  C   UNL     1       9.255  11.172  19.340  0.00  0.00    +0.000 A 
ATOM     20  N   UNL     1       9.095  11.040  20.703  0.00  0.00    +0.000 NA
ATOM     21  C   UNL     1       8.883  12.273  21.127  0.00  0.00    +0.000 A 
ATOM     22  O   UNL     1       8.893  13.212  20.129  0.00  0.00    +0.000 OA
ATOM     23  C   UNL     1       9.137  12.500  18.991  0.00  0.00    +0.000 A 
ATOM     24  C   UNL     1       9.233  13.258  17.734  0.00  0.00    +0.000 C 
BRANCH  21  25
ATOM     25  C   UNL     1       8.690  12.770  22.486  0.00  0.00    +0.000 A 
ATOM     26  C   UNL     1       8.224  11.909  23.484  0.00  0.00    +0.000 A 
ATOM     27  C   UNL     1       8.074  12.352  24.804  0.00  0.00    +0.000 A 
ATOM     28  C   UNL     1       8.386  13.670  25.178  0.00  0.00    +0.000 A 
ATOM     29  C   UNL     1       8.824  14.535  24.159  0.00  0.00    +0.000 A 
ATOM     30  C   UNL     1       8.978  14.094  22.839  0.00  0.00    +0.000 A 
BRANCH  28  31
ATOM     31  C   UNL     1       8.304  14.160  26.634  0.00  0.00    +0.000 C 
ATOM     32  C   UNL     1       7.471  15.452  26.794  0.00  0.00    +0.000 C 
ATOM     33  C   UNL     1       7.635  13.072  27.504  0.00  0.00    +0.000 C 
ATOM     34  C   UNL     1       9.713  14.449  27.194  0.00  0.00    +0.000 C 
ENDBRANCH  28  31
ENDBRANCH  21  25
ENDBRANCH  18  19
ENDBRANCH   1  18
TORSDOF 8
ENDMDL
MODEL 6
REMARK VINA RESULT:      -7.8      6.114      9.363
REMARK  Name = 
REMARK  13 active torsions:
REMARK  status: ('A' for Active; 'I' for Inactive)
REMARK    1  A    between atoms: C_1  and  O_2
REMARK    2  A    between atoms: O_2  and  C_3
REMARK    3  A    between atoms: C_3  and  C_5
REMARK    4  A    between atoms: C_10  and  O_11
REMARK    5  A    between atoms: O_11  and  C_12
REMARK    6  A    between atoms: C_12  and  C_13
REMARK    7  A    between atoms: C_13  and  C_14
REMARK    8  A    between atoms: C_16  and  C_17
REMARK    9  A    between atoms: C_20  and  C_21
REMARK   10  A    between atoms: C_21  and  C_22
REMARK   11  A    between atoms: C_21  and  C_23
REMARK   12  A    between atoms: C_21  and  C_24
REMARK   13  A    between atoms: C_28  and  C_29
REMARK                            x       y       z     vdW  Elec       q    Type
REMARK                         _______ _______ _______ _____ _____    ______ ____
ROOT
ATOM      1  C   UNL     1       1.873   9.355  17.814  0.00  0.00    +0.000 C 
ENDROOT
BRANCH   1   2
ATOM      2  O   UNL     1       1.502   8.499  18.901  0.00  0.00    +0.000 OA
BRANCH   2   8
ATOM      3  C   UNL     1       3.793   2.698  19.598  0.00  0.00    +0.000 C 
ATOM      4  C   UNL     1       4.710   3.832  19.153  0.00  0.00    +0.000 C 
ATOM      5  C   UNL     1       3.914   5.099  19.102  0.00  0.00    +0.000 A 
ATOM      6  C   UNL     1       4.121   6.085  18.138  0.00  0.00    +0.000 A 
ATOM      7  C   UNL     1       3.288   7.211  18.111  0.00  0.00    +0.000 A 
ATOM      8  C   UNL     1       2.264   7.370  19.052  0.00  0.00    +0.000 A 
ATOM      9  C   UNL     1       2.088   6.404  20.041  0.00  0.00    +0.000 A 
ATOM     10  C   UNL     1       2.909   5.284  20.049  0.00  0.00    +0.000 A 
ATOM     11  O   UNL     1       2.686   4.328  21.059  0.00  0.00    +0.000 OA
ATOM     12  C   UNL     1       3.200   3.043  20.935  0.00  0.00    +0.000 C 
ATOM     13  O   UNL     1       3.152   2.240  21.866  0.00  0.00    +0.000 OA
BRANCH   3  14
ATOM     14  C   UNL     1       2.715   2.378  18.591  0.00  0.00    +0.000 C 
ATOM     15  O   UNL     1       2.814   2.528  17.382  0.00  0.00    +0.000 OA
BRANCH  14  17
ATOM     16  C   UNL     1       0.398   2.608  18.839  0.00  0.00    +0.000 C 
ATOM     17  O   UNL     1       1.593   1.922  19.220  0.00  0.00    +0.000 OA
ENDBRANCH  14  17
ENDBRANCH   3  14
ENDBRANCH   2   8
ENDBRANCH   1   2
BRANCH   1  18
ATOM     18  C   UNL     1       2.280  10.719  18.361  0.00  0.00    +0.000 C 
BRANCH  18  19
ATOM     19  C   UNL     1       1.104  11.473  18.866  0.00  0.00    +0.000 A 
ATOM     20  N   UNL     1      -0.179  11.082  18.547  0.00  0.00    +0.000 NA
ATOM     21  C   UNL     1      -0.950  11.942  19.187  0.00  0.00    +0.000 A 
ATOM     22  O   UNL     1      -0.256  12.878  19.909  0.00  0.00    +0.000 OA
ATOM     23  C   UNL     1       1.056  12.567  19.701  0.00  0.00    +0.000 A 
ATOM     24  C   UNL     1       2.058  13.399  20.386  0.00  0.00    +0.000 C 
BRANCH  21  25
ATOM     25  C   UNL     1      -2.406  12.006  19.269  0.00  0.00    +0.000 A 
ATOM     26  C   UNL     1      -3.017  12.653  20.347  0.00  0.00    +0.000 A 
ATOM     27  C   UNL     1      -4.411  12.766  20.423  0.00  0.00    +0.000 A 
ATOM     28  C   UNL     1      -5.247  12.239  19.423  0.00  0.00    +0.000 A 
ATOM     29  C   UNL     1      -4.623  11.564  18.360  0.00  0.00    +0.000 A 
ATOM     30  C   UNL     1      -3.229  11.452  18.281  0.00  0.00    +0.000 A 
BRANCH  28  31
ATOM     31  C   UNL     1      -6.775  12.417  19.443  0.00  0.00    +0.000 C 
ATOM     32  C   UNL     1      -7.518  11.219  20.079  0.00  0.00    +0.000 C 
ATOM     33  C   UNL     1      -7.135  13.671  20.272  0.00  0.00    +0.000 C 
ATOM     34  C   UNL     1      -7.324  12.591  18.012  0.00  0.00    +0.000 C 
ENDBRANCH  28  31
ENDBRANCH  21  25
ENDBRANCH  18  19
ENDBRANCH   1  18
TORSDOF 8
ENDMDL
MODEL 7
REMARK VINA RESULT:      -7.7      6.225      9.843
REMARK  Name = 
REMARK  13 active torsions:
REMARK  status: ('A' for Active; 'I' for Inactive)
REMARK    1  A    between atoms: C_1  and  O_2
REMARK    2  A    between atoms: O_2  and  C_3
REMARK    3  A    between atoms: C_3  and  C_5
REMARK    4  A    between atoms: C_10  and  O_11
REMARK    5  A    between atoms: O_11  and  C_12
REMARK    6  A    between atoms: C_12  and  C_13
REMARK    7  A    between atoms: C_13  and  C_14
REMARK    8  A    between atoms: C_16  and  C_17
REMARK    9  A    between atoms: C_20  and  C_21
REMARK   10  A    between atoms: C_21  and  C_22
REMARK   11  A    between atoms: C_21  and  C_23
REMARK   12  A    between atoms: C_21  and  C_24
REMARK   13  A    between atoms: C_28  and  C_29
REMARK                            x       y       z     vdW  Elec       q    Type
REMARK                         _______ _______ _______ _____ _____    ______ ____
ROOT
ATOM      1  C   UNL     1       1.498   9.180  17.805  0.00  0.00    +0.000 C 
ENDROOT
BRANCH   1   2
ATOM      2  O   UNL     1       1.733   8.229  18.849  0.00  0.00    +0.000 OA
BRANCH   2   8
ATOM      3  C   UNL     1       7.008   5.031  17.694  0.00  0.00    +0.000 C 
ATOM      4  C   UNL     1       5.755   4.295  18.157  0.00  0.00    +0.000 C 
ATOM      5  C   UNL     1       4.651   5.290  18.324  0.00  0.00    +0.000 A 
ATOM      6  C   UNL     1       3.692   5.196  19.332  0.00  0.00    +0.000 A 
ATOM      7  C   UNL     1       2.730   6.205  19.468  0.00  0.00    +0.000 A 
ATOM      8  C   UNL     1       2.704   7.296  18.593  0.00  0.00    +0.000 A 
ATOM      9  C   UNL     1       3.636   7.365  17.558  0.00  0.00    +0.000 A 
ATOM     10  C   UNL     1       4.595   6.367  17.442  0.00  0.00    +0.000 A 
ATOM     11  O   UNL     1       5.524   6.485  16.390  0.00  0.00    +0.000 OA
ATOM     12  C   UNL     1       6.705   5.753  16.411  0.00  0.00    +0.000 C 
ATOM     13  O   UNL     1       7.457   5.720  15.438  0.00  0.00    +0.000 OA
BRANCH   3  14
ATOM     14  C   UNL     1       7.560   5.975  18.734  0.00  0.00    +0.000 C 
ATOM     15  O   UNL     1       8.085   7.053  18.498  0.00  0.00    +0.000 OA
BRANCH  14  17
ATOM     16  C   UNL     1       8.664   5.154  20.630  0.00  0.00    +0.000 C 
ATOM     17  O   UNL     1       7.422   5.443  19.983  0.00  0.00    +0.000 OA
ENDBRANCH  14  17
ENDBRANCH   3  14
ENDBRANCH   2   8
ENDBRANCH   1   2
BRANCH   1  18
ATOM     18  C   UNL     1       1.592  10.591  18.375  0.00  0.00    +0.000 C 
BRANCH  18  19
ATOM     19  C   UNL     1       0.385  10.934  19.171  0.00  0.00    +0.000 A 
ATOM     20  N   UNL     1      -0.711  11.523  18.580  0.00  0.00    +0.000 NA
ATOM     21  C   UNL     1      -1.585  11.644  19.562  0.00  0.00    +0.000 A 
ATOM     22  O   UNL     1      -1.135  11.171  20.766  0.00  0.00    +0.000 OA
ATOM     23  C   UNL     1       0.124  10.715  20.506  0.00  0.00    +0.000 A 
ATOM     24  C   UNL     1       0.863  10.111  21.626  0.00  0.00    +0.000 C 
BRANCH  21  25
ATOM     25  C   UNL     1      -2.952  12.157  19.534  0.00  0.00    +0.000 A 
ATOM     26  C   UNL     1      -3.856  11.683  18.579  0.00  0.00    +0.000 A 
ATOM     27  C   UNL     1      -5.184  12.128  18.562  0.00  0.00    +0.000 A 
ATOM     28  C   UNL     1      -5.659  13.062  19.499  0.00  0.00    +0.000 A 
ATOM     29  C   UNL     1      -4.732  13.555  20.434  0.00  0.00    +0.000 A 
ATOM     30  C   UNL     1      -3.405  13.109  20.455  0.00  0.00    +0.000 A 
BRANCH  28  31
ATOM     31  C   UNL     1      -7.131  13.508  19.551  0.00  0.00    +0.000 C 
ATOM     32  C   UNL     1      -7.300  15.000  19.916  0.00  0.00    +0.000 C 
ATOM     33  C   UNL     1      -7.778  13.299  18.163  0.00  0.00    +0.000 C 
ATOM     34  C   UNL     1      -7.915  12.687  20.595  0.00  0.00    +0.000 C 
ENDBRANCH  28  31
ENDBRANCH  21  25
ENDBRANCH  18  19
ENDBRANCH   1  18
TORSDOF 8
ENDMDL
MODEL 8
REMARK VINA RESULT:      -7.7      5.472      7.802
REMARK  Name = 
REMARK  13 active torsions:
REMARK  status: ('A' for Active; 'I' for Inactive)
REMARK    1  A    between atoms: C_1  and  O_2
REMARK    2  A    between atoms: O_2  and  C_3
REMARK    3  A    between atoms: C_3  and  C_5
REMARK    4  A    between atoms: C_10  and  O_11
REMARK    5  A    between atoms: O_11  and  C_12
REMARK    6  A    between atoms: C_12  and  C_13
REMARK    7  A    between atoms: C_13  and  C_14
REMARK    8  A    between atoms: C_16  and  C_17
REMARK    9  A    between atoms: C_20  and  C_21
REMARK   10  A    between atoms: C_21  and  C_22
REMARK   11  A    between atoms: C_21  and  C_23
REMARK   12  A    between atoms: C_21  and  C_24
REMARK   13  A    between atoms: C_28  and  C_29
REMARK                            x       y       z     vdW  Elec       q    Type
REMARK                         _______ _______ _______ _____ _____    ______ ____
ROOT
ATOM      1  C   UNL     1       1.659   7.869  20.047  0.00  0.00    +0.000 C 
ENDROOT
BRANCH   1   2
ATOM      2  O   UNL     1       2.223   6.628  20.485  0.00  0.00    +0.000 OA
BRANCH   2   8
ATOM      3  C   UNL     1       6.326   4.452  16.264  0.00  0.00    +0.000 C 
ATOM      4  C   UNL     1       5.262   3.525  16.842  0.00  0.00    +0.000 C 
ATOM      5  C   UNL     1       4.410   4.308  17.790  0.00  0.00    +0.000 A 
ATOM      6  C   UNL     1       3.887   3.767  18.964  0.00  0.00    +0.000 A 
ATOM      7  C   UNL     1       3.156   4.583  19.837  0.00  0.00    +0.000 A 
ATOM      8  C   UNL     1       2.926   5.930  19.538  0.00  0.00    +0.000 A 
ATOM      9  C   UNL     1       3.411   6.458  18.342  0.00  0.00    +0.000 A 
ATOM     10  C   UNL     1       4.148   5.643  17.491  0.00  0.00    +0.000 A 
ATOM     11  O   UNL     1       4.629   6.223  16.301  0.00  0.00    +0.000 OA
ATOM     12  C   UNL     1       5.649   5.609  15.584  0.00  0.00    +0.000 C 
ATOM     13  O   UNL     1       5.981   6.009  14.469  0.00  0.00    +0.000 OA
BRANCH   3  14
ATOM     14  C   UNL     1       7.320   4.929  17.294  0.00  0.00    +0.000 C 
ATOM     15  O   UNL     1       7.700   4.283  18.259  0.00  0.00    +0.000 OA
BRANCH  14  17
ATOM     16  C   UNL     1       7.714   7.071  18.156  0.00  0.00    +0.000 C 
ATOM     17  O   UNL     1       7.718   6.206  17.018  0.00  0.00    +0.000 OA
ENDBRANCH  14  17
ENDBRANCH   3  14
ENDBRANCH   2   8
ENDBRANCH   1   2
BRANCH   1  18
ATOM     18  C   UNL     1       0.526   8.269  20.986  0.00  0.00    +0.000 C 
BRANCH  18  19
ATOM     19  C   UNL     1       0.443   9.745  21.136  0.00  0.00    +0.000 A 
ATOM     20  N   UNL     1       0.928  10.585  20.158  0.00  0.00    +0.000 NA
ATOM     21  C   UNL     1       0.654  11.797  20.605  0.00  0.00    +0.000 A 
ATOM     22  O   UNL     1       0.019  11.810  21.819  0.00  0.00    +0.000 OA
ATOM     23  C   UNL     1      -0.117  10.493  22.148  0.00  0.00    +0.000 A 
ATOM     24  C   UNL     1      -0.802  10.186  23.413  0.00  0.00    +0.000 C 
BRANCH  21  25
ATOM     25  C   UNL     1       0.888  13.096  19.979  0.00  0.00    +0.000 A 
ATOM     26  C   UNL     1       0.083  14.188  20.316  0.00  0.00    +0.000 A 
ATOM     27  C   UNL     1       0.317  15.453  19.762  0.00  0.00    +0.000 A 
ATOM     28  C   UNL     1       1.366  15.675  18.854  0.00  0.00    +0.000 A 
ATOM     29  C   UNL     1       2.149  14.563  18.498  0.00  0.00    +0.000 A 
ATOM     30  C   UNL     1       1.918  13.298  19.053  0.00  0.00    +0.000 A 
BRANCH  28  31
ATOM     31  C   UNL     1       1.693  17.069  18.291  0.00  0.00    +0.000 C 
ATOM     32  C   UNL     1       0.502  17.721  17.551  0.00  0.00    +0.000 C 
ATOM     33  C   UNL     1       2.083  18.012  19.452  0.00  0.00    +0.000 C 
ATOM     34  C   UNL     1       2.868  16.994  17.294  0.00  0.00    +0.000 C 
ENDBRANCH  28  31
ENDBRANCH  21  25
ENDBRANCH  18  19
ENDBRANCH   1  18
TORSDOF 8
ENDMDL
MODEL 9
REMARK VINA RESULT:      -7.7      6.282      7.586
REMARK  Name = 
REMARK  13 active torsions:
REMARK  status: ('A' for Active; 'I' for Inactive)
REMARK    1  A    between atoms: C_1  and  O_2
REMARK    2  A    between atoms: O_2  and  C_3
REMARK    3  A    between atoms: C_3  and  C_5
REMARK    4  A    between atoms: C_10  and  O_11
REMARK    5  A    between atoms: O_11  and  C_12
REMARK    6  A    between atoms: C_12  and  C_13
REMARK    7  A    between atoms: C_13  and  C_14
REMARK    8  A    between atoms: C_16  and  C_17
REMARK    9  A    between atoms: C_20  and  C_21
REMARK   10  A    between atoms: C_21  and  C_22
REMARK   11  A    between atoms: C_21  and  C_23
REMARK   12  A    between atoms: C_21  and  C_24
REMARK   13  A    between atoms: C_28  and  C_29
REMARK                            x       y       z     vdW  Elec       q    Type
REMARK                         _______ _______ _______ _____ _____    ______ ____
ROOT
ATOM      1  C   UNL     1       1.954  10.023  18.239  0.00  0.00    +0.000 C 
ENDROOT
BRANCH   1   2
ATOM      2  O   UNL     1       2.169   8.903  17.374  0.00  0.00    +0.000 OA
BRANCH   2   8
ATOM      3  C   UNL     1       3.263   3.289  19.960  0.00  0.00    +0.000 C 
ATOM      4  C   UNL     1       4.430   4.168  19.520  0.00  0.00    +0.000 C 
ATOM      5  C   UNL     1       3.884   5.449  18.973  0.00  0.00    +0.000 A 
ATOM      6  C   UNL     1       4.462   6.121  17.897  0.00  0.00    +0.000 A 
ATOM      7  C   UNL     1       3.853   7.278  17.395  0.00  0.00    +0.000 A 
ATOM      8  C   UNL     1       2.682   7.782  17.974  0.00  0.00    +0.000 A 
ATOM      9  C   UNL     1       2.131   7.134  19.078  0.00  0.00    +0.000 A 
ATOM     10  C   UNL     1       2.736   5.978  19.557  0.00  0.00    +0.000 A 
ATOM     11  O   UNL     1       2.136   5.351  20.667  0.00  0.00    +0.000 OA
ATOM     12  C   UNL     1       2.448   4.033  20.981  0.00  0.00    +0.000 C 
ATOM     13  O   UNL     1       2.060   3.513  22.026  0.00  0.00    +0.000 OA
BRANCH   3  14
ATOM     14  C   UNL     1       2.404   2.825  18.809  0.00  0.00    +0.000 C 
ATOM     15  O   UNL     1       1.182   2.844  18.791  0.00  0.00    +0.000 OA
BRANCH  14  17
ATOM     16  C   UNL     1       3.862   1.130  18.111  0.00  0.00    +0.000 C 
ATOM     17  O   UNL     1       3.182   2.348  17.794  0.00  0.00    +0.000 OA
ENDBRANCH  14  17
ENDBRANCH   3  14
ENDBRANCH   2   8
ENDBRANCH   1   2
BRANCH   1  18
ATOM     18  C   UNL     1       0.495  10.049  18.681  0.00  0.00    +0.000 C 
BRANCH  18  19
ATOM     19  C   UNL     1       0.351  10.635  20.038  0.00  0.00    +0.000 A 
ATOM     20  N   UNL     1      -0.183  11.893  20.214  0.00  0.00    +0.000 NA
ATOM     21  C   UNL     1      -0.192  12.064  21.523  0.00  0.00    +0.000 A 
ATOM     22  O   UNL     1       0.305  10.996  22.224  0.00  0.00    +0.000 OA
ATOM     23  C   UNL     1       0.645  10.086  21.267  0.00  0.00    +0.000 A 
ATOM     24  C   UNL     1       1.191   8.800  21.729  0.00  0.00    +0.000 C 
BRANCH  21  25
ATOM     25  C   UNL     1      -0.687  13.187  22.313  0.00  0.00    +0.000 A 
ATOM     26  C   UNL     1      -1.859  13.050  23.062  0.00  0.00    +0.000 A 
ATOM     27  C   UNL     1      -2.329  14.099  23.863  0.00  0.00    +0.000 A 
ATOM     28  C   UNL     1      -1.645  15.324  23.946  0.00  0.00    +0.000 A 
ATOM     29  C   UNL     1      -0.485  15.461  23.163  0.00  0.00    +0.000 A 
ATOM     30  C   UNL     1      -0.012  14.412  22.365  0.00  0.00    +0.000 A 
BRANCH  28  31
ATOM     31  C   UNL     1      -2.096  16.464  24.876  0.00  0.00    +0.000 C 
ATOM     32  C   UNL     1      -1.824  17.868  24.292  0.00  0.00    +0.000 C 
ATOM     33  C   UNL     1      -3.619  16.354  25.117  0.00  0.00    +0.000 C 
ATOM     34  C   UNL     1      -1.370  16.381  26.235  0.00  0.00    +0.000 C 
ENDBRANCH  28  31
ENDBRANCH  21  25
ENDBRANCH  18  19
ENDBRANCH   1  18
TORSDOF 8
ENDMDL
