MODEL 1
REMARK VINA RESULT:      -7.1      0.000      0.000
REMARK  Name = 
REMARK  6 active torsions:
REMARK  status: ('A' for Active; 'I' for Inactive)
REMARK    1  A    between atoms: C_1  and  O_2
REMARK    2  A    between atoms: O_2  and  C_3
REMARK    3  A    between atoms: C_5  and  O_6
REMARK    4  A    between atoms: O_6  and  C_7
REMARK    5  A    between atoms: C_9  and  O_10
REMARK    6  A    between atoms: C_15  and  C_16
REMARK                            x       y       z     vdW  Elec       q    Type
REMARK                         _______ _______ _______ _____ _____    ______ ____
ROOT
ATOM      1  C   UNL     1       5.115   4.360  16.815  0.00  0.00    +0.000 A 
ATOM      2  C   UNL     1       4.788   3.666  17.974  0.00  0.00    +0.000 A 
ATOM      3  C   UNL     1       3.972   4.255  18.942  0.00  0.00    +0.000 A 
ATOM      4  C   UNL     1       3.465   5.579  18.776  0.00  0.00    +0.000 A 
ATOM      5  C   UNL     1       2.623   6.241  19.718  0.00  0.00    +0.000 A 
ATOM      6  C   UNL     1       2.153   7.543  19.510  0.00  0.00    +0.000 A 
ATOM      7  C   UNL     1       1.277   8.235  20.486  0.00  0.00    +0.000 A 
ATOM      8  O   UNL     1       0.878   7.764  21.544  0.00  0.00    +0.000 OA
ATOM      9  C   UNL     1       0.863   9.595  20.135  0.00  0.00    +0.000 A 
ATOM     10  C   UNL     1       1.273  10.149  18.987  0.00  0.00    +0.000 A 
ATOM     11  C   UNL     1       0.861  11.536  18.613  0.00  0.00    +0.000 C 
ATOM     12  O   UNL     1       2.095   9.507  18.070  0.00  0.00    +0.000 OA
ATOM     13  C   UNL     1       2.514   8.224  18.351  0.00  0.00    +0.000 A 
ATOM     14  C   UNL     1       3.343   7.603  17.406  0.00  0.00    +0.000 A 
ATOM     15  C   UNL     1       3.822   6.289  17.602  0.00  0.00    +0.000 A 
ATOM     16  C   UNL     1       4.651   5.666  16.643  0.00  0.00    +0.000 A 
ENDROOT
BRANCH   1  18
ATOM     17  C   UNL     1       6.986   4.712  15.403  0.00  0.00    +0.000 C 
ATOM     18  O   UNL     1       5.915   3.864  15.818  0.00  0.00    +0.000 OA
ENDBRANCH   1  18
BRANCH   3  19
ATOM     19  O   UNL     1       3.611   3.613  20.108  0.00  0.00    +0.000 OA
ATOM     20  C   UNL     1       4.162   2.331  20.378  0.00  0.00    +0.000 C 
ENDBRANCH   3  19
BRANCH   5  21
ATOM     21  O   UNL     1       2.245   5.603  20.874  0.00  0.00    +0.000 OA
ATOM     22  H   UNL     1       2.889   5.820  21.572  0.00  0.00    +0.000 HD
ENDBRANCH   5  21
TORSDOF 3
ENDMDL
MODEL 2
REMARK VINA RESULT:      -6.9      1.271      5.972
REMARK  Name = 
REMARK  6 active torsions:
REMARK  status: ('A' for Active; 'I' for Inactive)
REMARK    1  A    between atoms: C_1  and  O_2
REMARK    2  A    between atoms: O_2  and  C_3
REMARK    3  A    between atoms: C_5  and  O_6
REMARK    4  A    between atoms: O_6  and  C_7
REMARK    5  A    between atoms: C_9  and  O_10
REMARK    6  A    between atoms: C_15  and  C_16
REMARK                            x       y       z     vdW  Elec       q    Type
REMARK                         _______ _______ _______ _____ _____    ______ ____
ROOT
ATOM      1  C   UNL     1       1.204  10.772  18.908  0.00  0.00    +0.000 A 
ATOM      2  C   UNL     1       0.736  10.213  20.091  0.00  0.00    +0.000 A 
ATOM      3  C   UNL     1       1.067   8.899  20.429  0.00  0.00    +0.000 A 
ATOM      4  C   UNL     1       1.876   8.096  19.570  0.00  0.00    +0.000 A 
ATOM      5  C   UNL     1       2.259   6.751  19.852  0.00  0.00    +0.000 A 
ATOM      6  C   UNL     1       3.053   6.003  18.975  0.00  0.00    +0.000 A 
ATOM      7  C   UNL     1       3.453   4.605  19.264  0.00  0.00    +0.000 A 
ATOM      8  O   UNL     1       3.149   3.969  20.265  0.00  0.00    +0.000 OA
ATOM      9  C   UNL     1       4.287   3.947  18.254  0.00  0.00    +0.000 A 
ATOM     10  C   UNL     1       4.646   4.605  17.145  0.00  0.00    +0.000 A 
ATOM     11  C   UNL     1       5.495   3.949  16.104  0.00  0.00    +0.000 C 
ATOM     12  O   UNL     1       4.273   5.914  16.868  0.00  0.00    +0.000 OA
ATOM     13  C   UNL     1       3.489   6.580  17.786  0.00  0.00    +0.000 A 
ATOM     14  C   UNL     1       3.128   7.899  17.477  0.00  0.00    +0.000 A 
ATOM     15  C   UNL     1       2.330   8.666  18.354  0.00  0.00    +0.000 A 
ATOM     16  C   UNL     1       1.976   9.996  18.040  0.00  0.00    +0.000 A 
ENDROOT
BRANCH   1  18
ATOM     17  C   UNL     1       2.049  12.908  18.326  0.00  0.00    +0.000 C 
ATOM     18  O   UNL     1       0.922  12.048  18.494  0.00  0.00    +0.000 OA
ENDBRANCH   1  18
BRANCH   3  19
ATOM     19  O   UNL     1       0.637   8.293  21.591  0.00  0.00    +0.000 OA
ATOM     20  C   UNL     1      -0.311   8.974  22.403  0.00  0.00    +0.000 C 
ENDBRANCH   3  19
BRANCH   5  21
ATOM     21  O   UNL     1       1.849   6.146  21.015  0.00  0.00    +0.000 OA
ATOM     22  H   UNL     1       0.876   6.104  21.016  0.00  0.00    +0.000 HD
ENDBRANCH   5  21
TORSDOF 3
ENDMDL
MODEL 3
REMARK VINA RESULT:      -6.6      1.726      6.330
REMARK  Name = 
REMARK  6 active torsions:
REMARK  status: ('A' for Active; 'I' for Inactive)
REMARK    1  A    between atoms: C_1  and  O_2
REMARK    2  A    between atoms: O_2  and  C_3
REMARK    3  A    between atoms: C_5  and  O_6
REMARK    4  A    between atoms: O_6  and  C_7
REMARK    5  A    between atoms: C_9  and  O_10
REMARK    6  A    between atoms: C_15  and  C_16
REMARK                            x       y       z     vdW  Elec       q    Type
REMARK                         _______ _______ _______ _____ _____    ______ ____
ROOT
ATOM      1  C   UNL     1      -0.042  11.349  19.320  0.00  0.00    +0.000 A 
ATOM      2  C   UNL     1      -0.322  10.675  20.503  0.00  0.00    +0.000 A 
ATOM      3  C   UNL     1       0.282   9.445  20.773  0.00  0.00    +0.000 A 
ATOM      4  C   UNL     1       1.186   8.845  19.845  0.00  0.00    +0.000 A 
ATOM      5  C   UNL     1       1.844   7.597  20.056  0.00  0.00    +0.000 A 
ATOM      6  C   UNL     1       2.720   7.048  19.112  0.00  0.00    +0.000 A 
ATOM      7  C   UNL     1       3.406   5.752  19.327  0.00  0.00    +0.000 A 
ATOM      8  O   UNL     1       3.291   5.041  20.317  0.00  0.00    +0.000 OA
ATOM      9  C   UNL     1       4.295   5.303  18.253  0.00  0.00    +0.000 A 
ATOM     10  C   UNL     1       4.453   6.050  17.153  0.00  0.00    +0.000 A 
ATOM     11  C   UNL     1       5.355   5.607  16.047  0.00  0.00    +0.000 C 
ATOM     12  O   UNL     1       3.812   7.264  16.945  0.00  0.00    +0.000 OA
ATOM     13  C   UNL     1       2.964   7.734  17.926  0.00  0.00    +0.000 A 
ATOM     14  C   UNL     1       2.331   8.961  17.686  0.00  0.00    +0.000 A 
ATOM     15  C   UNL     1       1.447   9.528  18.630  0.00  0.00    +0.000 A 
ATOM     16  C   UNL     1       0.818  10.768  18.386  0.00  0.00    +0.000 A 
ENDROOT
BRANCH   1  18
ATOM     17  C   UNL     1       0.261  13.688  19.094  0.00  0.00    +0.000 C 
ATOM     18  O   UNL     1      -0.596  12.553  18.969  0.00  0.00    +0.000 OA
ENDBRANCH   1  18
BRANCH   3  19
ATOM     19  O   UNL     1       0.048   8.734  21.931  0.00  0.00    +0.000 OA
ATOM     20  C   UNL     1      -0.007   9.440  23.164  0.00  0.00    +0.000 C 
ENDBRANCH   3  19
BRANCH   5  21
ATOM     21  O   UNL     1       1.629   6.890  21.214  0.00  0.00    +0.000 OA
ATOM     22  H   UNL     1       0.806   7.211  21.624  0.00  0.00    +0.000 HD
ENDBRANCH   5  21
TORSDOF 3
ENDMDL
MODEL 4
REMARK VINA RESULT:      -6.6      1.484      6.867
REMARK  Name = 
REMARK  6 active torsions:
REMARK  status: ('A' for Active; 'I' for Inactive)
REMARK    1  A    between atoms: C_1  and  O_2
REMARK    2  A    between atoms: O_2  and  C_3
REMARK    3  A    between atoms: C_5  and  O_6
REMARK    4  A    between atoms: O_6  and  C_7
REMARK    5  A    between atoms: C_9  and  O_10
REMARK    6  A    between atoms: C_15  and  C_16
REMARK                            x       y       z     vdW  Elec       q    Type
REMARK                         _______ _______ _______ _____ _____    ______ ____
ROOT
ATOM      1  C   UNL     1       0.189   9.552  21.054  0.00  0.00    +0.000 A 
ATOM      2  C   UNL     1       0.623  10.220  19.915  0.00  0.00    +0.000 A 
ATOM      3  C   UNL     1       1.465   9.582  19.002  0.00  0.00    +0.000 A 
ATOM      4  C   UNL     1       1.908   8.241  19.216  0.00  0.00    +0.000 A 
ATOM      5  C   UNL     1       2.761   7.525  18.325  0.00  0.00    +0.000 A 
ATOM      6  C   UNL     1       3.170   6.211  18.582  0.00  0.00    +0.000 A 
ATOM      7  C   UNL     1       4.056   5.462  17.659  0.00  0.00    +0.000 A 
ATOM      8  O   UNL     1       4.512   5.889  16.606  0.00  0.00    +0.000 OA
ATOM      9  C   UNL     1       4.401   4.095  18.057  0.00  0.00    +0.000 A 
ATOM     10  C   UNL     1       3.923   3.586  19.200  0.00  0.00    +0.000 A 
ATOM     11  C   UNL     1       4.266   2.194  19.623  0.00  0.00    +0.000 C 
ATOM     12  O   UNL     1       3.095   4.283  20.070  0.00  0.00    +0.000 OA
ATOM     13  C   UNL     1       2.739   5.574  19.742  0.00  0.00    +0.000 A 
ATOM     14  C   UNL     1       1.902   6.251  20.640  0.00  0.00    +0.000 A 
ATOM     15  C   UNL     1       1.479   7.576  20.392  0.00  0.00    +0.000 A 
ATOM     16  C   UNL     1       0.631   8.250  21.297  0.00  0.00    +0.000 A 
ENDROOT
BRANCH   1  18
ATOM     17  C   UNL     1      -0.312   9.776  23.360  0.00  0.00    +0.000 C 
ATOM     18  O   UNL     1      -0.628  10.104  22.007  0.00  0.00    +0.000 OA
ENDBRANCH   1  18
BRANCH   3  19
ATOM     19  O   UNL     1       1.923  10.191  17.853  0.00  0.00    +0.000 OA
ATOM     20  C   UNL     1       2.349  11.545  17.924  0.00  0.00    +0.000 C 
ENDBRANCH   3  19
BRANCH   5  21
ATOM     21  O   UNL     1       3.208   8.118  17.171  0.00  0.00    +0.000 OA
ATOM     22  H   UNL     1       4.156   8.318  17.273  0.00  0.00    +0.000 HD
ENDBRANCH   5  21
TORSDOF 3
ENDMDL
MODEL 5
REMARK VINA RESULT:      -6.6      1.188      1.585
REMARK  Name = 
REMARK  6 active torsions:
REMARK  status: ('A' for Active; 'I' for Inactive)
REMARK    1  A    between atoms: C_1  and  O_2
REMARK    2  A    between atoms: O_2  and  C_3
REMARK    3  A    between atoms: C_5  and  O_6
REMARK    4  A    between atoms: O_6  and  C_7
REMARK    5  A    between atoms: C_9  and  O_10
REMARK    6  A    between atoms: C_15  and  C_16
REMARK                            x       y       z     vdW  Elec       q    Type
REMARK                         _______ _______ _______ _____ _____    ______ ____
ROOT
ATOM      1  C   UNL     1       3.920   4.818  17.719  0.00  0.00    +0.000 A 
ATOM      2  C   UNL     1       3.523   4.365  18.971  0.00  0.00    +0.000 A 
ATOM      3  C   UNL     1       2.825   5.210  19.837  0.00  0.00    +0.000 A 
ATOM      4  C   UNL     1       2.514   6.554  19.468  0.00  0.00    +0.000 A 
ATOM      5  C   UNL     1       1.800   7.470  20.296  0.00  0.00    +0.000 A 
ATOM      6  C   UNL     1       1.521   8.780  19.889  0.00  0.00    +0.000 A 
ATOM      7  C   UNL     1       0.780   9.735  20.746  0.00  0.00    +0.000 A 
ATOM      8  O   UNL     1       0.341   9.497  21.864  0.00  0.00    +0.000 OA
ATOM      9  C   UNL     1       0.561  11.072  20.188  0.00  0.00    +0.000 A 
ATOM     10  C   UNL     1       1.021  11.376  18.968  0.00  0.00    +0.000 A 
ATOM     11  C   UNL     1       0.809  12.736  18.384  0.00  0.00    +0.000 C 
ATOM     12  O   UNL     1       1.718  10.487  18.162  0.00  0.00    +0.000 OA
ATOM     13  C   UNL     1       1.951   9.214  18.638  0.00  0.00    +0.000 A 
ATOM     14  C   UNL     1       2.657   8.339  17.801  0.00  0.00    +0.000 A 
ATOM     15  C   UNL     1       2.942   7.014  18.198  0.00  0.00    +0.000 A 
ATOM     16  C   UNL     1       3.649   6.136  17.347  0.00  0.00    +0.000 A 
ENDROOT
BRANCH   1  18
ATOM     17  C   UNL     1       5.958   4.474  16.559  0.00  0.00    +0.000 C 
ATOM     18  O   UNL     1       4.615   4.061  16.810  0.00  0.00    +0.000 OA
ENDBRANCH   1  18
BRANCH   3  19
ATOM     19  O   UNL     1       2.401   4.816  21.088  0.00  0.00    +0.000 OA
ATOM     20  C   UNL     1       2.065   3.450  21.294  0.00  0.00    +0.000 C 
ENDBRANCH   3  19
BRANCH   5  21
ATOM     21  O   UNL     1       1.359   7.080  21.537  0.00  0.00    +0.000 OA
ATOM     22  H   UNL     1       1.044   6.161  21.479  0.00  0.00    +0.000 HD
ENDBRANCH   5  21
TORSDOF 3
ENDMDL
MODEL 6
REMARK VINA RESULT:      -6.5      1.639      3.626
REMARK  Name = 
REMARK  6 active torsions:
REMARK  status: ('A' for Active; 'I' for Inactive)
REMARK    1  A    between atoms: C_1  and  O_2
REMARK    2  A    between atoms: O_2  and  C_3
REMARK    3  A    between atoms: C_5  and  O_6
REMARK    4  A    between atoms: O_6  and  C_7
REMARK    5  A    between atoms: C_9  and  O_10
REMARK    6  A    between atoms: C_15  and  C_16
REMARK                            x       y       z     vdW  Elec       q    Type
REMARK                         _______ _______ _______ _____ _____    ______ ____
ROOT
ATOM      1  C   UNL     1       3.397   4.017  19.316  0.00  0.00    +0.000 A 
ATOM      2  C   UNL     1       3.805   4.656  18.152  0.00  0.00    +0.000 A 
ATOM      3  C   UNL     1       3.458   5.989  17.920  0.00  0.00    +0.000 A 
ATOM      4  C   UNL     1       2.671   6.722  18.859  0.00  0.00    +0.000 A 
ATOM      5  C   UNL     1       2.284   8.085  18.693  0.00  0.00    +0.000 A 
ATOM      6  C   UNL     1       1.508   8.760  19.643  0.00  0.00    +0.000 A 
ATOM      7  C   UNL     1       1.103  10.176  19.474  0.00  0.00    +0.000 A 
ATOM      8  O   UNL     1       1.392  10.891  18.524  0.00  0.00    +0.000 OA
ATOM      9  C   UNL     1       0.292  10.751  20.551  0.00  0.00    +0.000 A 
ATOM     10  C   UNL     1      -0.046  10.006  21.611  0.00  0.00    +0.000 A 
ATOM     11  C   UNL     1      -0.874  10.576  22.717  0.00  0.00    +0.000 C 
ATOM     12  O   UNL     1       0.328   8.679  21.773  0.00  0.00    +0.000 OA
ATOM     13  C   UNL     1       1.094   8.088  20.790  0.00  0.00    +0.000 A 
ATOM     14  C   UNL     1       1.454   6.747  20.982  0.00  0.00    +0.000 A 
ATOM     15  C   UNL     1       2.239   6.056  20.034  0.00  0.00    +0.000 A 
ATOM     16  C   UNL     1       2.605   4.707  20.237  0.00  0.00    +0.000 A 
ENDROOT
BRANCH   1  18
ATOM     17  C   UNL     1       3.540   1.779  18.549  0.00  0.00    +0.000 C 
ATOM     18  O   UNL     1       3.685   2.711  19.621  0.00  0.00    +0.000 OA
ENDBRANCH   1  18
BRANCH   3  19
ATOM     19  O   UNL     1       3.838   6.676  16.787  0.00  0.00    +0.000 OA
ATOM     20  C   UNL     1       5.151   6.478  16.279  0.00  0.00    +0.000 C 
ENDBRANCH   3  19
BRANCH   5  21
ATOM     21  O   UNL     1       2.672   8.782  17.575  0.00  0.00    +0.000 OA
ATOM     22  H   UNL     1       2.299   9.680  17.625  0.00  0.00    +0.000 HD
ENDBRANCH   5  21
TORSDOF 3
ENDMDL
MODEL 7
REMARK VINA RESULT:      -6.5      1.522      3.847
REMARK  Name = 
REMARK  6 active torsions:
REMARK  status: ('A' for Active; 'I' for Inactive)
REMARK    1  A    between atoms: C_1  and  O_2
REMARK    2  A    between atoms: O_2  and  C_3
REMARK    3  A    between atoms: C_5  and  O_6
REMARK    4  A    between atoms: O_6  and  C_7
REMARK    5  A    between atoms: C_9  and  O_10
REMARK    6  A    between atoms: C_15  and  C_16
REMARK                            x       y       z     vdW  Elec       q    Type
REMARK                         _______ _______ _______ _____ _____    ______ ____
ROOT
ATOM      1  C   UNL     1       2.862   4.012  20.182  0.00  0.00    +0.000 A 
ATOM      2  C   UNL     1       3.446   4.241  18.942  0.00  0.00    +0.000 A 
ATOM      3  C   UNL     1       3.343   5.494  18.335  0.00  0.00    +0.000 A 
ATOM      4  C   UNL     1       2.632   6.563  18.960  0.00  0.00    +0.000 A 
ATOM      5  C   UNL     1       2.492   7.869  18.404  0.00  0.00    +0.000 A 
ATOM      6  C   UNL     1       1.781   8.884  19.056  0.00  0.00    +0.000 A 
ATOM      7  C   UNL     1       1.633  10.242  18.482  0.00  0.00    +0.000 A 
ATOM      8  O   UNL     1       2.098  10.619  17.414  0.00  0.00    +0.000 OA
ATOM      9  C   UNL     1       0.862  11.202  19.277  0.00  0.00    +0.000 A 
ATOM     10  C   UNL     1       0.336  10.834  20.452  0.00  0.00    +0.000 A 
ATOM     11  C   UNL     1      -0.454  11.799  21.276  0.00  0.00    +0.000 C 
ATOM     12  O   UNL     1       0.470   9.562  20.994  0.00  0.00    +0.000 OA
ATOM     13  C   UNL     1       1.187   8.620  20.287  0.00  0.00    +0.000 A 
ATOM     14  C   UNL     1       1.303   7.346  20.860  0.00  0.00    +0.000 A 
ATOM     15  C   UNL     1       2.020   6.314  20.215  0.00  0.00    +0.000 A 
ATOM     16  C   UNL     1       2.139   5.035  20.800  0.00  0.00    +0.000 A 
ENDROOT
BRANCH   1  18
ATOM     17  C   UNL     1       1.834   2.570  21.757  0.00  0.00    +0.000 C 
ATOM     18  O   UNL     1       2.905   2.813  20.846  0.00  0.00    +0.000 OA
ENDBRANCH   1  18
BRANCH   3  19
ATOM     19  O   UNL     1       3.906   5.781  17.110  0.00  0.00    +0.000 OA
ATOM     20  C   UNL     1       4.847   4.867  16.561  0.00  0.00    +0.000 C 
ENDBRANCH   3  19
BRANCH   5  21
ATOM     21  O   UNL     1       3.063   8.168  17.191  0.00  0.00    +0.000 OA
ATOM     22  H   UNL     1       2.359   8.449  16.579  0.00  0.00    +0.000 HD
ENDBRANCH   5  21
TORSDOF 3
ENDMDL
MODEL 8
REMARK VINA RESULT:      -6.5      1.342      3.456
REMARK  Name = 
REMARK  6 active torsions:
REMARK  status: ('A' for Active; 'I' for Inactive)
REMARK    1  A    between atoms: C_1  and  O_2
REMARK    2  A    between atoms: O_2  and  C_3
REMARK    3  A    between atoms: C_5  and  O_6
REMARK    4  A    between atoms: O_6  and  C_7
REMARK    5  A    between atoms: C_9  and  O_10
REMARK    6  A    between atoms: C_15  and  C_16
REMARK                            x       y       z     vdW  Elec       q    Type
REMARK                         _______ _______ _______ _____ _____    ______ ____
ROOT
ATOM      1  C   UNL     1       3.928   3.398  18.897  0.00  0.00    +0.000 A 
ATOM      2  C   UNL     1       4.355   4.056  17.750  0.00  0.00    +0.000 A 
ATOM      3  C   UNL     1       3.997   5.387  17.526  0.00  0.00    +0.000 A 
ATOM      4  C   UNL     1       3.180   6.099  18.456  0.00  0.00    +0.000 A 
ATOM      5  C   UNL     1       2.781   7.460  18.298  0.00  0.00    +0.000 A 
ATOM      6  C   UNL     1       1.976   8.114  19.238  0.00  0.00    +0.000 A 
ATOM      7  C   UNL     1       1.559   9.527  19.077  0.00  0.00    +0.000 A 
ATOM      8  O   UNL     1       1.861  10.257  18.142  0.00  0.00    +0.000 OA
ATOM      9  C   UNL     1       0.716  10.079  20.141  0.00  0.00    +0.000 A 
ATOM     10  C   UNL     1       0.363   9.317  21.184  0.00  0.00    +0.000 A 
ATOM     11  C   UNL     1      -0.497   9.864  22.278  0.00  0.00    +0.000 C 
ATOM     12  O   UNL     1       0.749   7.993  21.339  0.00  0.00    +0.000 OA
ATOM     13  C   UNL     1       1.543   7.423  20.366  0.00  0.00    +0.000 A 
ATOM     14  C   UNL     1       1.915   6.084  20.551  0.00  0.00    +0.000 A 
ATOM     15  C   UNL     1       2.730   5.413  19.612  0.00  0.00    +0.000 A 
ATOM     16  C   UNL     1       3.107   4.067  19.807  0.00  0.00    +0.000 A 
ENDROOT
BRANCH   1  18
ATOM     17  C   UNL     1       4.694   1.847  20.517  0.00  0.00    +0.000 C 
ATOM     18  O   UNL     1       4.223   2.091  19.192  0.00  0.00    +0.000 OA
ENDBRANCH   1  18
BRANCH   3  19
ATOM     19  O   UNL     1       4.395   6.093  16.411  0.00  0.00    +0.000 OA
ATOM     20  C   UNL     1       5.503   5.612  15.661  0.00  0.00    +0.000 C 
ENDBRANCH   3  19
BRANCH   5  21
ATOM     21  O   UNL     1       3.186   8.174  17.197  0.00  0.00    +0.000 OA
ATOM     22  H   UNL     1       4.148   8.316  17.257  0.00  0.00    +0.000 HD
ENDBRANCH   5  21
TORSDOF 3
ENDMDL
MODEL 9
REMARK VINA RESULT:      -6.5      1.901      7.377
REMARK  Name = 
REMARK  6 active torsions:
REMARK  status: ('A' for Active; 'I' for Inactive)
REMARK    1  A    between atoms: C_1  and  O_2
REMARK    2  A    between atoms: O_2  and  C_3
REMARK    3  A    between atoms: C_5  and  O_6
REMARK    4  A    between atoms: O_6  and  C_7
REMARK    5  A    between atoms: C_9  and  O_10
REMARK    6  A    between atoms: C_15  and  C_16
REMARK                            x       y       z     vdW  Elec       q    Type
REMARK                         _______ _______ _______ _____ _____    ______ ____
ROOT
ATOM      1  C   UNL     1      -0.514  10.286  22.015  0.00  0.00    +0.000 A 
ATOM      2  C   UNL     1      -0.430  11.104  20.895  0.00  0.00    +0.000 A 
ATOM      3  C   UNL     1       0.308  10.700  19.781  0.00  0.00    +0.000 A 
ATOM      4  C   UNL     1       1.000   9.452  19.766  0.00  0.00    +0.000 A 
ATOM      5  C   UNL     1       1.767   8.971  18.663  0.00  0.00    +0.000 A 
ATOM      6  C   UNL     1       2.431   7.739  18.698  0.00  0.00    +0.000 A 
ATOM      7  C   UNL     1       3.228   7.236  17.555  0.00  0.00    +0.000 A 
ATOM      8  O   UNL     1       3.390   7.815  16.488  0.00  0.00    +0.000 OA
ATOM      9  C   UNL     1       3.867   5.929  17.734  0.00  0.00    +0.000 A 
ATOM     10  C   UNL     1       3.715   5.258  18.883  0.00  0.00    +0.000 A 
ATOM     11  C   UNL     1       4.360   3.925  19.084  0.00  0.00    +0.000 C 
ATOM     12  O   UNL     1       2.971   5.725  19.958  0.00  0.00    +0.000 OA
ATOM     13  C   UNL     1       2.348   6.950  19.842  0.00  0.00    +0.000 A 
ATOM     14  C   UNL     1       1.605   7.394  20.944  0.00  0.00    +0.000 A 
ATOM     15  C   UNL     1       0.928   8.633  20.921  0.00  0.00    +0.000 A 
ATOM     16  C   UNL     1       0.176   9.072  22.033  0.00  0.00    +0.000 A 
ENDROOT
BRANCH   1  18
ATOM     17  C   UNL     1      -2.028  11.772  23.073  0.00  0.00    +0.000 C 
ATOM     18  O   UNL     1      -1.208  10.607  23.154  0.00  0.00    +0.000 OA
ENDBRANCH   1  18
BRANCH   3  19
ATOM     19  O   UNL     1       0.423  11.466  18.640  0.00  0.00    +0.000 OA
ATOM     20  C   UNL     1      -0.007  12.821  18.684  0.00  0.00    +0.000 C 
ENDBRANCH   3  19
BRANCH   5  21
ATOM     21  O   UNL     1       1.873   9.720  17.517  0.00  0.00    +0.000 OA
ATOM     22  H   UNL     1       1.750  10.658  17.748  0.00  0.00    +0.000 HD
ENDBRANCH   5  21
TORSDOF 3
ENDMDL
