MODEL 1
REMARK VINA RESULT:      -7.8      0.000      0.000
REMARK  Name = 
REMARK  13 active torsions:
REMARK  status: ('A' for Active; 'I' for Inactive)
REMARK    1  A    between atoms: C_1  and  C_2
REMARK    2  A    between atoms: C_2  and  O_3
REMARK    3  A    between atoms: O_3  and  C_4
REMARK    4  A    between atoms: C_4  and  C_6
REMARK    5  A    between atoms: C_7  and  C_8
REMARK    6  A    between atoms: C_10  and  O_11
REMARK    7  A    between atoms: O_11  and  C_12
REMARK    8  A    between atoms: C_12  and  C_13
REMARK    9  A    between atoms: N_15  and  C_16
REMARK   10  A    between atoms: C_16  and  C_17
REMARK   11  A    between atoms: C_17  and  N_18
REMARK   12  A    between atoms: N_18  and  C_19
REMARK   13  A    between atoms: C_33  and  C_34
REMARK                            x       y       z     vdW  Elec       q    Type
REMARK                         _______ _______ _______ _____ _____    ______ ____
ROOT
ATOM      1  C   UNL     1       7.437   6.217  17.589  0.00  0.00    +0.000 A 
ATOM      2  C   UNL     1       8.200   6.785  18.590  0.00  0.00    +0.000 A 
ATOM      3  N   UNL     1       8.203   8.115  18.289  0.00  0.00    +0.000 N 
ATOM      4  N   UNL     1       7.461   8.362  17.194  0.00  0.00    +0.000 NA
ATOM      5  N   UNL     1       6.992   7.205  16.753  0.00  0.00    +0.000 NA
ENDROOT
BRANCH   1   6
ATOM      6  C   UNL     1       7.104   4.791  17.325  0.00  0.00    +0.000 C 
BRANCH   6   7
ATOM      7  O   UNL     1       5.968   4.714  16.466  0.00  0.00    +0.000 OA
BRANCH   7  12
ATOM      8  C   UNL     1       2.453   3.587  18.256  0.00  0.00    +0.000 A 
ATOM      9  C   UNL     1       3.492   2.673  18.055  0.00  0.00    +0.000 A 
ATOM     10  C   UNL     1       3.458   1.235  18.493  0.00  0.00    +0.000 C 
ATOM     11  N   UNL     1       4.682   3.020  17.469  0.00  0.00    +0.000 NA
ATOM     12  C   UNL     1       4.831   4.300  17.107  0.00  0.00    +0.000 A 
ATOM     13  N   UNL     1       3.919   5.260  17.280  0.00  0.00    +0.000 NA
ATOM     14  C   UNL     1       2.741   4.898  17.862  0.00  0.00    +0.000 A 
ATOM     15  C   UNL     1       1.765   6.030  18.028  0.00  0.00    +0.000 C 
BRANCH   8  16
ATOM     16  C   UNL     1       1.130   3.247  18.863  0.00  0.00    +0.000 C 
ATOM     17  O   UNL     1       0.299   2.538  18.325  0.00  0.00    +0.000 OA
BRANCH  16  18
ATOM     18  O   UNL     1       1.041   3.765  20.109  0.00  0.00    +0.000 OA
BRANCH  18  20
ATOM     19  C   UNL     1       2.565   2.872  21.738  0.00  0.00    +0.000 C 
ATOM     20  C   UNL     1       1.157   2.817  21.180  0.00  0.00    +0.000 C 
ENDBRANCH  18  20
ENDBRANCH  16  18
ENDBRANCH   8  16
ENDBRANCH   7  12
ENDBRANCH   6   7
ENDBRANCH   1   6
BRANCH   3  21
ATOM     21  C   UNL     1       8.896   9.186  18.985  0.00  0.00    +0.000 C 
BRANCH  21  22
ATOM     22  C   UNL     1       9.029  10.445  18.129  0.00  0.00    +0.000 C 
BRANCH  22  23
ATOM     23  N   UNL     1       9.969  11.435  18.693  0.00  0.00    +0.000 N 
ATOM     24  H   UNL     1      10.773  11.576  18.087  0.00  0.00    +0.000 HD
BRANCH  23  25
ATOM     25  C   UNL     1       9.384  12.693  19.037  0.00  0.00    +0.000 A 
ATOM     26  C   UNL     1       9.015  13.604  18.037  0.00  0.00    +0.000 A 
ATOM     27  C   UNL     1       8.412  14.793  18.383  0.00  0.00    +0.000 A 
ATOM     28  N   UNL     1       8.101  15.133  19.643  0.00  0.00    +0.000 NA
ATOM     29  C   UNL     1       8.386  14.258  20.614  0.00  0.00    +0.000 A 
ATOM     30  C   UNL     1       8.017  14.624  21.899  0.00  0.00    +0.000 A 
ATOM     31  C   UNL     1       8.262  13.789  22.984  0.00  0.00    +0.000 A 
ATOM     32 CL   UNL     1       7.775  14.272  24.561  0.00  0.00    +0.000 Cl
ATOM     33  C   UNL     1       8.892  12.571  22.796  0.00  0.00    +0.000 A 
ATOM     34  C   UNL     1       9.272  12.183  21.507  0.00  0.00    +0.000 A 
ATOM     35  C   UNL     1       9.024  13.009  20.382  0.00  0.00    +0.000 A 
ENDBRANCH  23  25
ENDBRANCH  22  23
ENDBRANCH  21  22
ENDBRANCH   3  21
TORSDOF 10
ENDMDL
MODEL 2
REMARK VINA RESULT:      -7.8      3.689     10.282
REMARK  Name = 
REMARK  13 active torsions:
REMARK  status: ('A' for Active; 'I' for Inactive)
REMARK    1  A    between atoms: C_1  and  C_2
REMARK    2  A    between atoms: C_2  and  O_3
REMARK    3  A    between atoms: O_3  and  C_4
REMARK    4  A    between atoms: C_4  and  C_6
REMARK    5  A    between atoms: C_7  and  C_8
REMARK    6  A    between atoms: C_10  and  O_11
REMARK    7  A    between atoms: O_11  and  C_12
REMARK    8  A    between atoms: C_12  and  C_13
REMARK    9  A    between atoms: N_15  and  C_16
REMARK   10  A    between atoms: C_16  and  C_17
REMARK   11  A    between atoms: C_17  and  N_18
REMARK   12  A    between atoms: N_18  and  C_19
REMARK   13  A    between atoms: C_33  and  C_34
REMARK                            x       y       z     vdW  Elec       q    Type
REMARK                         _______ _______ _______ _____ _____    ______ ____
ROOT
ATOM      1  C   UNL     1       6.948   7.253  17.159  0.00  0.00    +0.000 A 
ATOM      2  C   UNL     1       5.935   6.321  17.267  0.00  0.00    +0.000 A 
ATOM      3  N   UNL     1       6.306   5.328  16.409  0.00  0.00    +0.000 N 
ATOM      4  N   UNL     1       7.490   5.609  15.834  0.00  0.00    +0.000 NA
ATOM      5  N   UNL     1       7.889   6.788  16.282  0.00  0.00    +0.000 NA
ENDROOT
BRANCH   1   6
ATOM      6  C   UNL     1       7.101   8.586  17.803  0.00  0.00    +0.000 C 
BRANCH   6   7
ATOM      7  O   UNL     1       8.441   8.749  18.258  0.00  0.00    +0.000 OA
BRANCH   7  12
ATOM      8  C   UNL     1       9.799  12.614  18.476  0.00  0.00    +0.000 A 
ATOM      9  C   UNL     1       8.602  12.300  17.825  0.00  0.00    +0.000 A 
ATOM     10  C   UNL     1       7.687  13.311  17.191  0.00  0.00    +0.000 C 
ATOM     11  N   UNL     1       8.116  11.021  17.743  0.00  0.00    +0.000 NA
ATOM     12  C   UNL     1       8.831  10.059  18.342  0.00  0.00    +0.000 A 
ATOM     13  N   UNL     1       9.968  10.252  19.015  0.00  0.00    +0.000 NA
ATOM     14  C   UNL     1      10.438  11.529  19.085  0.00  0.00    +0.000 A 
ATOM     15  C   UNL     1      11.719  11.670  19.861  0.00  0.00    +0.000 C 
BRANCH   8  16
ATOM     16  C   UNL     1      10.381  13.988  18.564  0.00  0.00    +0.000 C 
ATOM     17  O   UNL     1      11.256  14.403  17.826  0.00  0.00    +0.000 OA
BRANCH  16  18
ATOM     18  O   UNL     1       9.736  14.709  19.510  0.00  0.00    +0.000 OA
BRANCH  18  20
ATOM     19  C   UNL     1       9.885  14.308  21.874  0.00  0.00    +0.000 C 
ATOM     20  C   UNL     1      10.504  15.012  20.684  0.00  0.00    +0.000 C 
ENDBRANCH  18  20
ENDBRANCH  16  18
ENDBRANCH   8  16
ENDBRANCH   7  12
ENDBRANCH   6   7
ENDBRANCH   1   6
BRANCH   3  21
ATOM     21  C   UNL     1       5.581   4.112  16.084  0.00  0.00    +0.000 C 
BRANCH  21  22
ATOM     22  C   UNL     1       4.785   3.575  17.273  0.00  0.00    +0.000 C 
BRANCH  22  23
ATOM     23  N   UNL     1       3.326   3.755  17.125  0.00  0.00    +0.000 N 
ATOM     24  H   UNL     1       2.927   3.066  16.494  0.00  0.00    +0.000 HD
BRANCH  23  25
ATOM     25  C   UNL     1       2.595   3.782  18.352  0.00  0.00    +0.000 A 
ATOM     26  C   UNL     1       2.257   2.590  19.007  0.00  0.00    +0.000 A 
ATOM     27  C   UNL     1       1.591   2.635  20.212  0.00  0.00    +0.000 A 
ATOM     28  N   UNL     1       1.272   3.774  20.846  0.00  0.00    +0.000 NA
ATOM     29  C   UNL     1       1.635   4.929  20.275  0.00  0.00    +0.000 A 
ATOM     30  C   UNL     1       1.324   6.084  20.975  0.00  0.00    +0.000 A 
ATOM     31  C   UNL     1       1.658   7.339  20.476  0.00  0.00    +0.000 A 
ATOM     32 CL   UNL     1       1.269   8.749  21.381  0.00  0.00    +0.000 Cl
ATOM     33  C   UNL     1       2.303   7.455  19.257  0.00  0.00    +0.000 A 
ATOM     34  C   UNL     1       2.625   6.300  18.536  0.00  0.00    +0.000 A 
ATOM     35  C   UNL     1       2.309   5.009  19.026  0.00  0.00    +0.000 A 
ENDBRANCH  23  25
ENDBRANCH  22  23
ENDBRANCH  21  22
ENDBRANCH   3  21
TORSDOF 10
ENDMDL
MODEL 3
REMARK VINA RESULT:      -7.6      3.758     10.401
REMARK  Name = 
REMARK  13 active torsions:
REMARK  status: ('A' for Active; 'I' for Inactive)
REMARK    1  A    between atoms: C_1  and  C_2
REMARK    2  A    between atoms: C_2  and  O_3
REMARK    3  A    between atoms: O_3  and  C_4
REMARK    4  A    between atoms: C_4  and  C_6
REMARK    5  A    between atoms: C_7  and  C_8
REMARK    6  A    between atoms: C_10  and  O_11
REMARK    7  A    between atoms: O_11  and  C_12
REMARK    8  A    between atoms: C_12  and  C_13
REMARK    9  A    between atoms: N_15  and  C_16
REMARK   10  A    between atoms: C_16  and  C_17
REMARK   11  A    between atoms: C_17  and  N_18
REMARK   12  A    between atoms: N_18  and  C_19
REMARK   13  A    between atoms: C_33  and  C_34
REMARK                            x       y       z     vdW  Elec       q    Type
REMARK                         _______ _______ _______ _____ _____    ______ ____
ROOT
ATOM      1  C   UNL     1       7.674   7.303  17.999  0.00  0.00    +0.000 A 
ATOM      2  C   UNL     1       6.798   6.507  17.288  0.00  0.00    +0.000 A 
ATOM      3  N   UNL     1       6.878   5.293  17.906  0.00  0.00    +0.000 N 
ATOM      4  N   UNL     1       7.721   5.342  18.953  0.00  0.00    +0.000 NA
ATOM      5  N   UNL     1       8.219   6.567  19.016  0.00  0.00    +0.000 NA
ENDROOT
BRANCH   1   6
ATOM      6  C   UNL     1       8.076   8.720  17.785  0.00  0.00    +0.000 C 
BRANCH   6   7
ATOM      7  O   UNL     1       8.895   9.155  18.867  0.00  0.00    +0.000 OA
BRANCH   7  12
ATOM      8  C   UNL     1       9.960  13.103  18.534  0.00  0.00    +0.000 A 
ATOM      9  C   UNL     1      10.796  12.175  19.163  0.00  0.00    +0.000 A 
ATOM     10  C   UNL     1      12.150  12.498  19.730  0.00  0.00    +0.000 C 
ATOM     11  N   UNL     1      10.474  10.848  19.282  0.00  0.00    +0.000 NA
ATOM     12  C   UNL     1       9.314  10.453  18.743  0.00  0.00    +0.000 A 
ATOM     13  N   UNL     1       8.457  11.246  18.095  0.00  0.00    +0.000 NA
ATOM     14  C   UNL     1       8.791  12.563  17.987  0.00  0.00    +0.000 A 
ATOM     15  C   UNL     1       7.782  13.393  17.242  0.00  0.00    +0.000 C 
BRANCH   8  16
ATOM     16  C   UNL     1      10.256  14.563  18.407  0.00  0.00    +0.000 C 
ATOM     17  O   UNL     1      10.813  15.061  17.446  0.00  0.00    +0.000 OA
BRANCH  16  18
ATOM     18  O   UNL     1       9.742  15.237  19.461  0.00  0.00    +0.000 OA
BRANCH  18  20
ATOM     19  C   UNL     1       8.304  16.922  20.390  0.00  0.00    +0.000 C 
ATOM     20  C   UNL     1       8.964  16.397  19.131  0.00  0.00    +0.000 C 
ENDBRANCH  18  20
ENDBRANCH  16  18
ENDBRANCH   8  16
ENDBRANCH   7  12
ENDBRANCH   6   7
ENDBRANCH   1   6
BRANCH   3  21
ATOM     21  C   UNL     1       6.199   4.061  17.544  0.00  0.00    +0.000 C 
BRANCH  21  22
ATOM     22  C   UNL     1       5.371   4.208  16.267  0.00  0.00    +0.000 C 
BRANCH  22  23
ATOM     23  N   UNL     1       3.991   3.698  16.407  0.00  0.00    +0.000 N 
ATOM     24  H   UNL     1       3.874   2.803  15.940  0.00  0.00    +0.000 HD
BRANCH  23  25
ATOM     25  C   UNL     1       3.513   3.618  17.751  0.00  0.00    +0.000 A 
ATOM     26  C   UNL     1       3.618   2.423  18.476  0.00  0.00    +0.000 A 
ATOM     27  C   UNL     1       3.192   2.376  19.786  0.00  0.00    +0.000 A 
ATOM     28  N   UNL     1       2.711   3.436  20.452  0.00  0.00    +0.000 NA
ATOM     29  C   UNL     1       2.653   4.607  19.806  0.00  0.00    +0.000 A 
ATOM     30  C   UNL     1       2.187   5.689  20.535  0.00  0.00    +0.000 A 
ATOM     31  C   UNL     1       2.089   6.953  19.963  0.00  0.00    +0.000 A 
ATOM     32 CL   UNL     1       1.520   8.275  20.905  0.00  0.00    +0.000 Cl
ATOM     33  C   UNL     1       2.451   7.150  18.641  0.00  0.00    +0.000 A 
ATOM     34  C   UNL     1       2.924   6.070  17.889  0.00  0.00    +0.000 A 
ATOM     35  C   UNL     1       3.046   4.774  18.449  0.00  0.00    +0.000 A 
ENDBRANCH  23  25
ENDBRANCH  22  23
ENDBRANCH  21  22
ENDBRANCH   3  21
TORSDOF 10
ENDMDL
MODEL 4
REMARK VINA RESULT:      -7.6      1.278      1.464
REMARK  Name = 
REMARK  13 active torsions:
REMARK  status: ('A' for Active; 'I' for Inactive)
REMARK    1  A    between atoms: C_1  and  C_2
REMARK    2  A    between atoms: C_2  and  O_3
REMARK    3  A    between atoms: O_3  and  C_4
REMARK    4  A    between atoms: C_4  and  C_6
REMARK    5  A    between atoms: C_7  and  C_8
REMARK    6  A    between atoms: C_10  and  O_11
REMARK    7  A    between atoms: O_11  and  C_12
REMARK    8  A    between atoms: C_12  and  C_13
REMARK    9  A    between atoms: N_15  and  C_16
REMARK   10  A    between atoms: C_16  and  C_17
REMARK   11  A    between atoms: C_17  and  N_18
REMARK   12  A    between atoms: N_18  and  C_19
REMARK   13  A    between atoms: C_33  and  C_34
REMARK                            x       y       z     vdW  Elec       q    Type
REMARK                         _______ _______ _______ _____ _____    ______ ____
ROOT
ATOM      1  C   UNL     1       7.612   6.107  17.541  0.00  0.00    +0.000 A 
ATOM      2  C   UNL     1       7.555   7.383  17.017  0.00  0.00    +0.000 A 
ATOM      3  N   UNL     1       8.058   8.172  18.009  0.00  0.00    +0.000 N 
ATOM      4  N   UNL     1       8.437   7.430  19.066  0.00  0.00    +0.000 NA
ATOM      5  N   UNL     1       8.163   6.164  18.793  0.00  0.00    +0.000 NA
ENDROOT
BRANCH   1   6
ATOM      6  C   UNL     1       7.159   4.810  16.968  0.00  0.00    +0.000 C 
BRANCH   6   7
ATOM      7  O   UNL     1       5.940   5.000  16.255  0.00  0.00    +0.000 OA
BRANCH   7  12
ATOM      8  C   UNL     1       2.510   3.969  18.255  0.00  0.00    +0.000 A 
ATOM      9  C   UNL     1       3.483   3.015  17.942  0.00  0.00    +0.000 A 
ATOM     10  C   UNL     1       3.407   1.563  18.324  0.00  0.00    +0.000 C 
ATOM     11  N   UNL     1       4.644   3.329  17.283  0.00  0.00    +0.000 NA
ATOM     12  C   UNL     1       4.832   4.615  16.961  0.00  0.00    +0.000 A 
ATOM     13  N   UNL     1       3.985   5.609  17.240  0.00  0.00    +0.000 NA
ATOM     14  C   UNL     1       2.835   5.280  17.893  0.00  0.00    +0.000 A 
ATOM     15  C   UNL     1       1.934   6.450  18.175  0.00  0.00    +0.000 C 
BRANCH   8  16
ATOM     16  C   UNL     1       1.218   3.668  18.945  0.00  0.00    +0.000 C 
ATOM     17  O   UNL     1       0.370   2.917  18.498  0.00  0.00    +0.000 OA
BRANCH  16  18
ATOM     18  O   UNL     1       1.181   4.274  20.153  0.00  0.00    +0.000 OA
BRANCH  18  20
ATOM     19  C   UNL     1       1.592   2.515  21.736  0.00  0.00    +0.000 C 
ATOM     20  C   UNL     1       2.128   3.789  21.116  0.00  0.00    +0.000 C 
ENDBRANCH  18  20
ENDBRANCH  16  18
ENDBRANCH   8  16
ENDBRANCH   7  12
ENDBRANCH   6   7
ENDBRANCH   1   6
BRANCH   3  21
ATOM     21  C   UNL     1       8.189   9.619  18.019  0.00  0.00    +0.000 C 
BRANCH  21  22
ATOM     22  C   UNL     1       9.455  10.082  18.739  0.00  0.00    +0.000 C 
BRANCH  22  23
ATOM     23  N   UNL     1       9.246  10.337  20.179  0.00  0.00    +0.000 N 
ATOM     24  H   UNL     1       9.695   9.629  20.753  0.00  0.00    +0.000 HD
BRANCH  23  25
ATOM     25  C   UNL     1       9.623  11.643  20.620  0.00  0.00    +0.000 A 
ATOM     26  C   UNL     1      10.479  12.437  19.844  0.00  0.00    +0.000 A 
ATOM     27  C   UNL     1      10.797  13.711  20.263  0.00  0.00    +0.000 A 
ATOM     28  N   UNL     1      10.297  14.279  21.371  0.00  0.00    +0.000 NA
ATOM     29  C   UNL     1       9.430  13.567  22.101  0.00  0.00    +0.000 A 
ATOM     30  C   UNL     1       8.903  14.198  23.217  0.00  0.00    +0.000 A 
ATOM     31  C   UNL     1       7.991  13.553  24.044  0.00  0.00    +0.000 A 
ATOM     32 CL   UNL     1       7.348  14.375  25.411  0.00  0.00    +0.000 Cl
ATOM     33  C   UNL     1       7.598  12.254  23.769  0.00  0.00    +0.000 A 
ATOM     34  C   UNL     1       8.119  11.600  22.647  0.00  0.00    +0.000 A 
ATOM     35  C   UNL     1       9.040  12.238  21.780  0.00  0.00    +0.000 A 
ENDBRANCH  23  25
ENDBRANCH  22  23
ENDBRANCH  21  22
ENDBRANCH   3  21
TORSDOF 10
ENDMDL
MODEL 5
REMARK VINA RESULT:      -7.6      4.009     10.362
REMARK  Name = 
REMARK  13 active torsions:
REMARK  status: ('A' for Active; 'I' for Inactive)
REMARK    1  A    between atoms: C_1  and  C_2
REMARK    2  A    between atoms: C_2  and  O_3
REMARK    3  A    between atoms: O_3  and  C_4
REMARK    4  A    between atoms: C_4  and  C_6
REMARK    5  A    between atoms: C_7  and  C_8
REMARK    6  A    between atoms: C_10  and  O_11
REMARK    7  A    between atoms: O_11  and  C_12
REMARK    8  A    between atoms: C_12  and  C_13
REMARK    9  A    between atoms: N_15  and  C_16
REMARK   10  A    between atoms: C_16  and  C_17
REMARK   11  A    between atoms: C_17  and  N_18
REMARK   12  A    between atoms: N_18  and  C_19
REMARK   13  A    between atoms: C_33  and  C_34
REMARK                            x       y       z     vdW  Elec       q    Type
REMARK                         _______ _______ _______ _____ _____    ______ ____
ROOT
ATOM      1  C   UNL     1       8.165   8.217  18.185  0.00  0.00    +0.000 A 
ATOM      2  C   UNL     1       8.206   6.958  18.750  0.00  0.00    +0.000 A 
ATOM      3  N   UNL     1       7.680   6.146  17.789  0.00  0.00    +0.000 N 
ATOM      4  N   UNL     1       7.365   6.849  16.686  0.00  0.00    +0.000 NA
ATOM      5  N   UNL     1       7.652   8.120  16.919  0.00  0.00    +0.000 NA
ENDROOT
BRANCH   1   6
ATOM      6  C   UNL     1       8.547   9.539  18.751  0.00  0.00    +0.000 C 
BRANCH   6   7
ATOM      7  O   UNL     1       9.597  10.109  17.974  0.00  0.00    +0.000 OA
BRANCH   7  12
ATOM      8  C   UNL     1       9.577  14.198  18.305  0.00  0.00    +0.000 A 
ATOM      9  C   UNL     1      10.740  13.456  18.533  0.00  0.00    +0.000 A 
ATOM     10  C   UNL     1      12.078  14.053  18.871  0.00  0.00    +0.000 C 
ATOM     11  N   UNL     1      10.782  12.090  18.421  0.00  0.00    +0.000 NA
ATOM     12  C   UNL     1       9.651  11.475  18.055  0.00  0.00    +0.000 A 
ATOM     13  N   UNL     1       8.495  12.087  17.783  0.00  0.00    +0.000 NA
ATOM     14  C   UNL     1       8.470  13.444  17.902  0.00  0.00    +0.000 A 
ATOM     15  C   UNL     1       7.138  14.063  17.577  0.00  0.00    +0.000 C 
BRANCH   8  16
ATOM     16  C   UNL     1       9.477  15.683  18.444  0.00  0.00    +0.000 C 
ATOM     17  O   UNL     1       9.543  16.458  17.507  0.00  0.00    +0.000 OA
BRANCH  16  18
ATOM     18  O   UNL     1       9.220  16.016  19.730  0.00  0.00    +0.000 OA
BRANCH  18  20
ATOM     19  C   UNL     1       6.950  16.503  20.346  0.00  0.00    +0.000 C 
ATOM     20  C   UNL     1       8.281  17.084  19.914  0.00  0.00    +0.000 C 
ENDBRANCH  18  20
ENDBRANCH  16  18
ENDBRANCH   8  16
ENDBRANCH   7  12
ENDBRANCH   6   7
ENDBRANCH   1   6
BRANCH   3  21
ATOM     21  C   UNL     1       7.438   4.715  17.863  0.00  0.00    +0.000 C 
BRANCH  21  22
ATOM     22  C   UNL     1       6.262   4.278  16.990  0.00  0.00    +0.000 C 
BRANCH  22  23
ATOM     23  N   UNL     1       5.048   5.093  17.200  0.00  0.00    +0.000 N 
ATOM     24  H   UNL     1       4.492   5.162  16.352  0.00  0.00    +0.000 HD
BRANCH  23  25
ATOM     25  C   UNL     1       4.227   4.679  18.295  0.00  0.00    +0.000 A 
ATOM     26  C   UNL     1       4.366   3.397  18.844  0.00  0.00    +0.000 A 
ATOM     27  C   UNL     1       3.598   3.030  19.928  0.00  0.00    +0.000 A 
ATOM     28  N   UNL     1       2.733   3.851  20.542  0.00  0.00    +0.000 NA
ATOM     29  C   UNL     1       2.622   5.101  20.078  0.00  0.00    +0.000 A 
ATOM     30  C   UNL     1       1.748   5.934  20.759  0.00  0.00    +0.000 A 
ATOM     31  C   UNL     1       1.558   7.254  20.365  0.00  0.00    +0.000 A 
ATOM     32 CL   UNL     1       0.476   8.260  21.244  0.00  0.00    +0.000 Cl
ATOM     33  C   UNL     1       2.238   7.758  19.270  0.00  0.00    +0.000 A 
ATOM     34  C   UNL     1       3.125   6.933  18.569  0.00  0.00    +0.000 A 
ATOM     35  C   UNL     1       3.347   5.589  18.956  0.00  0.00    +0.000 A 
ENDBRANCH  23  25
ENDBRANCH  22  23
ENDBRANCH  21  22
ENDBRANCH   3  21
TORSDOF 10
ENDMDL
MODEL 6
REMARK VINA RESULT:      -7.5      4.218     10.641
REMARK  Name = 
REMARK  13 active torsions:
REMARK  status: ('A' for Active; 'I' for Inactive)
REMARK    1  A    between atoms: C_1  and  C_2
REMARK    2  A    between atoms: C_2  and  O_3
REMARK    3  A    between atoms: O_3  and  C_4
REMARK    4  A    between atoms: C_4  and  C_6
REMARK    5  A    between atoms: C_7  and  C_8
REMARK    6  A    between atoms: C_10  and  O_11
REMARK    7  A    between atoms: O_11  and  C_12
REMARK    8  A    between atoms: C_12  and  C_13
REMARK    9  A    between atoms: N_15  and  C_16
REMARK   10  A    between atoms: C_16  and  C_17
REMARK   11  A    between atoms: C_17  and  N_18
REMARK   12  A    between atoms: N_18  and  C_19
REMARK   13  A    between atoms: C_33  and  C_34
REMARK                            x       y       z     vdW  Elec       q    Type
REMARK                         _______ _______ _______ _____ _____    ______ ____
ROOT
ATOM      1  C   UNL     1       8.093   7.428  18.367  0.00  0.00    +0.000 A 
ATOM      2  C   UNL     1       7.556   7.109  17.136  0.00  0.00    +0.000 A 
ATOM      3  N   UNL     1       7.328   5.767  17.211  0.00  0.00    +0.000 N 
ATOM      4  N   UNL     1       7.666   5.290  18.423  0.00  0.00    +0.000 NA
ATOM      5  N   UNL     1       8.142   6.297  19.137  0.00  0.00    +0.000 NA
ENDROOT
BRANCH   1   6
ATOM      6  C   UNL     1       8.601   8.726  18.889  0.00  0.00    +0.000 C 
BRANCH   6   7
ATOM      7  O   UNL     1       8.490   9.725  17.879  0.00  0.00    +0.000 OA
BRANCH   7  12
ATOM      8  C   UNL     1      10.460  13.196  18.828  0.00  0.00    +0.000 A 
ATOM      9  C   UNL     1       9.173  13.217  18.282  0.00  0.00    +0.000 A 
ATOM     10  C   UNL     1       8.375  14.467  18.030  0.00  0.00    +0.000 C 
ATOM     11  N   UNL     1       8.484  12.076  17.963  0.00  0.00    +0.000 NA
ATOM     12  C   UNL     1       9.089  10.909  18.219  0.00  0.00    +0.000 A 
ATOM     13  N   UNL     1      10.300  10.774  18.765  0.00  0.00    +0.000 NA
ATOM     14  C   UNL     1      10.972  11.918  19.074  0.00  0.00    +0.000 A 
ATOM     15  C   UNL     1      12.326  11.688  19.688  0.00  0.00    +0.000 C 
BRANCH   8  16
ATOM     16  C   UNL     1      11.259  14.415  19.163  0.00  0.00    +0.000 C 
ATOM     17  O   UNL     1      11.965  15.004  18.365  0.00  0.00    +0.000 OA
BRANCH  16  18
ATOM     18  O   UNL     1      11.010  14.801  20.435  0.00  0.00    +0.000 OA
BRANCH  18  20
ATOM     19  C   UNL     1       9.512  16.622  20.893  0.00  0.00    +0.000 C 
ATOM     20  C   UNL     1      10.952  16.219  20.649  0.00  0.00    +0.000 C 
ENDBRANCH  18  20
ENDBRANCH  16  18
ENDBRANCH   8  16
ENDBRANCH   7  12
ENDBRANCH   6   7
ENDBRANCH   1   6
BRANCH   3  21
ATOM     21  C   UNL     1       6.812   4.889  16.174  0.00  0.00    +0.000 C 
BRANCH  21  22
ATOM     22  C   UNL     1       5.644   4.034  16.666  0.00  0.00    +0.000 C 
BRANCH  22  23
ATOM     23  N   UNL     1       4.325   4.646  16.407  0.00  0.00    +0.000 N 
ATOM     24  H   UNL     1       3.674   3.977  16.006  0.00  0.00    +0.000 HD
BRANCH  23  25
ATOM     25  C   UNL     1       3.733   5.297  17.533  0.00  0.00    +0.000 A 
ATOM     26  C   UNL     1       3.599   6.692  17.561  0.00  0.00    +0.000 A 
ATOM     27  C   UNL     1       2.986   7.300  18.635  0.00  0.00    +0.000 A 
ATOM     28  N   UNL     1       2.451   6.629  19.666  0.00  0.00    +0.000 NA
ATOM     29  C   UNL     1       2.509   5.293  19.640  0.00  0.00    +0.000 A 
ATOM     30  C   UNL     1       1.913   4.631  20.701  0.00  0.00    +0.000 A 
ATOM     31  C   UNL     1       1.911   3.242  20.773  0.00  0.00    +0.000 A 
ATOM     32 CL   UNL     1       1.148   2.456  22.099  0.00  0.00    +0.000 Cl
ATOM     33  C   UNL     1       2.519   2.492  19.781  0.00  0.00    +0.000 A 
ATOM     34  C   UNL     1       3.126   3.142  18.701  0.00  0.00    +0.000 A 
ATOM     35  C   UNL     1       3.132   4.555  18.596  0.00  0.00    +0.000 A 
ENDBRANCH  23  25
ENDBRANCH  22  23
ENDBRANCH  21  22
ENDBRANCH   3  21
TORSDOF 10
ENDMDL
MODEL 7
REMARK VINA RESULT:      -7.5      5.092      9.081
REMARK  Name = 
REMARK  13 active torsions:
REMARK  status: ('A' for Active; 'I' for Inactive)
REMARK    1  A    between atoms: C_1  and  C_2
REMARK    2  A    between atoms: C_2  and  O_3
REMARK    3  A    between atoms: O_3  and  C_4
REMARK    4  A    between atoms: C_4  and  C_6
REMARK    5  A    between atoms: C_7  and  C_8
REMARK    6  A    between atoms: C_10  and  O_11
REMARK    7  A    between atoms: O_11  and  C_12
REMARK    8  A    between atoms: C_12  and  C_13
REMARK    9  A    between atoms: N_15  and  C_16
REMARK   10  A    between atoms: C_16  and  C_17
REMARK   11  A    between atoms: C_17  and  N_18
REMARK   12  A    between atoms: N_18  and  C_19
REMARK   13  A    between atoms: C_33  and  C_34
REMARK                            x       y       z     vdW  Elec       q    Type
REMARK                         _______ _______ _______ _____ _____    ______ ____
ROOT
ATOM      1  C   UNL     1       2.452   6.948  18.556  0.00  0.00    +0.000 A 
ATOM      2  C   UNL     1       2.507   5.693  17.982  0.00  0.00    +0.000 A 
ATOM      3  N   UNL     1       2.492   4.841  19.047  0.00  0.00    +0.000 N 
ATOM      4  N   UNL     1       2.397   5.521  20.204  0.00  0.00    +0.000 NA
ATOM      5  N   UNL     1       2.378   6.813  19.916  0.00  0.00    +0.000 NA
ENDROOT
BRANCH   1   6
ATOM      6  C   UNL     1       2.492   8.296  17.927  0.00  0.00    +0.000 C 
BRANCH   6   7
ATOM      7  O   UNL     1       1.209   8.909  18.025  0.00  0.00    +0.000 OA
BRANCH   7  12
ATOM      8  C   UNL     1       1.310  12.444  20.105  0.00  0.00    +0.000 A 
ATOM      9  C   UNL     1       1.955  12.308  18.872  0.00  0.00    +0.000 A 
ATOM     10  C   UNL     1       2.697  13.413  18.173  0.00  0.00    +0.000 C 
ATOM     11  N   UNL     1       1.932  11.144  18.148  0.00  0.00    +0.000 NA
ATOM     12  C   UNL     1       1.235  10.122  18.661  0.00  0.00    +0.000 A 
ATOM     13  N   UNL     1       0.558  10.154  19.811  0.00  0.00    +0.000 NA
ATOM     14  C   UNL     1       0.593  11.317  20.520  0.00  0.00    +0.000 A 
ATOM     15  C   UNL     1      -0.195  11.279  21.801  0.00  0.00    +0.000 C 
BRANCH   8  16
ATOM     16  C   UNL     1       1.333  13.683  20.942  0.00  0.00    +0.000 C 
ATOM     17  O   UNL     1       2.185  13.921  21.778  0.00  0.00    +0.000 OA
BRANCH  16  18
ATOM     18  O   UNL     1       0.334  14.516  20.571  0.00  0.00    +0.000 OA
BRANCH  18  20
ATOM     19  C   UNL     1      -1.255  15.507  22.076  0.00  0.00    +0.000 C 
ATOM     20  C   UNL     1       0.113  15.638  21.437  0.00  0.00    +0.000 C 
ENDBRANCH  18  20
ENDBRANCH  16  18
ENDBRANCH   8  16
ENDBRANCH   7  12
ENDBRANCH   6   7
ENDBRANCH   1   6
BRANCH   3  21
ATOM     21  C   UNL     1       2.579   3.391  19.032  0.00  0.00    +0.000 C 
BRANCH  21  22
ATOM     22  C   UNL     1       3.195   2.860  17.737  0.00  0.00    +0.000 C 
BRANCH  22  23
ATOM     23  N   UNL     1       4.672   2.857  17.755  0.00  0.00    +0.000 N 
ATOM     24  H   UNL     1       5.047   1.929  17.576  0.00  0.00    +0.000 HD
BRANCH  23  25
ATOM     25  C   UNL     1       5.286   3.813  16.888  0.00  0.00    +0.000 A 
ATOM     26  C   UNL     1       4.995   3.821  15.517  0.00  0.00    +0.000 A 
ATOM     27  C   UNL     1       5.561   4.778  14.702  0.00  0.00    +0.000 A 
ATOM     28  N   UNL     1       6.361   5.758  15.148  0.00  0.00    +0.000 NA
ATOM     29  C   UNL     1       6.610   5.813  16.461  0.00  0.00    +0.000 A 
ATOM     30  C   UNL     1       7.409   6.861  16.892  0.00  0.00    +0.000 A 
ATOM     31  C   UNL     1       7.728   7.015  18.237  0.00  0.00    +0.000 A 
ATOM     32 CL   UNL     1       8.709   8.337  18.735  0.00  0.00    +0.000 Cl
ATOM     33  C   UNL     1       7.257   6.111  19.173  0.00  0.00    +0.000 A 
ATOM     34  C   UNL     1       6.450   5.047  18.758  0.00  0.00    +0.000 A 
ATOM     35  C   UNL     1       6.098   4.872  17.397  0.00  0.00    +0.000 A 
ENDBRANCH  23  25
ENDBRANCH  22  23
ENDBRANCH  21  22
ENDBRANCH   3  21
TORSDOF 10
ENDMDL
MODEL 8
REMARK VINA RESULT:      -7.5      7.244      9.985
REMARK  Name = 
REMARK  13 active torsions:
REMARK  status: ('A' for Active; 'I' for Inactive)
REMARK    1  A    between atoms: C_1  and  C_2
REMARK    2  A    between atoms: C_2  and  O_3
REMARK    3  A    between atoms: O_3  and  C_4
REMARK    4  A    between atoms: C_4  and  C_6
REMARK    5  A    between atoms: C_7  and  C_8
REMARK    6  A    between atoms: C_10  and  O_11
REMARK    7  A    between atoms: O_11  and  C_12
REMARK    8  A    between atoms: C_12  and  C_13
REMARK    9  A    between atoms: N_15  and  C_16
REMARK   10  A    between atoms: C_16  and  C_17
REMARK   11  A    between atoms: C_17  and  N_18
REMARK   12  A    between atoms: N_18  and  C_19
REMARK   13  A    between atoms: C_33  and  C_34
REMARK                            x       y       z     vdW  Elec       q    Type
REMARK                         _______ _______ _______ _____ _____    ______ ____
ROOT
ATOM      1  C   UNL     1       0.036  10.082  21.919  0.00  0.00    +0.000 A 
ATOM      2  C   UNL     1      -0.993  10.511  22.735  0.00  0.00    +0.000 A 
ATOM      3  N   UNL     1      -0.899  11.872  22.698  0.00  0.00    +0.000 N 
ATOM      4  N   UNL     1       0.099  12.262  21.885  0.00  0.00    +0.000 NA
ATOM      5  N   UNL     1       0.683  11.174  21.407  0.00  0.00    +0.000 NA
ENDROOT
BRANCH   1   6
ATOM      6  C   UNL     1       0.494   8.705  21.593  0.00  0.00    +0.000 C 
BRANCH   6   7
ATOM      7  O   UNL     1       1.743   8.764  20.909  0.00  0.00    +0.000 OA
BRANCH   7  12
ATOM      8  C   UNL     1       2.398   5.303  18.805  0.00  0.00    +0.000 A 
ATOM      9  C   UNL     1       2.941   6.522  18.386  0.00  0.00    +0.000 A 
ATOM     10  C   UNL     1       3.828   6.690  17.184  0.00  0.00    +0.000 C 
ATOM     11  N   UNL     1       2.749   7.694  19.071  0.00  0.00    +0.000 NA
ATOM     12  C   UNL     1       2.026   7.628  20.197  0.00  0.00    +0.000 A 
ATOM     13  N   UNL     1       1.489   6.515  20.702  0.00  0.00    +0.000 NA
ATOM     14  C   UNL     1       1.687   5.360  20.008  0.00  0.00    +0.000 A 
ATOM     15  C   UNL     1       1.058   4.149  20.640  0.00  0.00    +0.000 C 
BRANCH   8  16
ATOM     16  C   UNL     1       2.556   4.009  18.074  0.00  0.00    +0.000 C 
ATOM     17  O   UNL     1       1.745   3.577  17.275  0.00  0.00    +0.000 OA
BRANCH  16  18
ATOM     18  O   UNL     1       3.753   3.450  18.366  0.00  0.00    +0.000 OA
BRANCH  18  20
ATOM     19  C   UNL     1       3.889   1.052  18.355  0.00  0.00    +0.000 C 
ATOM     20  C   UNL     1       3.703   2.290  19.209  0.00  0.00    +0.000 C 
ENDBRANCH  18  20
ENDBRANCH  16  18
ENDBRANCH   8  16
ENDBRANCH   7  12
ENDBRANCH   6   7
ENDBRANCH   1   6
BRANCH   3  21
ATOM     21  C   UNL     1      -1.708  12.841  23.416  0.00  0.00    +0.000 C 
BRANCH  21  22
ATOM     22  C   UNL     1      -3.181  12.780  23.015  0.00  0.00    +0.000 C 
BRANCH  22  23
ATOM     23  N   UNL     1      -3.471  13.494  21.755  0.00  0.00    +0.000 N 
ATOM     24  H   UNL     1      -2.618  13.775  21.279  0.00  0.00    +0.000 HD
BRANCH  23  25
ATOM     25  C   UNL     1      -4.333  12.797  20.853  0.00  0.00    +0.000 A 
ATOM     26  C   UNL     1      -5.713  12.736  21.090  0.00  0.00    +0.000 A 
ATOM     27  C   UNL     1      -6.535  12.098  20.187  0.00  0.00    +0.000 A 
ATOM     28  N   UNL     1      -6.102  11.553  19.039  0.00  0.00    +0.000 NA
ATOM     29  C   UNL     1      -4.798  11.648  18.756  0.00  0.00    +0.000 A 
ATOM     30  C   UNL     1      -4.392  11.109  17.545  0.00  0.00    +0.000 A 
ATOM     31  C   UNL     1      -3.060  11.156  17.148  0.00  0.00    +0.000 A 
ATOM     32 CL   UNL     1      -2.597  10.490  15.632  0.00  0.00    +0.000 Cl
ATOM     33  C   UNL     1      -2.109  11.739  17.968  0.00  0.00    +0.000 A 
ATOM     34  C   UNL     1      -2.499  12.289  19.193  0.00  0.00    +0.000 A 
ATOM     35  C   UNL     1      -3.851  12.266  19.618  0.00  0.00    +0.000 A 
ENDBRANCH  23  25
ENDBRANCH  22  23
ENDBRANCH  21  22
ENDBRANCH   3  21
TORSDOF 10
ENDMDL
MODEL 9
REMARK VINA RESULT:      -7.5      3.791     10.529
REMARK  Name = 
REMARK  13 active torsions:
REMARK  status: ('A' for Active; 'I' for Inactive)
REMARK    1  A    between atoms: C_1  and  C_2
REMARK    2  A    between atoms: C_2  and  O_3
REMARK    3  A    between atoms: O_3  and  C_4
REMARK    4  A    between atoms: C_4  and  C_6
REMARK    5  A    between atoms: C_7  and  C_8
REMARK    6  A    between atoms: C_10  and  O_11
REMARK    7  A    between atoms: O_11  and  C_12
REMARK    8  A    between atoms: C_12  and  C_13
REMARK    9  A    between atoms: N_15  and  C_16
REMARK   10  A    between atoms: C_16  and  C_17
REMARK   11  A    between atoms: C_17  and  N_18
REMARK   12  A    between atoms: N_18  and  C_19
REMARK   13  A    between atoms: C_33  and  C_34
REMARK                            x       y       z     vdW  Elec       q    Type
REMARK                         _______ _______ _______ _____ _____    ______ ____
ROOT
ATOM      1  C   UNL     1       8.026   7.173  18.368  0.00  0.00    +0.000 A 
ATOM      2  C   UNL     1       7.343   6.709  17.260  0.00  0.00    +0.000 A 
ATOM      3  N   UNL     1       7.125   5.390  17.534  0.00  0.00    +0.000 N 
ATOM      4  N   UNL     1       7.608   5.066  18.748  0.00  0.00    +0.000 NA
ATOM      5  N   UNL     1       8.167   6.149  19.265  0.00  0.00    +0.000 NA
ENDROOT
BRANCH   1   6
ATOM      6  C   UNL     1       8.594   8.518  18.653  0.00  0.00    +0.000 C 
BRANCH   6   7
ATOM      7  O   UNL     1       7.958   9.493  17.830  0.00  0.00    +0.000 OA
BRANCH   7  12
ATOM      8  C   UNL     1       9.848  13.130  17.979  0.00  0.00    +0.000 A 
ATOM      9  C   UNL     1       8.478  13.034  17.716  0.00  0.00    +0.000 A 
ATOM     10  C   UNL     1       7.566  14.211  17.507  0.00  0.00    +0.000 C 
ATOM     11  N   UNL     1       7.815  11.835  17.669  0.00  0.00    +0.000 NA
ATOM     12  C   UNL     1       8.535  10.732  17.912  0.00  0.00    +0.000 A 
ATOM     13  N   UNL     1       9.838  10.713  18.204  0.00  0.00    +0.000 NA
ATOM     14  C   UNL     1      10.482  11.912  18.244  0.00  0.00    +0.000 A 
ATOM     15  C   UNL     1      11.945  11.812  18.581  0.00  0.00    +0.000 C 
BRANCH   8  16
ATOM     16  C   UNL     1      10.617  14.412  18.010  0.00  0.00    +0.000 C 
ATOM     17  O   UNL     1      11.129  14.921  17.029  0.00  0.00    +0.000 OA
BRANCH  16  18
ATOM     18  O   UNL     1      10.580  14.949  19.251  0.00  0.00    +0.000 OA
BRANCH  18  20
ATOM     19  C   UNL     1      11.589  17.024  19.920  0.00  0.00    +0.000 C 
ATOM     20  C   UNL     1      10.371  16.367  19.304  0.00  0.00    +0.000 C 
ENDBRANCH  18  20
ENDBRANCH  16  18
ENDBRANCH   8  16
ENDBRANCH   7  12
ENDBRANCH   6   7
ENDBRANCH   1   6
BRANCH   3  21
ATOM     21  C   UNL     1       6.487   4.397  16.689  0.00  0.00    +0.000 C 
BRANCH  21  22
ATOM     22  C   UNL     1       5.167   4.896  16.100  0.00  0.00    +0.000 C 
BRANCH  22  23
ATOM     23  N   UNL     1       4.064   3.924  16.239  0.00  0.00    +0.000 N 
ATOM     24  H   UNL     1       4.307   3.023  15.838  0.00  0.00    +0.000 HD
BRANCH  23  25
ATOM     25  C   UNL     1       3.574   3.756  17.571  0.00  0.00    +0.000 A 
ATOM     26  C   UNL     1       3.688   2.519  18.221  0.00  0.00    +0.000 A 
ATOM     27  C   UNL     1       3.250   2.387  19.521  0.00  0.00    +0.000 A 
ATOM     28  N   UNL     1       2.750   3.398  20.247  0.00  0.00    +0.000 NA
ATOM     29  C   UNL     1       2.684   4.605  19.674  0.00  0.00    +0.000 A 
ATOM     30  C   UNL     1       2.198   5.635  20.464  0.00  0.00    +0.000 A 
ATOM     31  C   UNL     1       2.090   6.931  19.971  0.00  0.00    +0.000 A 
ATOM     32 CL   UNL     1       1.496   8.185  20.987  0.00  0.00    +0.000 Cl
ATOM     33  C   UNL     1       2.461   7.213  18.667  0.00  0.00    +0.000 A 
ATOM     34  C   UNL     1       2.955   6.187  17.854  0.00  0.00    +0.000 A 
ATOM     35  C   UNL     1       3.087   4.861  18.334  0.00  0.00    +0.000 A 
ENDBRANCH  23  25
ENDBRANCH  22  23
ENDBRANCH  21  22
ENDBRANCH   3  21
TORSDOF 10
ENDMDL
