MODEL 1
REMARK VINA RESULT:      -7.6      0.000      0.000
REMARK  Name = 
REMARK  9 active torsions:
REMARK  status: ('A' for Active; 'I' for Inactive)
REMARK    1  A    between atoms: C_1  and  C_2
REMARK    2  A    between atoms: C_4  and  C_5
REMARK    3  A    between atoms: C_5  and  C_6
REMARK    4  A    between atoms: C_16  and  C_17
REMARK    5  A    between atoms: C_17  and  C_18
REMARK    6  A    between atoms: C_18  and  C_19
REMARK    7  A    between atoms: C_19  and  O_21
REMARK    8  A    between atoms: C_22  and  C_23
REMARK    9  A    between atoms: C_25  and  O_26
REMARK                            x       y       z     vdW  Elec       q    Type
REMARK                         _______ _______ _______ _____ _____    ______ ____
ROOT
ATOM      1  C   UNL     1       8.012   6.333  18.778  0.00  0.00    +0.000 C 
ATOM      2  C   UNL     1       6.753   5.659  18.324  0.00  0.00    +0.000 A 
ATOM      3  N   UNL     1       5.629   5.963  18.998  0.00  0.00    +0.000 NA
ATOM      4  C   UNL     1       4.444   5.378  18.665  0.00  0.00    +0.000 A 
ATOM      5  C   UNL     1       4.329   4.456  17.592  0.00  0.00    +0.000 A 
ATOM      6  C   UNL     1       5.526   4.197  16.871  0.00  0.00    +0.000 A 
ATOM      7  C   UNL     1       6.746   4.786  17.253  0.00  0.00    +0.000 A 
ENDROOT
BRANCH   6   8
ATOM      8  C   UNL     1       5.543   3.366  15.640  0.00  0.00    +0.000 C 
ATOM      9  O   UNL     1       6.200   3.685  14.654  0.00  0.00    +0.000 OA
ENDBRANCH   6   8
BRANCH   7  10
ATOM     10  O   UNL     1       7.931   4.570  16.598  0.00  0.00    +0.000 OA
ATOM     11  H   UNL     1       7.750   4.061  15.775  0.00  0.00    +0.000 HD
ENDBRANCH   7  10
BRANCH   4  12
ATOM     12  C   UNL     1       3.305   5.897  19.534  0.00  0.00    +0.000 C 
BRANCH  12  13
ATOM     13  C   UNL     1       2.573   7.151  19.051  0.00  0.00    +0.000 A 
ATOM     14  C   UNL     1       2.815   7.623  17.748  0.00  0.00    +0.000 A 
ATOM     15  C   UNL     1       2.361   8.867  17.328  0.00  0.00    +0.000 A 
ATOM     16  C   UNL     1       1.646   9.671  18.202  0.00  0.00    +0.000 A 
ATOM     17  C   UNL     1       1.323   9.218  19.487  0.00  0.00    +0.000 A 
ATOM     18  C   UNL     1       0.562  10.043  20.331  0.00  0.00    +0.000 A 
ATOM     19  C   UNL     1       0.173   9.612  21.595  0.00  0.00    +0.000 A 
ATOM     20  C   UNL     1       0.548   8.351  22.032  0.00  0.00    +0.000 A 
ATOM     21  C   UNL     1       1.341   7.533  21.218  0.00  0.00    +0.000 A 
ATOM     22  C   UNL     1       1.760   7.938  19.927  0.00  0.00    +0.000 A 
ENDBRANCH  12  13
ENDBRANCH   4  12
BRANCH   5  23
ATOM     23  C   UNL     1       2.984   3.876  17.175  0.00  0.00    +0.000 C 
BRANCH  23  24
ATOM     24  C   UNL     1       2.522   2.502  17.698  0.00  0.00    +0.000 C 
BRANCH  24  25
ATOM     25  C   UNL     1       1.837   2.517  19.039  0.00  0.00    +0.000 C 
ATOM     26  O   UNL     1       0.640   2.672  19.209  0.00  0.00    +0.000 OA
BRANCH  25  27
ATOM     27  O   UNL     1       2.699   2.372  20.065  0.00  0.00    +0.000 OA
ATOM     28  H   UNL     1       2.297   2.079  20.907  0.00  0.00    +0.000 HD
ENDBRANCH  25  27
ENDBRANCH  24  25
ENDBRANCH  23  24
ENDBRANCH   5  23
TORSDOF 8
ENDMDL
MODEL 2
REMARK VINA RESULT:      -7.6      1.617      4.035
REMARK  Name = 
REMARK  9 active torsions:
REMARK  status: ('A' for Active; 'I' for Inactive)
REMARK    1  A    between atoms: C_1  and  C_2
REMARK    2  A    between atoms: C_4  and  C_5
REMARK    3  A    between atoms: C_5  and  C_6
REMARK    4  A    between atoms: C_16  and  C_17
REMARK    5  A    between atoms: C_17  and  C_18
REMARK    6  A    between atoms: C_18  and  C_19
REMARK    7  A    between atoms: C_19  and  O_21
REMARK    8  A    between atoms: C_22  and  C_23
REMARK    9  A    between atoms: C_25  and  O_26
REMARK                            x       y       z     vdW  Elec       q    Type
REMARK                         _______ _______ _______ _____ _____    ______ ____
ROOT
ATOM      1  C   UNL     1       0.513   2.563  18.975  0.00  0.00    +0.000 C 
ATOM      2  C   UNL     1       1.708   3.448  18.792  0.00  0.00    +0.000 A 
ATOM      3  N   UNL     1       1.726   4.593  19.499  0.00  0.00    +0.000 NA
ATOM      4  C   UNL     1       2.765   5.466  19.374  0.00  0.00    +0.000 A 
ATOM      5  C   UNL     1       3.876   5.206  18.531  0.00  0.00    +0.000 A 
ATOM      6  C   UNL     1       3.847   3.966  17.838  0.00  0.00    +0.000 A 
ATOM      7  C   UNL     1       2.749   3.094  17.954  0.00  0.00    +0.000 A 
ENDROOT
BRANCH   6   8
ATOM      8  C   UNL     1       4.996   3.487  17.027  0.00  0.00    +0.000 C 
ATOM      9  O   UNL     1       5.108   3.766  15.837  0.00  0.00    +0.000 OA
ENDBRANCH   6   8
BRANCH   7  10
ATOM     10  O   UNL     1       2.665   1.888  17.307  0.00  0.00    +0.000 OA
ATOM     11  H   UNL     1       1.861   1.415  17.619  0.00  0.00    +0.000 HD
ENDBRANCH   7  10
BRANCH   4  12
ATOM     12  C   UNL     1       2.592   6.669  20.293  0.00  0.00    +0.000 C 
BRANCH  12  13
ATOM     13  C   UNL     1       1.888   7.897  19.711  0.00  0.00    +0.000 A 
ATOM     14  C   UNL     1       2.118   8.242  18.368  0.00  0.00    +0.000 A 
ATOM     15  C   UNL     1       1.692   9.458  17.844  0.00  0.00    +0.000 A 
ATOM     16  C   UNL     1       1.019  10.358  18.655  0.00  0.00    +0.000 A 
ATOM     17  C   UNL     1       0.707  10.032  19.980  0.00  0.00    +0.000 A 
ATOM     18  C   UNL     1      -0.012  10.952  20.759  0.00  0.00    +0.000 A 
ATOM     19  C   UNL     1      -0.390  10.649  22.063  0.00  0.00    +0.000 A 
ATOM     20  C   UNL     1      -0.044   9.421  22.606  0.00  0.00    +0.000 A 
ATOM     21  C   UNL     1       0.710   8.509  21.856  0.00  0.00    +0.000 A 
ATOM     22  C   UNL     1       1.115   8.784  20.527  0.00  0.00    +0.000 A 
ENDBRANCH  12  13
ENDBRANCH   4  12
BRANCH   5  23
ATOM     23  C   UNL     1       5.071   6.149  18.467  0.00  0.00    +0.000 C 
BRANCH  23  24
ATOM     24  C   UNL     1       5.405   6.912  17.170  0.00  0.00    +0.000 C 
BRANCH  24  25
ATOM     25  C   UNL     1       6.872   7.024  16.847  0.00  0.00    +0.000 C 
ATOM     26  O   UNL     1       7.612   7.900  17.261  0.00  0.00    +0.000 OA
BRANCH  25  27
ATOM     27  O   UNL     1       7.296   6.058  16.008  0.00  0.00    +0.000 OA
ATOM     28  H   UNL     1       6.968   6.131  15.090  0.00  0.00    +0.000 HD
ENDBRANCH  25  27
ENDBRANCH  24  25
ENDBRANCH  23  24
ENDBRANCH   5  23
TORSDOF 8
ENDMDL
MODEL 3
REMARK VINA RESULT:      -7.5      1.620      2.938
REMARK  Name = 
REMARK  9 active torsions:
REMARK  status: ('A' for Active; 'I' for Inactive)
REMARK    1  A    between atoms: C_1  and  C_2
REMARK    2  A    between atoms: C_4  and  C_5
REMARK    3  A    between atoms: C_5  and  C_6
REMARK    4  A    between atoms: C_16  and  C_17
REMARK    5  A    between atoms: C_17  and  C_18
REMARK    6  A    between atoms: C_18  and  C_19
REMARK    7  A    between atoms: C_19  and  O_21
REMARK    8  A    between atoms: C_22  and  C_23
REMARK    9  A    between atoms: C_25  and  O_26
REMARK                            x       y       z     vdW  Elec       q    Type
REMARK                         _______ _______ _______ _____ _____    ______ ____
ROOT
ATOM      1  C   UNL     1       6.931   6.822  17.510  0.00  0.00    +0.000 C 
ATOM      2  C   UNL     1       5.653   6.152  17.912  0.00  0.00    +0.000 A 
ATOM      3  N   UNL     1       4.535   6.899  17.857  0.00  0.00    +0.000 NA
ATOM      4  C   UNL     1       3.334   6.374  18.227  0.00  0.00    +0.000 A 
ATOM      5  C   UNL     1       3.194   5.028  18.655  0.00  0.00    +0.000 A 
ATOM      6  C   UNL     1       4.386   4.254  18.653  0.00  0.00    +0.000 A 
ATOM      7  C   UNL     1       5.623   4.825  18.300  0.00  0.00    +0.000 A 
ENDROOT
BRANCH   6   8
ATOM      8  C   UNL     1       4.383   2.797  18.940  0.00  0.00    +0.000 C 
ATOM      9  O   UNL     1       4.766   2.349  20.016  0.00  0.00    +0.000 OA
ENDBRANCH   6   8
BRANCH   7  10
ATOM     10  O   UNL     1       6.803   4.129  18.283  0.00  0.00    +0.000 OA
ATOM     11  H   UNL     1       6.605   3.166  18.323  0.00  0.00    +0.000 HD
ENDBRANCH   7  10
BRANCH   4  12
ATOM     12  C   UNL     1       2.208   7.385  18.049  0.00  0.00    +0.000 C 
BRANCH  12  13
ATOM     13  C   UNL     1       1.867   8.271  19.249  0.00  0.00    +0.000 A 
ATOM     14  C   UNL     1       1.557   7.664  20.478  0.00  0.00    +0.000 A 
ATOM     15  C   UNL     1       1.026   8.392  21.537  0.00  0.00    +0.000 A 
ATOM     16  C   UNL     1       0.797   9.751  21.391  0.00  0.00    +0.000 A 
ATOM     17  C   UNL     1       1.150  10.413  20.211  0.00  0.00    +0.000 A 
ATOM     18  C   UNL     1       0.942  11.798  20.114  0.00  0.00    +0.000 A 
ATOM     19  C   UNL     1       1.328  12.505  18.980  0.00  0.00    +0.000 A 
ATOM     20  C   UNL     1       1.922  11.831  17.924  0.00  0.00    +0.000 A 
ATOM     21  C   UNL     1       2.099  10.443  17.988  0.00  0.00    +0.000 A 
ATOM     22  C   UNL     1       1.716   9.689  19.124  0.00  0.00    +0.000 A 
ENDBRANCH  12  13
ENDBRANCH   4  12
BRANCH   5  23
ATOM     23  C   UNL     1       1.833   4.429  18.982  0.00  0.00    +0.000 C 
BRANCH  23  24
ATOM     24  C   UNL     1       1.370   4.275  20.444  0.00  0.00    +0.000 C 
BRANCH  24  25
ATOM     25  C   UNL     1       1.426   2.875  20.995  0.00  0.00    +0.000 C 
ATOM     26  O   UNL     1       1.410   2.591  22.181  0.00  0.00    +0.000 OA
BRANCH  25  27
ATOM     27  O   UNL     1       1.530   1.939  20.030  0.00  0.00    +0.000 OA
ATOM     28  H   UNL     1       0.830   1.257  20.036  0.00  0.00    +0.000 HD
ENDBRANCH  25  27
ENDBRANCH  24  25
ENDBRANCH  23  24
ENDBRANCH   5  23
TORSDOF 8
ENDMDL
MODEL 4
REMARK VINA RESULT:      -7.3      1.744      4.045
REMARK  Name = 
REMARK  9 active torsions:
REMARK  status: ('A' for Active; 'I' for Inactive)
REMARK    1  A    between atoms: C_1  and  C_2
REMARK    2  A    between atoms: C_4  and  C_5
REMARK    3  A    between atoms: C_5  and  C_6
REMARK    4  A    between atoms: C_16  and  C_17
REMARK    5  A    between atoms: C_17  and  C_18
REMARK    6  A    between atoms: C_18  and  C_19
REMARK    7  A    between atoms: C_19  and  O_21
REMARK    8  A    between atoms: C_22  and  C_23
REMARK    9  A    between atoms: C_25  and  O_26
REMARK                            x       y       z     vdW  Elec       q    Type
REMARK                         _______ _______ _______ _____ _____    ______ ____
ROOT
ATOM      1  C   UNL     1       1.057   2.895  21.149  0.00  0.00    +0.000 C 
ATOM      2  C   UNL     1       1.758   3.764  20.149  0.00  0.00    +0.000 A 
ATOM      3  N   UNL     1       1.917   5.058  20.479  0.00  0.00    +0.000 NA
ATOM      4  C   UNL     1       2.524   5.922  19.617  0.00  0.00    +0.000 A 
ATOM      5  C   UNL     1       3.037   5.505  18.362  0.00  0.00    +0.000 A 
ATOM      6  C   UNL     1       2.897   4.121  18.068  0.00  0.00    +0.000 A 
ATOM      7  C   UNL     1       2.237   3.253  18.957  0.00  0.00    +0.000 A 
ENDROOT
BRANCH   6   8
ATOM      8  C   UNL     1       3.503   3.505  16.860  0.00  0.00    +0.000 C 
ATOM      9  O   UNL     1       4.684   3.173  16.827  0.00  0.00    +0.000 OA
ENDBRANCH   6   8
BRANCH   7  10
ATOM     10  O   UNL     1       2.069   1.912  18.724  0.00  0.00    +0.000 OA
ATOM     11  H   UNL     1       1.350   1.576  19.305  0.00  0.00    +0.000 HD
ENDBRANCH   7  10
BRANCH   4  12
ATOM     12  C   UNL     1       2.627   7.321  20.214  0.00  0.00    +0.000 C 
BRANCH  12  13
ATOM     13  C   UNL     1       1.563   8.338  19.797  0.00  0.00    +0.000 A 
ATOM     14  C   UNL     1       1.433   8.671  18.437  0.00  0.00    +0.000 A 
ATOM     15  C   UNL     1       0.649   9.741  18.020  0.00  0.00    +0.000 A 
ATOM     16  C   UNL     1      -0.031  10.502  18.957  0.00  0.00    +0.000 A 
ATOM     17  C   UNL     1       0.013  10.170  20.316  0.00  0.00    +0.000 A 
ATOM     18  C   UNL     1      -0.722  10.939  21.232  0.00  0.00    +0.000 A 
ATOM     19  C   UNL     1      -0.750  10.613  22.584  0.00  0.00    +0.000 A 
ATOM     20  C   UNL     1      -0.035   9.515  23.036  0.00  0.00    +0.000 A 
ATOM     21  C   UNL     1       0.736   8.762  22.142  0.00  0.00    +0.000 A 
ATOM     22  C   UNL     1       0.792   9.065  20.760  0.00  0.00    +0.000 A 
ENDBRANCH  12  13
ENDBRANCH   4  12
BRANCH   5  23
ATOM     23  C   UNL     1       3.790   6.461  17.446  0.00  0.00    +0.000 C 
BRANCH  23  24
ATOM     24  C   UNL     1       5.323   6.595  17.534  0.00  0.00    +0.000 C 
BRANCH  24  25
ATOM     25  C   UNL     1       6.070   6.306  16.259  0.00  0.00    +0.000 C 
ATOM     26  O   UNL     1       5.552   6.166  15.163  0.00  0.00    +0.000 OA
BRANCH  25  27
ATOM     27  O   UNL     1       7.399   6.182  16.450  0.00  0.00    +0.000 OA
ATOM     28  H   UNL     1       7.804   5.389  16.046  0.00  0.00    +0.000 HD
ENDBRANCH  25  27
ENDBRANCH  24  25
ENDBRANCH  23  24
ENDBRANCH   5  23
TORSDOF 8
ENDMDL
MODEL 5
REMARK VINA RESULT:      -7.2      2.492      6.469
REMARK  Name = 
REMARK  9 active torsions:
REMARK  status: ('A' for Active; 'I' for Inactive)
REMARK    1  A    between atoms: C_1  and  C_2
REMARK    2  A    between atoms: C_4  and  C_5
REMARK    3  A    between atoms: C_5  and  C_6
REMARK    4  A    between atoms: C_16  and  C_17
REMARK    5  A    between atoms: C_17  and  C_18
REMARK    6  A    between atoms: C_18  and  C_19
REMARK    7  A    between atoms: C_19  and  O_21
REMARK    8  A    between atoms: C_22  and  C_23
REMARK    9  A    between atoms: C_25  and  O_26
REMARK                            x       y       z     vdW  Elec       q    Type
REMARK                         _______ _______ _______ _____ _____    ______ ____
ROOT
ATOM      1  C   UNL     1       2.393   9.745  17.352  0.00  0.00    +0.000 C 
ATOM      2  C   UNL     1       2.217   8.631  18.339  0.00  0.00    +0.000 A 
ATOM      3  N   UNL     1       2.685   7.423  17.976  0.00  0.00    +0.000 NA
ATOM      4  C   UNL     1       2.547   6.350  18.805  0.00  0.00    +0.000 A 
ATOM      5  C   UNL     1       1.940   6.454  20.083  0.00  0.00    +0.000 A 
ATOM      6  C   UNL     1       1.504   7.754  20.455  0.00  0.00    +0.000 A 
ATOM      7  C   UNL     1       1.625   8.842  19.570  0.00  0.00    +0.000 A 
ENDROOT
BRANCH   6   8
ATOM      8  C   UNL     1       0.976   8.054  21.811  0.00  0.00    +0.000 C 
ATOM      9  O   UNL     1       1.346   9.036  22.446  0.00  0.00    +0.000 OA
ENDBRANCH   6   8
BRANCH   7  10
ATOM     10  O   UNL     1       1.218  10.116  19.873  0.00  0.00    +0.000 OA
ATOM     11  H   UNL     1       1.997  10.715  19.837  0.00  0.00    +0.000 HD
ENDBRANCH   7  10
BRANCH   4  12
ATOM     12  C   UNL     1       3.180   5.101  18.206  0.00  0.00    +0.000 C 
BRANCH  12  13
ATOM     13  C   UNL     1       4.707   5.066  18.113  0.00  0.00    +0.000 A 
ATOM     14  C   UNL     1       5.467   5.361  19.258  0.00  0.00    +0.000 A 
ATOM     15  C   UNL     1       6.840   5.565  19.190  0.00  0.00    +0.000 A 
ATOM     16  C   UNL     1       7.489   5.474  17.969  0.00  0.00    +0.000 A 
ATOM     17  C   UNL     1       6.788   5.119  16.811  0.00  0.00    +0.000 A 
ATOM     18  C   UNL     1       7.486   4.995  15.599  0.00  0.00    +0.000 A 
ATOM     19  C   UNL     1       6.839   4.592  14.436  0.00  0.00    +0.000 A 
ATOM     20  C   UNL     1       5.481   4.314  14.470  0.00  0.00    +0.000 A 
ATOM     21  C   UNL     1       4.763   4.472  15.662  0.00  0.00    +0.000 A 
ATOM     22  C   UNL     1       5.385   4.883  16.865  0.00  0.00    +0.000 A 
ENDBRANCH  12  13
ENDBRANCH   4  12
BRANCH   5  23
ATOM     23  C   UNL     1       1.870   5.267  21.035  0.00  0.00    +0.000 C 
BRANCH  23  24
ATOM     24  C   UNL     1       1.058   4.009  20.670  0.00  0.00    +0.000 C 
BRANCH  24  25
ATOM     25  C   UNL     1       1.763   2.698  20.893  0.00  0.00    +0.000 C 
ATOM     26  O   UNL     1       2.242   2.335  21.955  0.00  0.00    +0.000 OA
BRANCH  25  27
ATOM     27  O   UNL     1       1.848   1.954  19.772  0.00  0.00    +0.000 OA
ATOM     28  H   UNL     1       1.052   1.427  19.562  0.00  0.00    +0.000 HD
ENDBRANCH  25  27
ENDBRANCH  24  25
ENDBRANCH  23  24
ENDBRANCH   5  23
TORSDOF 8
ENDMDL
MODEL 6
REMARK VINA RESULT:      -7.2      1.679      2.816
REMARK  Name = 
REMARK  9 active torsions:
REMARK  status: ('A' for Active; 'I' for Inactive)
REMARK    1  A    between atoms: C_1  and  C_2
REMARK    2  A    between atoms: C_4  and  C_5
REMARK    3  A    between atoms: C_5  and  C_6
REMARK    4  A    between atoms: C_16  and  C_17
REMARK    5  A    between atoms: C_17  and  C_18
REMARK    6  A    between atoms: C_18  and  C_19
REMARK    7  A    between atoms: C_19  and  O_21
REMARK    8  A    between atoms: C_22  and  C_23
REMARK    9  A    between atoms: C_25  and  O_26
REMARK                            x       y       z     vdW  Elec       q    Type
REMARK                         _______ _______ _______ _____ _____    ______ ____
ROOT
ATOM      1  C   UNL     1       6.795   6.774  17.417  0.00  0.00    +0.000 C 
ATOM      2  C   UNL     1       5.489   6.153  17.811  0.00  0.00    +0.000 A 
ATOM      3  N   UNL     1       4.405   6.949  17.774  0.00  0.00    +0.000 NA
ATOM      4  C   UNL     1       3.183   6.470  18.138  0.00  0.00    +0.000 A 
ATOM      5  C   UNL     1       2.985   5.124  18.540  0.00  0.00    +0.000 A 
ATOM      6  C   UNL     1       4.142   4.299  18.519  0.00  0.00    +0.000 A 
ATOM      7  C   UNL     1       5.402   4.822  18.173  0.00  0.00    +0.000 A 
ENDROOT
BRANCH   6   8
ATOM      8  C   UNL     1       4.075   2.838  18.778  0.00  0.00    +0.000 C 
ATOM      9  O   UNL     1       3.932   2.026  17.870  0.00  0.00    +0.000 OA
ENDBRANCH   6   8
BRANCH   7  10
ATOM     10  O   UNL     1       6.550   4.074  18.140  0.00  0.00    +0.000 OA
ATOM     11  H   UNL     1       6.529   3.494  17.346  0.00  0.00    +0.000 HD
ENDBRANCH   7  10
BRANCH   4  12
ATOM     12  C   UNL     1       2.102   7.533  17.982  0.00  0.00    +0.000 C 
BRANCH  12  13
ATOM     13  C   UNL     1       1.661   8.273  19.247  0.00  0.00    +0.000 A 
ATOM     14  C   UNL     1       2.099   7.805  20.498  0.00  0.00    +0.000 A 
ATOM     15  C   UNL     1       1.563   8.288  21.686  0.00  0.00    +0.000 A 
ATOM     16  C   UNL     1       0.574   9.258  21.650  0.00  0.00    +0.000 A 
ATOM     17  C   UNL     1       0.151   9.803  20.432  0.00  0.00    +0.000 A 
ATOM     18  C   UNL     1      -0.823  10.814  20.437  0.00  0.00    +0.000 A 
ATOM     19  C   UNL     1      -1.234  11.421  19.255  0.00  0.00    +0.000 A 
ATOM     20  C   UNL     1      -0.678  11.017  18.050  0.00  0.00    +0.000 A 
ATOM     21  C   UNL     1       0.265   9.982  18.025  0.00  0.00    +0.000 A 
ATOM     22  C   UNL     1       0.705   9.338  19.207  0.00  0.00    +0.000 A 
ENDBRANCH  12  13
ENDBRANCH   4  12
BRANCH   5  23
ATOM     23  C   UNL     1       1.599   4.579  18.861  0.00  0.00    +0.000 C 
BRANCH  23  24
ATOM     24  C   UNL     1       1.100   4.501  20.316  0.00  0.00    +0.000 C 
BRANCH  24  25
ATOM     25  C   UNL     1       1.566   3.299  21.095  0.00  0.00    +0.000 C 
ATOM     26  O   UNL     1       2.174   3.345  22.151  0.00  0.00    +0.000 OA
BRANCH  25  27
ATOM     27  O   UNL     1       1.268   2.135  20.484  0.00  0.00    +0.000 OA
ATOM     28  H   UNL     1       0.368   1.794  20.657  0.00  0.00    +0.000 HD
ENDBRANCH  25  27
ENDBRANCH  24  25
ENDBRANCH  23  24
ENDBRANCH   5  23
TORSDOF 8
ENDMDL
MODEL 7
REMARK VINA RESULT:      -7.1      2.394      6.617
REMARK  Name = 
REMARK  9 active torsions:
REMARK  status: ('A' for Active; 'I' for Inactive)
REMARK    1  A    between atoms: C_1  and  C_2
REMARK    2  A    between atoms: C_4  and  C_5
REMARK    3  A    between atoms: C_5  and  C_6
REMARK    4  A    between atoms: C_16  and  C_17
REMARK    5  A    between atoms: C_17  and  C_18
REMARK    6  A    between atoms: C_18  and  C_19
REMARK    7  A    between atoms: C_19  and  O_21
REMARK    8  A    between atoms: C_22  and  C_23
REMARK    9  A    between atoms: C_25  and  O_26
REMARK                            x       y       z     vdW  Elec       q    Type
REMARK                         _______ _______ _______ _____ _____    ______ ____
ROOT
ATOM      1  C   UNL     1       2.494   7.877  18.918  0.00  0.00    +0.000 C 
ATOM      2  C   UNL     1       2.466   6.379  18.952  0.00  0.00    +0.000 A 
ATOM      3  N   UNL     1       2.931   5.741  17.862  0.00  0.00    +0.000 NA
ATOM      4  C   UNL     1       2.921   4.380  17.801  0.00  0.00    +0.000 A 
ATOM      5  C   UNL     1       2.454   3.576  18.872  0.00  0.00    +0.000 A 
ATOM      6  C   UNL     1       2.016   4.282  20.026  0.00  0.00    +0.000 A 
ATOM      7  C   UNL     1       2.003   5.689  20.056  0.00  0.00    +0.000 A 
ENDROOT
BRANCH   6   8
ATOM      8  C   UNL     1       1.630   3.585  21.280  0.00  0.00    +0.000 C 
ATOM      9  O   UNL     1       2.432   3.397  22.189  0.00  0.00    +0.000 OA
ENDBRANCH   6   8
BRANCH   7  10
ATOM     10  O   UNL     1       1.589   6.421  21.139  0.00  0.00    +0.000 OA
ATOM     11  H   UNL     1       1.324   7.318  20.833  0.00  0.00    +0.000 HD
ENDBRANCH   7  10
BRANCH   4  12
ATOM     12  C   UNL     1       3.527   3.879  16.495  0.00  0.00    +0.000 C 
BRANCH  12  13
ATOM     13  C   UNL     1       4.988   4.241  16.219  0.00  0.00    +0.000 A 
ATOM     14  C   UNL     1       5.759   4.801  17.252  0.00  0.00    +0.000 A 
ATOM     15  C   UNL     1       7.012   5.353  17.010  0.00  0.00    +0.000 A 
ATOM     16  C   UNL     1       7.526   5.354  15.723  0.00  0.00    +0.000 A 
ATOM     17  C   UNL     1       6.826   4.749  14.673  0.00  0.00    +0.000 A 
ATOM     18  C   UNL     1       7.397   4.732  13.391  0.00  0.00    +0.000 A 
ATOM     19  C   UNL     1       6.761   4.095  12.330  0.00  0.00    +0.000 A 
ATOM     20  C   UNL     1       5.540   3.473  12.539  0.00  0.00    +0.000 A 
ATOM     21  C   UNL     1       4.938   3.517  13.803  0.00  0.00    +0.000 A 
ATOM     22  C   UNL     1       5.553   4.158  14.906  0.00  0.00    +0.000 A 
ENDBRANCH  12  13
ENDBRANCH   4  12
BRANCH   5  23
ATOM     23  C   UNL     1       2.528   2.056  18.825  0.00  0.00    +0.000 C 
BRANCH  23  24
ATOM     24  C   UNL     1       3.872   1.325  19.009  0.00  0.00    +0.000 C 
BRANCH  24  25
ATOM     25  C   UNL     1       4.784   1.904  20.059  0.00  0.00    +0.000 C 
ATOM     26  O   UNL     1       4.881   1.491  21.202  0.00  0.00    +0.000 OA
BRANCH  25  27
ATOM     27  O   UNL     1       5.478   2.971  19.615  0.00  0.00    +0.000 OA
ATOM     28  H   UNL     1       5.169   3.836  19.950  0.00  0.00    +0.000 HD
ENDBRANCH  25  27
ENDBRANCH  24  25
ENDBRANCH  23  24
ENDBRANCH   5  23
TORSDOF 8
ENDMDL
MODEL 8
REMARK VINA RESULT:      -7.0      1.040      1.197
REMARK  Name = 
REMARK  9 active torsions:
REMARK  status: ('A' for Active; 'I' for Inactive)
REMARK    1  A    between atoms: C_1  and  C_2
REMARK    2  A    between atoms: C_4  and  C_5
REMARK    3  A    between atoms: C_5  and  C_6
REMARK    4  A    between atoms: C_16  and  C_17
REMARK    5  A    between atoms: C_17  and  C_18
REMARK    6  A    between atoms: C_18  and  C_19
REMARK    7  A    between atoms: C_19  and  O_21
REMARK    8  A    between atoms: C_22  and  C_23
REMARK    9  A    between atoms: C_25  and  O_26
REMARK                            x       y       z     vdW  Elec       q    Type
REMARK                         _______ _______ _______ _____ _____    ______ ____
ROOT
ATOM      1  C   UNL     1       7.552   7.738  17.628  0.00  0.00    +0.000 C 
ATOM      2  C   UNL     1       6.400   6.796  17.447  0.00  0.00    +0.000 A 
ATOM      3  N   UNL     1       5.364   6.940  18.293  0.00  0.00    +0.000 NA
ATOM      4  C   UNL     1       4.286   6.111  18.212  0.00  0.00    +0.000 A 
ATOM      5  C   UNL     1       4.186   5.090  17.231  0.00  0.00    +0.000 A 
ATOM      6  C   UNL     1       5.276   5.000  16.323  0.00  0.00    +0.000 A 
ATOM      7  C   UNL     1       6.395   5.844  16.445  0.00  0.00    +0.000 A 
ENDROOT
BRANCH   6   8
ATOM      8  C   UNL     1       5.259   4.079  15.158  0.00  0.00    +0.000 C 
ATOM      9  O   UNL     1       6.247   3.425  14.837  0.00  0.00    +0.000 OA
ENDBRANCH   6   8
BRANCH   7  10
ATOM     10  O   UNL     1       7.475   5.799  15.602  0.00  0.00    +0.000 OA
ATOM     11  H   UNL     1       7.319   6.417  14.852  0.00  0.00    +0.000 HD
ENDBRANCH   7  10
BRANCH   4  12
ATOM     12  C   UNL     1       3.223   6.481  19.240  0.00  0.00    +0.000 C 
BRANCH  12  13
ATOM     13  C   UNL     1       2.376   7.722  18.954  0.00  0.00    +0.000 A 
ATOM     14  C   UNL     1       2.534   8.388  17.725  0.00  0.00    +0.000 A 
ATOM     15  C   UNL     1       1.965   9.635  17.494  0.00  0.00    +0.000 A 
ATOM     16  C   UNL     1       1.218  10.246  18.489  0.00  0.00    +0.000 A 
ATOM     17  C   UNL     1       0.977   9.595  19.703  0.00  0.00    +0.000 A 
ATOM     18  C   UNL     1       0.181  10.227  20.672  0.00  0.00    +0.000 A 
ATOM     19  C   UNL     1      -0.129   9.595  21.871  0.00  0.00    +0.000 A 
ATOM     20  C   UNL     1       0.362   8.322  22.119  0.00  0.00    +0.000 A 
ATOM     21  C   UNL     1       1.191   7.695  21.181  0.00  0.00    +0.000 A 
ATOM     22  C   UNL     1       1.531   8.308  19.950  0.00  0.00    +0.000 A 
ENDBRANCH  12  13
ENDBRANCH   4  12
BRANCH   5  23
ATOM     23  C   UNL     1       2.938   4.228  17.096  0.00  0.00    +0.000 C 
BRANCH  23  24
ATOM     24  C   UNL     1       2.308   3.553  18.330  0.00  0.00    +0.000 C 
BRANCH  24  25
ATOM     25  C   UNL     1       2.479   2.058  18.406  0.00  0.00    +0.000 C 
ATOM     26  O   UNL     1       3.533   1.467  18.241  0.00  0.00    +0.000 OA
BRANCH  25  27
ATOM     27  O   UNL     1       1.319   1.413  18.646  0.00  0.00    +0.000 OA
ATOM     28  H   UNL     1       1.392   0.441  18.716  0.00  0.00    +0.000 HD
ENDBRANCH  25  27
ENDBRANCH  24  25
ENDBRANCH  23  24
ENDBRANCH   5  23
TORSDOF 8
ENDMDL
MODEL 9
REMARK VINA RESULT:      -7.0      1.731      2.463
REMARK  Name = 
REMARK  9 active torsions:
REMARK  status: ('A' for Active; 'I' for Inactive)
REMARK    1  A    between atoms: C_1  and  C_2
REMARK    2  A    between atoms: C_4  and  C_5
REMARK    3  A    between atoms: C_5  and  C_6
REMARK    4  A    between atoms: C_16  and  C_17
REMARK    5  A    between atoms: C_17  and  C_18
REMARK    6  A    between atoms: C_18  and  C_19
REMARK    7  A    between atoms: C_19  and  O_21
REMARK    8  A    between atoms: C_22  and  C_23
REMARK    9  A    between atoms: C_25  and  O_26
REMARK                            x       y       z     vdW  Elec       q    Type
REMARK                         _______ _______ _______ _____ _____    ______ ____
ROOT
ATOM      1  C   UNL     1       5.780   6.525  17.627  0.00  0.00    +0.000 C 
ATOM      2  C   UNL     1       4.901   5.694  18.511  0.00  0.00    +0.000 A 
ATOM      3  N   UNL     1       3.838   6.311  19.059  0.00  0.00    +0.000 NA
ATOM      4  C   UNL     1       3.000   5.635  19.893  0.00  0.00    +0.000 A 
ATOM      5  C   UNL     1       3.181   4.262  20.200  0.00  0.00    +0.000 A 
ATOM      6  C   UNL     1       4.283   3.628  19.564  0.00  0.00    +0.000 A 
ATOM      7  C   UNL     1       5.157   4.354  18.733  0.00  0.00    +0.000 A 
ENDROOT
BRANCH   6   8
ATOM      8  C   UNL     1       4.526   2.167  19.672  0.00  0.00    +0.000 C 
ATOM      9  O   UNL     1       5.273   1.697  20.525  0.00  0.00    +0.000 OA
ENDBRANCH   6   8
BRANCH   7  10
ATOM     10  O   UNL     1       6.237   3.797  18.098  0.00  0.00    +0.000 OA
ATOM     11  H   UNL     1       6.103   2.825  18.035  0.00  0.00    +0.000 HD
ENDBRANCH   7  10
BRANCH   4  12
ATOM     12  C   UNL     1       1.851   6.520  20.363  0.00  0.00    +0.000 C 
BRANCH  12  13
ATOM     13  C   UNL     1       1.632   7.836  19.614  0.00  0.00    +0.000 A 
ATOM     14  C   UNL     1       2.100   7.956  18.294  0.00  0.00    +0.000 A 
ATOM     15  C   UNL     1       2.133   9.183  17.641  0.00  0.00    +0.000 A 
ATOM     16  C   UNL     1       1.691  10.322  18.294  0.00  0.00    +0.000 A 
ATOM     17  C   UNL     1       1.154  10.244  19.584  0.00  0.00    +0.000 A 
ATOM     18  C   UNL     1       0.678  11.412  20.199  0.00  0.00    +0.000 A 
ATOM     19  C   UNL     1       0.088  11.372  21.458  0.00  0.00    +0.000 A 
ATOM     20  C   UNL     1      -0.026  10.160  22.121  0.00  0.00    +0.000 A 
ATOM     21  C   UNL     1       0.481   8.991  21.538  0.00  0.00    +0.000 A 
ATOM     22  C   UNL     1       1.091   8.993  20.260  0.00  0.00    +0.000 A 
ENDBRANCH  12  13
ENDBRANCH   4  12
BRANCH   5  23
ATOM     23  C   UNL     1       2.188   3.495  21.063  0.00  0.00    +0.000 C 
BRANCH  23  24
ATOM     24  C   UNL     1       0.906   2.899  20.451  0.00  0.00    +0.000 C 
BRANCH  24  25
ATOM     25  C   UNL     1       0.938   2.692  18.960  0.00  0.00    +0.000 C 
ATOM     26  O   UNL     1       0.691   3.552  18.131  0.00  0.00    +0.000 OA
BRANCH  25  27
ATOM     27  O   UNL     1       1.243   1.424  18.616  0.00  0.00    +0.000 OA
ATOM     28  H   UNL     1       1.394   1.278  17.661  0.00  0.00    +0.000 HD
ENDBRANCH  25  27
ENDBRANCH  24  25
ENDBRANCH  23  24
ENDBRANCH   5  23
TORSDOF 8
ENDMDL
