MODEL 1
REMARK VINA RESULT:      -7.5      0.000      0.000
REMARK  Name = 
REMARK  12 active torsions:
REMARK  status: ('A' for Active; 'I' for Inactive)
REMARK    1  A    between atoms: C_1  and  C_2
REMARK    2  A    between atoms: C_2  and  O_3
REMARK    3  A    between atoms: O_3  and  C_4
REMARK    4  A    between atoms: C_4  and  C_6
REMARK    5  A    between atoms: C_6  and  C_7
REMARK    6  A    between atoms: C_7  and  C_8
REMARK    7  A    between atoms: C_8  and  N_9
REMARK    8  A    between atoms: C_10  and  S_11
REMARK    9  A    between atoms: S_11  and  C_12
REMARK   10  A    between atoms: C_12  and  C_13
REMARK   11  A    between atoms: C_13  and  O_14
REMARK   12  A    between atoms: O_14  and  C_15
REMARK                            x       y       z     vdW  Elec       q    Type
REMARK                         _______ _______ _______ _____ _____    ______ ____
ROOT
ATOM      1  N   UNL     1       5.535   5.092  16.082  0.00  0.00    +0.000 N 
ATOM      2  C   UNL     1       6.689   5.727  16.490  0.00  0.00    +0.000 A 
ATOM      3  N   UNL     1       7.589   5.767  15.536  0.00  0.00    +0.000 NA
ATOM      4  C   UNL     1       7.039   5.083  14.487  0.00  0.00    +0.000 A 
ATOM      5  C   UNL     1       7.582   4.818  13.219  0.00  0.00    +0.000 A 
ATOM      6  C   UNL     1       6.852   4.034  12.320  0.00  0.00    +0.000 A 
ATOM      7  C   UNL     1       5.602   3.528  12.673  0.00  0.00    +0.000 A 
ATOM      8  C   UNL     1       5.027   3.811  13.918  0.00  0.00    +0.000 A 
ATOM      9  C   UNL     1       5.771   4.605  14.806  0.00  0.00    +0.000 A 
ENDROOT
BRANCH   1  10
ATOM     10  C   UNL     1       4.310   4.867  16.829  0.00  0.00    +0.000 C 
BRANCH  10  11
ATOM     11  C   UNL     1       4.371   3.758  17.881  0.00  0.00    +0.000 C 
BRANCH  11  12
ATOM     12  C   UNL     1       3.386   2.638  17.545  0.00  0.00    +0.000 C 
BRANCH  12  13
ATOM     13  C   UNL     1       2.010   2.913  18.102  0.00  0.00    +0.000 C 
ATOM     14  O   UNL     1       1.182   3.661  17.606  0.00  0.00    +0.000 OA
BRANCH  13  15
ATOM     15  O   UNL     1       1.889   2.281  19.303  0.00  0.00    +0.000 OA
BRANCH  15  17
ATOM     16  C   UNL     1       2.103   3.923  21.014  0.00  0.00    +0.000 C 
ATOM     17  C   UNL     1       1.137   3.000  20.290  0.00  0.00    +0.000 C 
ENDBRANCH  15  17
ENDBRANCH  13  15
ENDBRANCH  12  13
ENDBRANCH  11  12
ENDBRANCH  10  11
ENDBRANCH   1  10
BRANCH   2  18
ATOM     18  S   UNL     1       6.901   6.513  18.016  0.00  0.00    +0.000 S 
BRANCH  18  19
ATOM     19  C   UNL     1       7.812   8.033  17.605  0.00  0.00    +0.000 C 
BRANCH  19  20
ATOM     20  C   UNL     1       8.690   8.677  18.681  0.00  0.00    +0.000 C 
BRANCH  20  21
ATOM     21  O   UNL     1       8.649  10.095  18.438  0.00  0.00    +0.000 OA
BRANCH  21  22
ATOM     22  C   UNL     1       9.555  10.898  19.077  0.00  0.00    +0.000 A 
ATOM     23  C   UNL     1       9.535  11.287  20.417  0.00  0.00    +0.000 A 
ATOM     24  F   UNL     1       8.563  10.884  21.245  0.00  0.00    +0.000 F 
ATOM     25  C   UNL     1      10.527  12.113  20.950  0.00  0.00    +0.000 A 
ATOM     26  C   UNL     1      11.572  12.568  20.152  0.00  0.00    +0.000 A 
ATOM     27  C   UNL     1      11.609  12.189  18.813  0.00  0.00    +0.000 A 
ATOM     28  C   UNL     1      10.614  11.370  18.290  0.00  0.00    +0.000 A 
ATOM     29  F   UNL     1      10.683  11.030  16.992  0.00  0.00    +0.000 F 
ENDBRANCH  21  22
ENDBRANCH  20  21
ENDBRANCH  19  20
ENDBRANCH  18  19
ENDBRANCH   2  18
TORSDOF 11
ENDMDL
MODEL 2
REMARK VINA RESULT:      -7.4      4.796      7.447
REMARK  Name = 
REMARK  12 active torsions:
REMARK  status: ('A' for Active; 'I' for Inactive)
REMARK    1  A    between atoms: C_1  and  C_2
REMARK    2  A    between atoms: C_2  and  O_3
REMARK    3  A    between atoms: O_3  and  C_4
REMARK    4  A    between atoms: C_4  and  C_6
REMARK    5  A    between atoms: C_6  and  C_7
REMARK    6  A    between atoms: C_7  and  C_8
REMARK    7  A    between atoms: C_8  and  N_9
REMARK    8  A    between atoms: C_10  and  S_11
REMARK    9  A    between atoms: S_11  and  C_12
REMARK   10  A    between atoms: C_12  and  C_13
REMARK   11  A    between atoms: C_13  and  O_14
REMARK   12  A    between atoms: O_14  and  C_15
REMARK                            x       y       z     vdW  Elec       q    Type
REMARK                         _______ _______ _______ _____ _____    ______ ____
ROOT
ATOM      1  N   UNL     1       3.613   5.573  18.052  0.00  0.00    +0.000 N 
ATOM      2  C   UNL     1       4.905   5.287  18.438  0.00  0.00    +0.000 A 
ATOM      3  N   UNL     1       5.029   4.051  18.860  0.00  0.00    +0.000 NA
ATOM      4  C   UNL     1       3.768   3.522  18.812  0.00  0.00    +0.000 A 
ATOM      5  C   UNL     1       3.334   2.233  19.162  0.00  0.00    +0.000 A 
ATOM      6  C   UNL     1       1.970   1.936  19.089  0.00  0.00    +0.000 A 
ATOM      7  C   UNL     1       1.054   2.899  18.669  0.00  0.00    +0.000 A 
ATOM      8  C   UNL     1       1.471   4.179  18.281  0.00  0.00    +0.000 A 
ATOM      9  C   UNL     1       2.845   4.459  18.354  0.00  0.00    +0.000 A 
ENDROOT
BRANCH   1  10
ATOM     10  C   UNL     1       3.080   6.810  17.511  0.00  0.00    +0.000 C 
BRANCH  10  11
ATOM     11  C   UNL     1       2.390   7.730  18.519  0.00  0.00    +0.000 C 
BRANCH  11  12
ATOM     12  C   UNL     1       1.983   9.048  17.859  0.00  0.00    +0.000 C 
BRANCH  12  13
ATOM     13  C   UNL     1       0.790   9.673  18.541  0.00  0.00    +0.000 C 
ATOM     14  O   UNL     1      -0.240  10.023  17.986  0.00  0.00    +0.000 OA
BRANCH  13  15
ATOM     15  O   UNL     1       1.097   9.888  19.851  0.00  0.00    +0.000 OA
BRANCH  15  17
ATOM     16  C   UNL     1       0.095  11.653  21.096  0.00  0.00    +0.000 C 
ATOM     17  C   UNL     1      -0.024  10.193  20.691  0.00  0.00    +0.000 C 
ENDBRANCH  15  17
ENDBRANCH  13  15
ENDBRANCH  12  13
ENDBRANCH  11  12
ENDBRANCH  10  11
ENDBRANCH   1  10
BRANCH   2  18
ATOM     18  S   UNL     1       6.252   6.359  18.263  0.00  0.00    +0.000 S 
BRANCH  18  19
ATOM     19  C   UNL     1       7.663   5.248  17.971  0.00  0.00    +0.000 C 
BRANCH  19  20
ATOM     20  C   UNL     1       7.747   4.501  16.637  0.00  0.00    +0.000 C 
BRANCH  20  21
ATOM     21  O   UNL     1       7.194   5.386  15.645  0.00  0.00    +0.000 OA
BRANCH  21  22
ATOM     22  C   UNL     1       6.900   4.882  14.407  0.00  0.00    +0.000 A 
ATOM     23  C   UNL     1       7.650   5.031  13.240  0.00  0.00    +0.000 A 
ATOM     24  F   UNL     1       8.794   5.727  13.230  0.00  0.00    +0.000 F 
ATOM     25  C   UNL     1       7.239   4.462  12.033  0.00  0.00    +0.000 A 
ATOM     26  C   UNL     1       6.063   3.720  11.965  0.00  0.00    +0.000 A 
ATOM     27  C   UNL     1       5.303   3.561  13.120  0.00  0.00    +0.000 A 
ATOM     28  C   UNL     1       5.718   4.135  14.316  0.00  0.00    +0.000 A 
ATOM     29  F   UNL     1       4.955   3.961  15.409  0.00  0.00    +0.000 F 
ENDBRANCH  21  22
ENDBRANCH  20  21
ENDBRANCH  19  20
ENDBRANCH  18  19
ENDBRANCH   2  18
TORSDOF 11
ENDMDL
MODEL 3
REMARK VINA RESULT:      -7.4      1.286      1.419
REMARK  Name = 
REMARK  12 active torsions:
REMARK  status: ('A' for Active; 'I' for Inactive)
REMARK    1  A    between atoms: C_1  and  C_2
REMARK    2  A    between atoms: C_2  and  O_3
REMARK    3  A    between atoms: O_3  and  C_4
REMARK    4  A    between atoms: C_4  and  C_6
REMARK    5  A    between atoms: C_6  and  C_7
REMARK    6  A    between atoms: C_7  and  C_8
REMARK    7  A    between atoms: C_8  and  N_9
REMARK    8  A    between atoms: C_10  and  S_11
REMARK    9  A    between atoms: S_11  and  C_12
REMARK   10  A    between atoms: C_12  and  C_13
REMARK   11  A    between atoms: C_13  and  O_14
REMARK   12  A    between atoms: O_14  and  C_15
REMARK                            x       y       z     vdW  Elec       q    Type
REMARK                         _______ _______ _______ _____ _____    ______ ____
ROOT
ATOM      1  N   UNL     1       5.713   5.345  16.244  0.00  0.00    +0.000 N 
ATOM      2  C   UNL     1       6.927   5.911  16.573  0.00  0.00    +0.000 A 
ATOM      3  N   UNL     1       7.779   5.855  15.576  0.00  0.00    +0.000 NA
ATOM      4  C   UNL     1       7.131   5.174  14.581  0.00  0.00    +0.000 A 
ATOM      5  C   UNL     1       7.592   4.828  13.301  0.00  0.00    +0.000 A 
ATOM      6  C   UNL     1       6.766   4.067  12.468  0.00  0.00    +0.000 A 
ATOM      7  C   UNL     1       5.502   3.662  12.898  0.00  0.00    +0.000 A 
ATOM      8  C   UNL     1       5.012   4.028  14.158  0.00  0.00    +0.000 A 
ATOM      9  C   UNL     1       5.851   4.798  14.979  0.00  0.00    +0.000 A 
ENDROOT
BRANCH   1  10
ATOM     10  C   UNL     1       4.514   5.233  17.057  0.00  0.00    +0.000 C 
BRANCH  10  11
ATOM     11  C   UNL     1       4.414   3.973  17.917  0.00  0.00    +0.000 C 
BRANCH  11  12
ATOM     12  C   UNL     1       3.373   3.009  17.347  0.00  0.00    +0.000 C 
BRANCH  12  13
ATOM     13  C   UNL     1       2.005   3.243  17.940  0.00  0.00    +0.000 C 
ATOM     14  O   UNL     1       1.127   3.931  17.444  0.00  0.00    +0.000 OA
BRANCH  13  15
ATOM     15  O   UNL     1       1.953   2.657  19.169  0.00  0.00    +0.000 OA
BRANCH  15  17
ATOM     16  C   UNL     1       1.713   4.151  21.007  0.00  0.00    +0.000 C 
ATOM     17  C   UNL     1       0.979   3.214  20.062  0.00  0.00    +0.000 C 
ENDBRANCH  15  17
ENDBRANCH  13  15
ENDBRANCH  12  13
ENDBRANCH  11  12
ENDBRANCH  10  11
ENDBRANCH   1  10
BRANCH   2  18
ATOM     18  S   UNL     1       7.268   6.733  18.056  0.00  0.00    +0.000 S 
BRANCH  18  19
ATOM     19  C   UNL     1       7.759   8.404  17.530  0.00  0.00    +0.000 C 
BRANCH  19  20
ATOM     20  C   UNL     1       8.531   9.287  18.514  0.00  0.00    +0.000 C 
BRANCH  20  21
ATOM     21  O   UNL     1       9.262  10.236  17.715  0.00  0.00    +0.000 OA
BRANCH  21  22
ATOM     22  C   UNL     1       9.456  11.498  18.208  0.00  0.00    +0.000 A 
ATOM     23  C   UNL     1      10.472  11.917  19.069  0.00  0.00    +0.000 A 
ATOM     24  F   UNL     1      11.400  11.063  19.519  0.00  0.00    +0.000 F 
ATOM     25  C   UNL     1      10.561  13.242  19.499  0.00  0.00    +0.000 A 
ATOM     26  C   UNL     1       9.635  14.188  19.070  0.00  0.00    +0.000 A 
ATOM     27  C   UNL     1       8.616  13.789  18.210  0.00  0.00    +0.000 A 
ATOM     28  C   UNL     1       8.533  12.465  17.792  0.00  0.00    +0.000 A 
ATOM     29  F   UNL     1       7.532  12.118  16.963  0.00  0.00    +0.000 F 
ENDBRANCH  21  22
ENDBRANCH  20  21
ENDBRANCH  19  20
ENDBRANCH  18  19
ENDBRANCH   2  18
TORSDOF 11
ENDMDL
MODEL 4
REMARK VINA RESULT:      -7.3      4.466      7.117
REMARK  Name = 
REMARK  12 active torsions:
REMARK  status: ('A' for Active; 'I' for Inactive)
REMARK    1  A    between atoms: C_1  and  C_2
REMARK    2  A    between atoms: C_2  and  O_3
REMARK    3  A    between atoms: O_3  and  C_4
REMARK    4  A    between atoms: C_4  and  C_6
REMARK    5  A    between atoms: C_6  and  C_7
REMARK    6  A    between atoms: C_7  and  C_8
REMARK    7  A    between atoms: C_8  and  N_9
REMARK    8  A    between atoms: C_10  and  S_11
REMARK    9  A    between atoms: S_11  and  C_12
REMARK   10  A    between atoms: C_12  and  C_13
REMARK   11  A    between atoms: C_13  and  O_14
REMARK   12  A    between atoms: O_14  and  C_15
REMARK                            x       y       z     vdW  Elec       q    Type
REMARK                         _______ _______ _______ _____ _____    ______ ____
ROOT
ATOM      1  N   UNL     1       4.258   5.546  18.521  0.00  0.00    +0.000 N 
ATOM      2  C   UNL     1       5.444   4.958  18.907  0.00  0.00    +0.000 A 
ATOM      3  N   UNL     1       5.354   3.649  18.944  0.00  0.00    +0.000 NA
ATOM      4  C   UNL     1       4.051   3.366  18.634  0.00  0.00    +0.000 A 
ATOM      5  C   UNL     1       3.414   2.118  18.541  0.00  0.00    +0.000 A 
ATOM      6  C   UNL     1       2.043   2.077  18.270  0.00  0.00    +0.000 A 
ATOM      7  C   UNL     1       1.319   3.255  18.088  0.00  0.00    +0.000 A 
ATOM      8  C   UNL     1       1.944   4.508  18.141  0.00  0.00    +0.000 A 
ATOM      9  C   UNL     1       3.322   4.531  18.408  0.00  0.00    +0.000 A 
ENDROOT
BRANCH   1  10
ATOM     10  C   UNL     1       3.962   6.956  18.338  0.00  0.00    +0.000 C 
BRANCH  10  11
ATOM     11  C   UNL     1       2.596   7.416  18.850  0.00  0.00    +0.000 C 
BRANCH  11  12
ATOM     12  C   UNL     1       2.087   8.607  18.038  0.00  0.00    +0.000 C 
BRANCH  12  13
ATOM     13  C   UNL     1       1.182   9.498  18.854  0.00  0.00    +0.000 C 
ATOM     14  O   UNL     1       0.676  10.540  18.466  0.00  0.00    +0.000 OA
BRANCH  13  15
ATOM     15  O   UNL     1       1.115   9.010  20.125  0.00  0.00    +0.000 OA
BRANCH  15  17
ATOM     16  C   UNL     1       0.305   9.248  22.350  0.00  0.00    +0.000 C 
ATOM     17  C   UNL     1       0.828   9.989  21.132  0.00  0.00    +0.000 C 
ENDBRANCH  15  17
ENDBRANCH  13  15
ENDBRANCH  12  13
ENDBRANCH  11  12
ENDBRANCH  10  11
ENDBRANCH   1  10
BRANCH   2  18
ATOM     18  S   UNL     1       6.929   5.804  19.176  0.00  0.00    +0.000 S 
BRANCH  18  19
ATOM     19  C   UNL     1       7.349   6.485  17.542  0.00  0.00    +0.000 C 
BRANCH  19  20
ATOM     20  C   UNL     1       6.536   6.033  16.326  0.00  0.00    +0.000 C 
BRANCH  20  21
ATOM     21  O   UNL     1       7.486   5.513  15.378  0.00  0.00    +0.000 OA
BRANCH  21  22
ATOM     22  C   UNL     1       7.018   4.860  14.269  0.00  0.00    +0.000 A 
ATOM     23  C   UNL     1       5.893   4.038  14.190  0.00  0.00    +0.000 A 
ATOM     24  F   UNL     1       5.128   3.800  15.263  0.00  0.00    +0.000 F 
ATOM     25  C   UNL     1       5.520   3.429  12.990  0.00  0.00    +0.000 A 
ATOM     26  C   UNL     1       6.263   3.634  11.832  0.00  0.00    +0.000 A 
ATOM     27  C   UNL     1       7.388   4.452  11.892  0.00  0.00    +0.000 A 
ATOM     28  C   UNL     1       7.755   5.050  13.093  0.00  0.00    +0.000 A 
ATOM     29  F   UNL     1       8.849   5.830  13.110  0.00  0.00    +0.000 F 
ENDBRANCH  21  22
ENDBRANCH  20  21
ENDBRANCH  19  20
ENDBRANCH  18  19
ENDBRANCH   2  18
TORSDOF 11
ENDMDL
MODEL 5
REMARK VINA RESULT:      -7.3      4.865      7.807
REMARK  Name = 
REMARK  12 active torsions:
REMARK  status: ('A' for Active; 'I' for Inactive)
REMARK    1  A    between atoms: C_1  and  C_2
REMARK    2  A    between atoms: C_2  and  O_3
REMARK    3  A    between atoms: O_3  and  C_4
REMARK    4  A    between atoms: C_4  and  C_6
REMARK    5  A    between atoms: C_6  and  C_7
REMARK    6  A    between atoms: C_7  and  C_8
REMARK    7  A    between atoms: C_8  and  N_9
REMARK    8  A    between atoms: C_10  and  S_11
REMARK    9  A    between atoms: S_11  and  C_12
REMARK   10  A    between atoms: C_12  and  C_13
REMARK   11  A    between atoms: C_13  and  O_14
REMARK   12  A    between atoms: O_14  and  C_15
REMARK                            x       y       z     vdW  Elec       q    Type
REMARK                         _______ _______ _______ _____ _____    ______ ____
ROOT
ATOM      1  N   UNL     1       2.961   5.724  18.976  0.00  0.00    +0.000 N 
ATOM      2  C   UNL     1       3.846   5.400  17.970  0.00  0.00    +0.000 A 
ATOM      3  N   UNL     1       3.618   4.203  17.483  0.00  0.00    +0.000 NA
ATOM      4  C   UNL     1       2.592   3.695  18.233  0.00  0.00    +0.000 A 
ATOM      5  C   UNL     1       1.962   2.443  18.139  0.00  0.00    +0.000 A 
ATOM      6  C   UNL     1       0.967   2.115  19.065  0.00  0.00    +0.000 A 
ATOM      7  C   UNL     1       0.600   3.018  20.062  0.00  0.00    +0.000 A 
ATOM      8  C   UNL     1       1.192   4.285  20.150  0.00  0.00    +0.000 A 
ATOM      9  C   UNL     1       2.184   4.600  19.208  0.00  0.00    +0.000 A 
ENDROOT
BRANCH   1  10
ATOM     10  C   UNL     1       2.869   6.953  19.743  0.00  0.00    +0.000 C 
BRANCH  10  11
ATOM     11  C   UNL     1       1.669   7.845  19.422  0.00  0.00    +0.000 C 
BRANCH  11  12
ATOM     12  C   UNL     1       1.969   8.747  18.224  0.00  0.00    +0.000 C 
BRANCH  12  13
ATOM     13  C   UNL     1       1.426  10.142  18.420  0.00  0.00    +0.000 C 
ATOM     14  O   UNL     1       2.009  11.175  18.134  0.00  0.00    +0.000 OA
BRANCH  13  15
ATOM     15  O   UNL     1       0.232  10.060  19.072  0.00  0.00    +0.000 OA
BRANCH  15  17
ATOM     16  C   UNL     1      -1.478  10.030  17.418  0.00  0.00    +0.000 C 
ATOM     17  C   UNL     1      -0.819  10.855  18.509  0.00  0.00    +0.000 C 
ENDBRANCH  15  17
ENDBRANCH  13  15
ENDBRANCH  12  13
ENDBRANCH  11  12
ENDBRANCH  10  11
ENDBRANCH   1  10
BRANCH   2  18
ATOM     18  S   UNL     1       5.030   6.473  17.307  0.00  0.00    +0.000 S 
BRANCH  18  19
ATOM     19  C   UNL     1       6.613   5.639  17.636  0.00  0.00    +0.000 C 
BRANCH  19  20
ATOM     20  C   UNL     1       7.382   5.032  16.460  0.00  0.00    +0.000 C 
BRANCH  20  21
ATOM     21  O   UNL     1       6.905   5.702  15.278  0.00  0.00    +0.000 OA
BRANCH  21  22
ATOM     22  C   UNL     1       6.811   4.991  14.112  0.00  0.00    +0.000 A 
ATOM     23  C   UNL     1       7.696   5.026  13.033  0.00  0.00    +0.000 A 
ATOM     24  F   UNL     1       8.780   5.811  13.046  0.00  0.00    +0.000 F 
ATOM     25  C   UNL     1       7.487   4.244  11.895  0.00  0.00    +0.000 A 
ATOM     26  C   UNL     1       6.384   3.400  11.810  0.00  0.00    +0.000 A 
ATOM     27  C   UNL     1       5.492   3.351  12.878  0.00  0.00    +0.000 A 
ATOM     28  C   UNL     1       5.706   4.137  14.005  0.00  0.00    +0.000 A 
ATOM     29  F   UNL     1       4.820   4.064  15.013  0.00  0.00    +0.000 F 
ENDBRANCH  21  22
ENDBRANCH  20  21
ENDBRANCH  19  20
ENDBRANCH  18  19
ENDBRANCH   2  18
TORSDOF 11
ENDMDL
MODEL 6
REMARK VINA RESULT:      -7.3      4.943      8.037
REMARK  Name = 
REMARK  12 active torsions:
REMARK  status: ('A' for Active; 'I' for Inactive)
REMARK    1  A    between atoms: C_1  and  C_2
REMARK    2  A    between atoms: C_2  and  O_3
REMARK    3  A    between atoms: O_3  and  C_4
REMARK    4  A    between atoms: C_4  and  C_6
REMARK    5  A    between atoms: C_6  and  C_7
REMARK    6  A    between atoms: C_7  and  C_8
REMARK    7  A    between atoms: C_8  and  N_9
REMARK    8  A    between atoms: C_10  and  S_11
REMARK    9  A    between atoms: S_11  and  C_12
REMARK   10  A    between atoms: C_12  and  C_13
REMARK   11  A    between atoms: C_13  and  O_14
REMARK   12  A    between atoms: O_14  and  C_15
REMARK                            x       y       z     vdW  Elec       q    Type
REMARK                         _______ _______ _______ _____ _____    ______ ____
ROOT
ATOM      1  N   UNL     1       3.011   4.803  18.095  0.00  0.00    +0.000 N 
ATOM      2  C   UNL     1       2.970   6.104  18.550  0.00  0.00    +0.000 A 
ATOM      3  N   UNL     1       2.671   6.168  19.826  0.00  0.00    +0.000 NA
ATOM      4  C   UNL     1       2.445   4.875  20.212  0.00  0.00    +0.000 A 
ATOM      5  C   UNL     1       2.083   4.378  21.474  0.00  0.00    +0.000 A 
ATOM      6  C   UNL     1       1.841   3.008  21.618  0.00  0.00    +0.000 A 
ATOM      7  C   UNL     1       1.963   2.147  20.528  0.00  0.00    +0.000 A 
ATOM      8  C   UNL     1       2.358   2.618  19.269  0.00  0.00    +0.000 A 
ATOM      9  C   UNL     1       2.603   3.995  19.144  0.00  0.00    +0.000 A 
ENDROOT
BRANCH   1  10
ATOM     10  C   UNL     1       3.327   4.317  16.763  0.00  0.00    +0.000 C 
BRANCH  10  11
ATOM     11  C   UNL     1       4.746   3.782  16.573  0.00  0.00    +0.000 C 
BRANCH  11  12
ATOM     12  C   UNL     1       5.634   4.829  15.901  0.00  0.00    +0.000 C 
BRANCH  12  13
ATOM     13  C   UNL     1       6.914   5.058  16.668  0.00  0.00    +0.000 C 
ATOM     14  O   UNL     1       7.952   4.433  16.516  0.00  0.00    +0.000 OA
BRANCH  13  15
ATOM     15  O   UNL     1       6.686   5.993  17.632  0.00  0.00    +0.000 OA
BRANCH  15  17
ATOM     16  C   UNL     1       7.931   5.745  19.646  0.00  0.00    +0.000 C 
ATOM     17  C   UNL     1       6.599   5.475  18.966  0.00  0.00    +0.000 C 
ENDBRANCH  15  17
ENDBRANCH  13  15
ENDBRANCH  12  13
ENDBRANCH  11  12
ENDBRANCH  10  11
ENDBRANCH   1  10
BRANCH   2  18
ATOM     18  S   UNL     1       3.399   7.495  17.615  0.00  0.00    +0.000 S 
BRANCH  18  19
ATOM     19  C   UNL     1       1.925   8.559  17.708  0.00  0.00    +0.000 C 
BRANCH  19  20
ATOM     20  C   UNL     1       1.749   9.463  18.931  0.00  0.00    +0.000 C 
BRANCH  20  21
ATOM     21  O   UNL     1       0.348   9.423  19.262  0.00  0.00    +0.000 OA
BRANCH  21  22
ATOM     22  C   UNL     1      -0.053   9.903  20.479  0.00  0.00    +0.000 A 
ATOM     23  C   UNL     1      -0.429  11.212  20.784  0.00  0.00    +0.000 A 
ATOM     24  F   UNL     1      -0.424  12.173  19.852  0.00  0.00    +0.000 F 
ATOM     25  C   UNL     1      -0.823  11.574  22.074  0.00  0.00    +0.000 A 
ATOM     26  C   UNL     1      -0.858  10.629  23.095  0.00  0.00    +0.000 A 
ATOM     27  C   UNL     1      -0.487   9.318  22.808  0.00  0.00    +0.000 A 
ATOM     28  C   UNL     1      -0.092   8.968  21.522  0.00  0.00    +0.000 A 
ATOM     29  F   UNL     1       0.261   7.692  21.286  0.00  0.00    +0.000 F 
ENDBRANCH  21  22
ENDBRANCH  20  21
ENDBRANCH  19  20
ENDBRANCH  18  19
ENDBRANCH   2  18
TORSDOF 11
ENDMDL
MODEL 7
REMARK VINA RESULT:      -7.3      4.617      7.352
REMARK  Name = 
REMARK  12 active torsions:
REMARK  status: ('A' for Active; 'I' for Inactive)
REMARK    1  A    between atoms: C_1  and  C_2
REMARK    2  A    between atoms: C_2  and  O_3
REMARK    3  A    between atoms: O_3  and  C_4
REMARK    4  A    between atoms: C_4  and  C_6
REMARK    5  A    between atoms: C_6  and  C_7
REMARK    6  A    between atoms: C_7  and  C_8
REMARK    7  A    between atoms: C_8  and  N_9
REMARK    8  A    between atoms: C_10  and  S_11
REMARK    9  A    between atoms: S_11  and  C_12
REMARK   10  A    between atoms: C_12  and  C_13
REMARK   11  A    between atoms: C_13  and  O_14
REMARK   12  A    between atoms: O_14  and  C_15
REMARK                            x       y       z     vdW  Elec       q    Type
REMARK                         _______ _______ _______ _____ _____    ______ ____
ROOT
ATOM      1  N   UNL     1       4.173   5.313  18.402  0.00  0.00    +0.000 N 
ATOM      2  C   UNL     1       5.313   4.872  19.041  0.00  0.00    +0.000 A 
ATOM      3  N   UNL     1       5.243   3.597  19.344  0.00  0.00    +0.000 NA
ATOM      4  C   UNL     1       3.994   3.198  18.952  0.00  0.00    +0.000 A 
ATOM      5  C   UNL     1       3.397   1.931  19.052  0.00  0.00    +0.000 A 
ATOM      6  C   UNL     1       2.071   1.773  18.637  0.00  0.00    +0.000 A 
ATOM      7  C   UNL     1       1.353   2.853  18.125  0.00  0.00    +0.000 A 
ATOM      8  C   UNL     1       1.943   4.116  17.984  0.00  0.00    +0.000 A 
ATOM      9  C   UNL     1       3.277   4.255  18.399  0.00  0.00    +0.000 A 
ENDROOT
BRANCH   1  10
ATOM     10  C   UNL     1       3.874   6.638  17.890  0.00  0.00    +0.000 C 
BRANCH  10  11
ATOM     11  C   UNL     1       2.498   7.194  18.256  0.00  0.00    +0.000 C 
BRANCH  11  12
ATOM     12  C   UNL     1       2.301   7.199  19.773  0.00  0.00    +0.000 C 
BRANCH  12  13
ATOM     13  C   UNL     1       1.601   8.449  20.246  0.00  0.00    +0.000 C 
ATOM     14  O   UNL     1       1.237   8.667  21.390  0.00  0.00    +0.000 OA
BRANCH  13  15
ATOM     15  O   UNL     1       1.340   9.240  19.167  0.00  0.00    +0.000 OA
BRANCH  15  17
ATOM     16  C   UNL     1       1.168  11.607  19.357  0.00  0.00    +0.000 C 
ATOM     17  C   UNL     1       0.401  10.297  19.407  0.00  0.00    +0.000 C 
ENDBRANCH  15  17
ENDBRANCH  13  15
ENDBRANCH  12  13
ENDBRANCH  11  12
ENDBRANCH  10  11
ENDBRANCH   1  10
BRANCH   2  18
ATOM     18  S   UNL     1       6.736   5.821  19.295  0.00  0.00    +0.000 S 
BRANCH  18  19
ATOM     19  C   UNL     1       7.554   5.832  17.670  0.00  0.00    +0.000 C 
BRANCH  19  20
ATOM     20  C   UNL     1       7.089   4.834  16.606  0.00  0.00    +0.000 C 
BRANCH  20  21
ATOM     21  O   UNL     1       6.854   5.600  15.411  0.00  0.00    +0.000 OA
BRANCH  21  22
ATOM     22  C   UNL     1       6.724   4.937  14.220  0.00  0.00    +0.000 A 
ATOM     23  C   UNL     1       7.601   4.978  13.135  0.00  0.00    +0.000 A 
ATOM     24  F   UNL     1       8.715   5.721  13.167  0.00  0.00    +0.000 F 
ATOM     25  C   UNL     1       7.354   4.248  11.971  0.00  0.00    +0.000 A 
ATOM     26  C   UNL     1       6.219   3.449  11.866  0.00  0.00    +0.000 A 
ATOM     27  C   UNL     1       5.334   3.395  12.938  0.00  0.00    +0.000 A 
ATOM     28  C   UNL     1       5.587   4.129  14.092  0.00  0.00    +0.000 A 
ATOM     29  F   UNL     1       4.706   4.053  15.105  0.00  0.00    +0.000 F 
ENDBRANCH  21  22
ENDBRANCH  20  21
ENDBRANCH  19  20
ENDBRANCH  18  19
ENDBRANCH   2  18
TORSDOF 11
ENDMDL
MODEL 8
REMARK VINA RESULT:      -7.3      6.021      9.168
REMARK  Name = 
REMARK  12 active torsions:
REMARK  status: ('A' for Active; 'I' for Inactive)
REMARK    1  A    between atoms: C_1  and  C_2
REMARK    2  A    between atoms: C_2  and  O_3
REMARK    3  A    between atoms: O_3  and  C_4
REMARK    4  A    between atoms: C_4  and  C_6
REMARK    5  A    between atoms: C_6  and  C_7
REMARK    6  A    between atoms: C_7  and  C_8
REMARK    7  A    between atoms: C_8  and  N_9
REMARK    8  A    between atoms: C_10  and  S_11
REMARK    9  A    between atoms: S_11  and  C_12
REMARK   10  A    between atoms: C_12  and  C_13
REMARK   11  A    between atoms: C_13  and  O_14
REMARK   12  A    between atoms: O_14  and  C_15
REMARK                            x       y       z     vdW  Elec       q    Type
REMARK                         _______ _______ _______ _____ _____    ______ ____
ROOT
ATOM      1  N   UNL     1       3.515   6.132  18.606  0.00  0.00    +0.000 N 
ATOM      2  C   UNL     1       2.480   6.971  18.963  0.00  0.00    +0.000 A 
ATOM      3  N   UNL     1       1.765   6.476  19.945  0.00  0.00    +0.000 NA
ATOM      4  C   UNL     1       2.303   5.245  20.203  0.00  0.00    +0.000 A 
ATOM      5  C   UNL     1       1.912   4.289  21.154  0.00  0.00    +0.000 A 
ATOM      6  C   UNL     1       2.579   3.060  21.192  0.00  0.00    +0.000 A 
ATOM      7  C   UNL     1       3.621   2.790  20.306  0.00  0.00    +0.000 A 
ATOM      8  C   UNL     1       4.049   3.744  19.374  0.00  0.00    +0.000 A 
ATOM      9  C   UNL     1       3.373   4.974  19.353  0.00  0.00    +0.000 A 
ENDROOT
BRANCH   1  10
ATOM     10  C   UNL     1       4.534   6.329  17.590  0.00  0.00    +0.000 C 
BRANCH  10  11
ATOM     11  C   UNL     1       4.678   5.200  16.569  0.00  0.00    +0.000 C 
BRANCH  11  12
ATOM     12  C   UNL     1       5.831   5.484  15.607  0.00  0.00    +0.000 C 
BRANCH  12  13
ATOM     13  C   UNL     1       7.167   5.465  16.309  0.00  0.00    +0.000 C 
ATOM     14  O   UNL     1       7.714   4.474  16.766  0.00  0.00    +0.000 OA
BRANCH  13  15
ATOM     15  O   UNL     1       7.606   6.748  16.449  0.00  0.00    +0.000 OA
BRANCH  15  17
ATOM     16  C   UNL     1       7.997   8.679  17.785  0.00  0.00    +0.000 C 
ATOM     17  C   UNL     1       7.802   7.173  17.805  0.00  0.00    +0.000 C 
ENDBRANCH  15  17
ENDBRANCH  13  15
ENDBRANCH  12  13
ENDBRANCH  11  12
ENDBRANCH  10  11
ENDBRANCH   1  10
BRANCH   2  18
ATOM     18  S   UNL     1       2.218   8.553  18.314  0.00  0.00    +0.000 S 
BRANCH  18  19
ATOM     19  C   UNL     1       1.147   9.360  19.544  0.00  0.00    +0.000 C 
BRANCH  19  20
ATOM     20  C   UNL     1       0.262  10.526  19.094  0.00  0.00    +0.000 C 
BRANCH  20  21
ATOM     21  O   UNL     1      -1.098  10.072  19.223  0.00  0.00    +0.000 OA
BRANCH  21  22
ATOM     22  C   UNL     1      -2.010  10.450  18.275  0.00  0.00    +0.000 A 
ATOM     23  C   UNL     1      -3.066  11.348  18.434  0.00  0.00    +0.000 A 
ATOM     24  F   UNL     1      -3.294  11.954  19.607  0.00  0.00    +0.000 F 
ATOM     25  C   UNL     1      -3.929  11.652  17.379  0.00  0.00    +0.000 A 
ATOM     26  C   UNL     1      -3.752  11.065  16.130  0.00  0.00    +0.000 A 
ATOM     27  C   UNL     1      -2.703  10.167  15.952  0.00  0.00    +0.000 A 
ATOM     28  C   UNL     1      -1.852   9.868  17.010  0.00  0.00    +0.000 A 
ATOM     29  F   UNL     1      -0.852   8.994  16.799  0.00  0.00    +0.000 F 
ENDBRANCH  21  22
ENDBRANCH  20  21
ENDBRANCH  19  20
ENDBRANCH  18  19
ENDBRANCH   2  18
TORSDOF 11
ENDMDL
MODEL 9
REMARK VINA RESULT:      -7.2      5.257      7.229
REMARK  Name = 
REMARK  12 active torsions:
REMARK  status: ('A' for Active; 'I' for Inactive)
REMARK    1  A    between atoms: C_1  and  C_2
REMARK    2  A    between atoms: C_2  and  O_3
REMARK    3  A    between atoms: O_3  and  C_4
REMARK    4  A    between atoms: C_4  and  C_6
REMARK    5  A    between atoms: C_6  and  C_7
REMARK    6  A    between atoms: C_7  and  C_8
REMARK    7  A    between atoms: C_8  and  N_9
REMARK    8  A    between atoms: C_10  and  S_11
REMARK    9  A    between atoms: S_11  and  C_12
REMARK   10  A    between atoms: C_12  and  C_13
REMARK   11  A    between atoms: C_13  and  O_14
REMARK   12  A    between atoms: O_14  and  C_15
REMARK                            x       y       z     vdW  Elec       q    Type
REMARK                         _______ _______ _______ _____ _____    ______ ____
ROOT
ATOM      1  N   UNL     1       3.615   6.165  18.797  0.00  0.00    +0.000 N 
ATOM      2  C   UNL     1       3.268   7.164  17.912  0.00  0.00    +0.000 A 
ATOM      3  N   UNL     1       4.191   7.350  16.997  0.00  0.00    +0.000 NA
ATOM      4  C   UNL     1       5.206   6.494  17.325  0.00  0.00    +0.000 A 
ATOM      5  C   UNL     1       6.439   6.295  16.682  0.00  0.00    +0.000 A 
ATOM      6  C   UNL     1       7.357   5.402  17.242  0.00  0.00    +0.000 A 
ATOM      7  C   UNL     1       7.053   4.713  18.416  0.00  0.00    +0.000 A 
ATOM      8  C   UNL     1       5.815   4.872  19.052  0.00  0.00    +0.000 A 
ATOM      9  C   UNL     1       4.902   5.768  18.473  0.00  0.00    +0.000 A 
ENDROOT
BRANCH   1  10
ATOM     10  C   UNL     1       2.859   5.649  19.924  0.00  0.00    +0.000 C 
BRANCH  10  11
ATOM     11  C   UNL     1       1.626   4.817  19.568  0.00  0.00    +0.000 C 
BRANCH  11  12
ATOM     12  C   UNL     1       1.207   3.939  20.748  0.00  0.00    +0.000 C 
BRANCH  12  13
ATOM     13  C   UNL     1       2.155   2.783  20.954  0.00  0.00    +0.000 C 
ATOM     14  O   UNL     1       2.782   2.556  21.976  0.00  0.00    +0.000 OA
BRANCH  13  15
ATOM     15  O   UNL     1       2.283   2.105  19.779  0.00  0.00    +0.000 OA
BRANCH  15  17
ATOM     16  C   UNL     1       3.574   2.229  17.783  0.00  0.00    +0.000 C 
ATOM     17  C   UNL     1       3.625   2.003  19.284  0.00  0.00    +0.000 C 
ENDBRANCH  15  17
ENDBRANCH  13  15
ENDBRANCH  12  13
ENDBRANCH  11  12
ENDBRANCH  10  11
ENDBRANCH   1  10
BRANCH   2  18
ATOM     18  S   UNL     1       1.747   7.988  17.893  0.00  0.00    +0.000 S 
BRANCH  18  19
ATOM     19  C   UNL     1       2.191   9.736  18.129  0.00  0.00    +0.000 C 
BRANCH  19  20
ATOM     20  C   UNL     1       1.107  10.714  18.590  0.00  0.00    +0.000 C 
BRANCH  20  21
ATOM     21  O   UNL     1       0.077   9.915  19.201  0.00  0.00    +0.000 OA
BRANCH  21  22
ATOM     22  C   UNL     1      -0.295  10.195  20.489  0.00  0.00    +0.000 A 
ATOM     23  C   UNL     1      -0.948  11.341  20.944  0.00  0.00    +0.000 A 
ATOM     24  F   UNL     1      -1.285  12.331  20.107  0.00  0.00    +0.000 F 
ATOM     25  C   UNL     1      -1.276  11.505  22.291  0.00  0.00    +0.000 A 
ATOM     26  C   UNL     1      -0.962  10.518  23.220  0.00  0.00    +0.000 A 
ATOM     27  C   UNL     1      -0.312   9.367  22.784  0.00  0.00    +0.000 A 
ATOM     28  C   UNL     1       0.015   9.215  21.441  0.00  0.00    +0.000 A 
ATOM     29  F   UNL     1       0.646   8.091  21.059  0.00  0.00    +0.000 F 
ENDBRANCH  21  22
ENDBRANCH  20  21
ENDBRANCH  19  20
ENDBRANCH  18  19
ENDBRANCH   2  18
TORSDOF 11
ENDMDL
