MODEL 1
REMARK VINA RESULT:      -8.9      0.000      0.000
REMARK  Name = 
REMARK  5 active torsions:
REMARK  status: ('A' for Active; 'I' for Inactive)
REMARK    1  A    between atoms: C_4  and  C_5
REMARK    2  A    between atoms: C_5  and  C_6
REMARK    3  A    between atoms: C_9  and  C_10
REMARK    4  A    between atoms: C_14  and  C_15
REMARK    5  A    between atoms: N_25  and  O_26
REMARK                            x       y       z     vdW  Elec       q    Type
REMARK                         _______ _______ _______ _____ _____    ______ ____
ROOT
ATOM      1  C   UNL     1       0.857  10.264  19.027  0.00  0.00    +0.000 A 
ATOM      2  C   UNL     1       0.832   9.527  20.215  0.00  0.00    +0.000 A 
ATOM      3  C   UNL     1       1.429   8.263  20.279  0.00  0.00    +0.000 A 
ATOM      4  C   UNL     1       2.097   7.703  19.174  0.00  0.00    +0.000 A 
ATOM      5  C   UNL     1       2.140   8.475  18.000  0.00  0.00    +0.000 A 
ATOM      6  C   UNL     1       1.525   9.729  17.922  0.00  0.00    +0.000 A 
ENDROOT
BRANCH   4   7
ATOM      7  C   UNL     1       2.739   6.368  19.243  0.00  0.00    +0.000 A 
ATOM      8  C   UNL     1       3.960   6.101  18.597  0.00  0.00    +0.000 A 
ATOM      9  C   UNL     1       4.586   4.856  18.697  0.00  0.00    +0.000 A 
ATOM     10  C   UNL     1       3.990   3.830  19.424  0.00  0.00    +0.000 A 
ATOM     11  C   UNL     1       2.759   4.042  20.054  0.00  0.00    +0.000 A 
ATOM     12  C   UNL     1       2.156   5.312  19.968  0.00  0.00    +0.000 A 
BRANCH  11  13
ATOM     13  C   UNL     1       2.058   2.940  20.807  0.00  0.00    +0.000 C 
ATOM     14  F   UNL     1       0.848   3.308  21.315  0.00  0.00    +0.000 F 
ATOM     15  F   UNL     1       1.822   1.845  20.032  0.00  0.00    +0.000 F 
ATOM     16  F   UNL     1       2.787   2.495  21.868  0.00  0.00    +0.000 F 
ENDBRANCH  11  13
ENDBRANCH   4   7
BRANCH   1  17
ATOM     17  C   UNL     1       0.162  11.602  18.935  0.00  0.00    +0.000 C 
BRANCH  17  21
ATOM     18  O   UNL     1      -4.644  11.981  19.299  0.00  0.00    +0.000 OA
ATOM     19  C   UNL     1      -3.686  11.723  18.577  0.00  0.00    +0.000 A 
ATOM     20  C   UNL     1      -2.317  11.838  19.136  0.00  0.00    +0.000 A 
ATOM     21  C   UNL     1      -1.245  11.541  18.388  0.00  0.00    +0.000 A 
ATOM     22  N   UNL     1      -1.419  11.124  17.088  0.00  0.00    +0.000 N 
ATOM     23  C   UNL     1      -2.642  10.998  16.477  0.00  0.00    +0.000 A 
ATOM     24  O   UNL     1      -2.746  10.623  15.310  0.00  0.00    +0.000 OA
ATOM     25  N   UNL     1      -3.729  11.314  17.265  0.00  0.00    +0.000 N 
ATOM     26  H   UNL     1      -0.616  10.912  16.505  0.00  0.00    +0.000 HD
BRANCH  25  27
ATOM     27  O   UNL     1      -5.000  11.181  16.666  0.00  0.00    +0.000 OA
ATOM     28  H   UNL     1      -4.830  11.508  15.761  0.00  0.00    +0.000 HD
ENDBRANCH  25  27
ENDBRANCH  17  21
ENDBRANCH   1  17
TORSDOF 5
ENDMDL
MODEL 2
REMARK VINA RESULT:      -8.7      0.299      1.227
REMARK  Name = 
REMARK  5 active torsions:
REMARK  status: ('A' for Active; 'I' for Inactive)
REMARK    1  A    between atoms: C_4  and  C_5
REMARK    2  A    between atoms: C_5  and  C_6
REMARK    3  A    between atoms: C_9  and  C_10
REMARK    4  A    between atoms: C_14  and  C_15
REMARK    5  A    between atoms: N_25  and  O_26
REMARK                            x       y       z     vdW  Elec       q    Type
REMARK                         _______ _______ _______ _____ _____    ______ ____
ROOT
ATOM      1  C   UNL     1       1.042  10.165  18.999  0.00  0.00    +0.000 A 
ATOM      2  C   UNL     1       1.749   9.629  17.920  0.00  0.00    +0.000 A 
ATOM      3  C   UNL     1       2.345   8.366  18.016  0.00  0.00    +0.000 A 
ATOM      4  C   UNL     1       2.229   7.581  19.179  0.00  0.00    +0.000 A 
ATOM      5  C   UNL     1       1.485   8.124  20.240  0.00  0.00    +0.000 A 
ATOM      6  C   UNL     1       0.907   9.396  20.159  0.00  0.00    +0.000 A 
ENDROOT
BRANCH   4   7
ATOM      7  C   UNL     1       2.851   6.239  19.281  0.00  0.00    +0.000 A 
ATOM      8  C   UNL     1       4.096   5.954  18.690  0.00  0.00    +0.000 A 
ATOM      9  C   UNL     1       4.703   4.703  18.824  0.00  0.00    +0.000 A 
ATOM     10  C   UNL     1       4.063   3.688  19.529  0.00  0.00    +0.000 A 
ATOM     11  C   UNL     1       2.808   3.917  20.103  0.00  0.00    +0.000 A 
ATOM     12  C   UNL     1       2.225   5.193  19.985  0.00  0.00    +0.000 A 
BRANCH  11  13
ATOM     13  C   UNL     1       2.063   2.827  20.830  0.00  0.00    +0.000 C 
ATOM     14  F   UNL     1       1.753   1.757  20.044  0.00  0.00    +0.000 F 
ATOM     15  F   UNL     1       2.764   2.326  21.885  0.00  0.00    +0.000 F 
ATOM     16  F   UNL     1       0.879   3.265  21.344  0.00  0.00    +0.000 F 
ENDBRANCH  11  13
ENDBRANCH   4   7
BRANCH   1  17
ATOM     17  C   UNL     1       0.449  11.552  18.921  0.00  0.00    +0.000 C 
BRANCH  17  21
ATOM     18  O   UNL     1      -4.264  12.242  19.748  0.00  0.00    +0.000 OA
ATOM     19  C   UNL     1      -3.399  11.930  18.935  0.00  0.00    +0.000 A 
ATOM     20  C   UNL     1      -1.978  11.948  19.362  0.00  0.00    +0.000 A 
ATOM     21  C   UNL     1      -1.005  11.591  18.512  0.00  0.00    +0.000 A 
ATOM     22  N   UNL     1      -1.329  11.203  17.232  0.00  0.00    +0.000 N 
ATOM     23  C   UNL     1      -2.610  11.165  16.740  0.00  0.00    +0.000 A 
ATOM     24  O   UNL     1      -2.850  10.813  15.586  0.00  0.00    +0.000 OA
ATOM     25  N   UNL     1      -3.594  11.541  17.631  0.00  0.00    +0.000 N 
ATOM     26  H   UNL     1      -0.602  10.946  16.573  0.00  0.00    +0.000 HD
BRANCH  25  27
ATOM     27  O   UNL     1      -4.922  11.500  17.156  0.00  0.00    +0.000 OA
ATOM     28  H   UNL     1      -4.877  12.095  16.382  0.00  0.00    +0.000 HD
ENDBRANCH  25  27
ENDBRANCH  17  21
ENDBRANCH   1  17
TORSDOF 5
ENDMDL
MODEL 3
REMARK VINA RESULT:      -8.7      6.307      8.968
REMARK  Name = 
REMARK  5 active torsions:
REMARK  status: ('A' for Active; 'I' for Inactive)
REMARK    1  A    between atoms: C_4  and  C_5
REMARK    2  A    between atoms: C_5  and  C_6
REMARK    3  A    between atoms: C_9  and  C_10
REMARK    4  A    between atoms: C_14  and  C_15
REMARK    5  A    between atoms: N_25  and  O_26
REMARK                            x       y       z     vdW  Elec       q    Type
REMARK                         _______ _______ _______ _____ _____    ______ ____
ROOT
ATOM      1  C   UNL     1       5.075   5.397  17.430  0.00  0.00    +0.000 A 
ATOM      2  C   UNL     1       4.996   6.666  16.851  0.00  0.00    +0.000 A 
ATOM      3  C   UNL     1       4.007   7.571  17.254  0.00  0.00    +0.000 A 
ATOM      4  C   UNL     1       3.084   7.254  18.269  0.00  0.00    +0.000 A 
ATOM      5  C   UNL     1       3.203   5.985  18.861  0.00  0.00    +0.000 A 
ATOM      6  C   UNL     1       4.174   5.068  18.446  0.00  0.00    +0.000 A 
ENDROOT
BRANCH   4   7
ATOM      7  C   UNL     1       2.041   8.214  18.704  0.00  0.00    +0.000 A 
ATOM      8  C   UNL     1       1.426   9.098  17.799  0.00  0.00    +0.000 A 
ATOM      9  C   UNL     1       0.411   9.971  18.200  0.00  0.00    +0.000 A 
ATOM     10  C   UNL     1       0.006  10.007  19.530  0.00  0.00    +0.000 A 
ATOM     11  C   UNL     1       0.615   9.170  20.471  0.00  0.00    +0.000 A 
ATOM     12  C   UNL     1       1.614   8.274  20.044  0.00  0.00    +0.000 A 
BRANCH  11  13
ATOM     13  C   UNL     1       0.237   9.216  21.930  0.00  0.00    +0.000 C 
ATOM     14  F   UNL     1      -0.130  10.456  22.361  0.00  0.00    +0.000 F 
ATOM     15  F   UNL     1      -0.805   8.391  22.227  0.00  0.00    +0.000 F 
ATOM     16  F   UNL     1       1.261   8.829  22.741  0.00  0.00    +0.000 F 
ENDBRANCH  11  13
ENDBRANCH   4   7
BRANCH   1  17
ATOM     17  C   UNL     1       6.102   4.396  16.956  0.00  0.00    +0.000 C 
BRANCH  17  21
ATOM     18  O   UNL     1       5.283   3.116  12.366  0.00  0.00    +0.000 OA
ATOM     19  C   UNL     1       5.968   3.777  13.142  0.00  0.00    +0.000 A 
ATOM     20  C   UNL     1       5.638   3.748  14.588  0.00  0.00    +0.000 A 
ATOM     21  C   UNL     1       6.377   4.435  15.471  0.00  0.00    +0.000 A 
ATOM     22  N   UNL     1       7.451   5.173  15.029  0.00  0.00    +0.000 N 
ATOM     23  C   UNL     1       7.828   5.272  13.713  0.00  0.00    +0.000 A 
ATOM     24  O   UNL     1       8.796   5.948  13.367  0.00  0.00    +0.000 OA
ATOM     25  N   UNL     1       7.051   4.561  12.823  0.00  0.00    +0.000 N 
ATOM     26  H   UNL     1       8.009   5.711  15.684  0.00  0.00    +0.000 HD
BRANCH  25  27
ATOM     27  O   UNL     1       7.423   4.635  11.464  0.00  0.00    +0.000 OA
ATOM     28  H   UNL     1       8.076   3.911  11.395  0.00  0.00    +0.000 HD
ENDBRANCH  25  27
ENDBRANCH  17  21
ENDBRANCH   1  17
TORSDOF 5
ENDMDL
MODEL 4
REMARK VINA RESULT:      -8.6      0.988      1.664
REMARK  Name = 
REMARK  5 active torsions:
REMARK  status: ('A' for Active; 'I' for Inactive)
REMARK    1  A    between atoms: C_4  and  C_5
REMARK    2  A    between atoms: C_5  and  C_6
REMARK    3  A    between atoms: C_9  and  C_10
REMARK    4  A    between atoms: C_14  and  C_15
REMARK    5  A    between atoms: N_25  and  O_26
REMARK                            x       y       z     vdW  Elec       q    Type
REMARK                         _______ _______ _______ _____ _____    ______ ____
ROOT
ATOM      1  C   UNL     1       0.917  10.014  19.001  0.00  0.00    +0.000 A 
ATOM      2  C   UNL     1       1.551   9.564  17.839  0.00  0.00    +0.000 A 
ATOM      3  C   UNL     1       2.207   8.327  17.822  0.00  0.00    +0.000 A 
ATOM      4  C   UNL     1       2.227   7.485  18.949  0.00  0.00    +0.000 A 
ATOM      5  C   UNL     1       1.555   7.942  20.096  0.00  0.00    +0.000 A 
ATOM      6  C   UNL     1       0.917   9.187  20.127  0.00  0.00    +0.000 A 
ENDROOT
BRANCH   4   7
ATOM      7  C   UNL     1       2.914   6.170  18.931  0.00  0.00    +0.000 A 
ATOM      8  C   UNL     1       4.306   6.062  19.108  0.00  0.00    +0.000 A 
ATOM      9  C   UNL     1       4.947   4.821  19.135  0.00  0.00    +0.000 A 
ATOM     10  C   UNL     1       4.215   3.652  18.953  0.00  0.00    +0.000 A 
ATOM     11  C   UNL     1       2.834   3.716  18.740  0.00  0.00    +0.000 A 
ATOM     12  C   UNL     1       2.199   4.973  18.747  0.00  0.00    +0.000 A 
BRANCH  11  13
ATOM     13  C   UNL     1       2.016   2.475  18.489  0.00  0.00    +0.000 C 
ATOM     14  F   UNL     1       2.434   1.752  17.412  0.00  0.00    +0.000 F 
ATOM     15  F   UNL     1       2.030   1.616  19.546  0.00  0.00    +0.000 F 
ATOM     16  F   UNL     1       0.703   2.759  18.258  0.00  0.00    +0.000 F 
ENDBRANCH  11  13
ENDBRANCH   4   7
BRANCH   1  17
ATOM     17  C   UNL     1       0.259  11.373  19.043  0.00  0.00    +0.000 C 
BRANCH  17  21
ATOM     18  O   UNL     1      -4.516  12.074  19.335  0.00  0.00    +0.000 OA
ATOM     19  C   UNL     1      -3.566  11.756  18.625  0.00  0.00    +0.000 A 
ATOM     20  C   UNL     1      -2.202  11.775  19.207  0.00  0.00    +0.000 A 
ATOM     21  C   UNL     1      -1.140  11.411  18.473  0.00  0.00    +0.000 A 
ATOM     22  N   UNL     1      -1.320  11.014  17.168  0.00  0.00    +0.000 N 
ATOM     23  C   UNL     1      -2.539  10.975  16.537  0.00  0.00    +0.000 A 
ATOM     24  O   UNL     1      -2.649  10.615  15.366  0.00  0.00    +0.000 OA
ATOM     25  N   UNL     1      -3.615  11.359  17.310  0.00  0.00    +0.000 N 
ATOM     26  H   UNL     1      -0.525  10.752  16.596  0.00  0.00    +0.000 HD
BRANCH  25  27
ATOM     27  O   UNL     1      -4.882  11.315  16.691  0.00  0.00    +0.000 OA
ATOM     28  H   UNL     1      -4.904  10.402  16.343  0.00  0.00    +0.000 HD
ENDBRANCH  25  27
ENDBRANCH  17  21
ENDBRANCH   1  17
TORSDOF 5
ENDMDL
MODEL 5
REMARK VINA RESULT:      -8.6      2.968      3.810
REMARK  Name = 
REMARK  5 active torsions:
REMARK  status: ('A' for Active; 'I' for Inactive)
REMARK    1  A    between atoms: C_4  and  C_5
REMARK    2  A    between atoms: C_5  and  C_6
REMARK    3  A    between atoms: C_9  and  C_10
REMARK    4  A    between atoms: C_14  and  C_15
REMARK    5  A    between atoms: N_25  and  O_26
REMARK                            x       y       z     vdW  Elec       q    Type
REMARK                         _______ _______ _______ _____ _____    ______ ____
ROOT
ATOM      1  C   UNL     1       1.324   9.278  19.542  0.00  0.00    +0.000 A 
ATOM      2  C   UNL     1       1.525   8.117  20.295  0.00  0.00    +0.000 A 
ATOM      3  C   UNL     1       2.215   7.027  19.750  0.00  0.00    +0.000 A 
ATOM      4  C   UNL     1       2.753   7.068  18.451  0.00  0.00    +0.000 A 
ATOM      5  C   UNL     1       2.569   8.256  17.724  0.00  0.00    +0.000 A 
ATOM      6  C   UNL     1       1.861   9.340  18.254  0.00  0.00    +0.000 A 
ENDROOT
BRANCH   4   7
ATOM      7  C   UNL     1       3.492   5.918  17.875  0.00  0.00    +0.000 A 
ATOM      8  C   UNL     1       2.877   4.667  17.682  0.00  0.00    +0.000 A 
ATOM      9  C   UNL     1       3.560   3.596  17.099  0.00  0.00    +0.000 A 
ATOM     10  C   UNL     1       4.891   3.740  16.719  0.00  0.00    +0.000 A 
ATOM     11  C   UNL     1       5.551   4.956  16.924  0.00  0.00    +0.000 A 
ATOM     12  C   UNL     1       4.839   6.034  17.485  0.00  0.00    +0.000 A 
BRANCH  11  13
ATOM     13  C   UNL     1       7.006   5.133  16.573  0.00  0.00    +0.000 C 
ATOM     14  F   UNL     1       7.848   4.374  17.330  0.00  0.00    +0.000 F 
ATOM     15  F   UNL     1       7.274   4.811  15.277  0.00  0.00    +0.000 F 
ATOM     16  F   UNL     1       7.423   6.420  16.730  0.00  0.00    +0.000 F 
ENDBRANCH  11  13
ENDBRANCH   4   7
BRANCH   1  17
ATOM     17  C   UNL     1       0.529  10.433  20.103  0.00  0.00    +0.000 C 
BRANCH  17  21
ATOM     18  O   UNL     1      -2.278  10.298  16.169  0.00  0.00    +0.000 OA
ATOM     19  C   UNL     1      -2.129  10.724  17.310  0.00  0.00    +0.000 A 
ATOM     20  C   UNL     1      -0.922  10.321  18.072  0.00  0.00    +0.000 A 
ATOM     21  C   UNL     1      -0.710  10.784  19.312  0.00  0.00    +0.000 A 
ATOM     22  N   UNL     1      -1.621  11.643  19.882  0.00  0.00    +0.000 N 
ATOM     23  C   UNL     1      -2.773  12.064  19.263  0.00  0.00    +0.000 A 
ATOM     24  O   UNL     1      -3.559  12.832  19.815  0.00  0.00    +0.000 OA
ATOM     25  N   UNL     1      -2.972  11.571  17.991  0.00  0.00    +0.000 N 
ATOM     26  H   UNL     1      -1.482  11.988  20.825  0.00  0.00    +0.000 HD
BRANCH  25  27
ATOM     27  O   UNL     1      -4.141  11.998  17.326  0.00  0.00    +0.000 OA
ATOM     28  H   UNL     1      -4.340  12.836  17.788  0.00  0.00    +0.000 HD
ENDBRANCH  25  27
ENDBRANCH  17  21
ENDBRANCH   1  17
TORSDOF 5
ENDMDL
MODEL 6
REMARK VINA RESULT:      -8.6      1.084      1.389
REMARK  Name = 
REMARK  5 active torsions:
REMARK  status: ('A' for Active; 'I' for Inactive)
REMARK    1  A    between atoms: C_4  and  C_5
REMARK    2  A    between atoms: C_5  and  C_6
REMARK    3  A    between atoms: C_9  and  C_10
REMARK    4  A    between atoms: C_14  and  C_15
REMARK    5  A    between atoms: N_25  and  O_26
REMARK                            x       y       z     vdW  Elec       q    Type
REMARK                         _______ _______ _______ _____ _____    ______ ____
ROOT
ATOM      1  C   UNL     1       0.912  10.099  19.054  0.00  0.00    +0.000 A 
ATOM      2  C   UNL     1       0.983   9.157  20.084  0.00  0.00    +0.000 A 
ATOM      3  C   UNL     1       1.632   7.932  19.883  0.00  0.00    +0.000 A 
ATOM      4  C   UNL     1       2.258   7.619  18.662  0.00  0.00    +0.000 A 
ATOM      5  C   UNL     1       2.204   8.594  17.652  0.00  0.00    +0.000 A 
ATOM      6  C   UNL     1       1.537   9.810  17.838  0.00  0.00    +0.000 A 
ENDROOT
BRANCH   4   7
ATOM      7  C   UNL     1       2.954   6.326  18.450  0.00  0.00    +0.000 A 
ATOM      8  C   UNL     1       4.334   6.266  18.183  0.00  0.00    +0.000 A 
ATOM      9  C   UNL     1       4.998   5.046  18.027  0.00  0.00    +0.000 A 
ATOM     10  C   UNL     1       4.290   3.851  18.103  0.00  0.00    +0.000 A 
ATOM     11  C   UNL     1       2.911   3.866  18.332  0.00  0.00    +0.000 A 
ATOM     12  C   UNL     1       2.263   5.103  18.518  0.00  0.00    +0.000 A 
BRANCH  11  13
ATOM     13  C   UNL     1       2.103   2.594  18.369  0.00  0.00    +0.000 C 
ATOM     14  F   UNL     1       2.306   1.849  19.492  0.00  0.00    +0.000 F 
ATOM     15  F   UNL     1       0.762   2.824  18.310  0.00  0.00    +0.000 F 
ATOM     16  F   UNL     1       2.386   1.771  17.321  0.00  0.00    +0.000 F 
ENDBRANCH  11  13
ENDBRANCH   4   7
BRANCH   1  17
ATOM     17  C   UNL     1       0.161  11.396  19.246  0.00  0.00    +0.000 C 
BRANCH  17  21
ATOM     18  O   UNL     1      -4.623  12.088  19.301  0.00  0.00    +0.000 OA
ATOM     19  C   UNL     1      -3.640  11.768  18.640  0.00  0.00    +0.000 A 
ATOM     20  C   UNL     1      -2.305  11.793  19.288  0.00  0.00    +0.000 A 
ATOM     21  C   UNL     1      -1.209  11.427  18.609  0.00  0.00    +0.000 A 
ATOM     22  N   UNL     1      -1.324  11.023  17.298  0.00  0.00    +0.000 N 
ATOM     23  C   UNL     1      -2.511  10.977  16.609  0.00  0.00    +0.000 A 
ATOM     24  O   UNL     1      -2.563  10.611  15.436  0.00  0.00    +0.000 OA
ATOM     25  N   UNL     1      -3.623  11.363  17.326  0.00  0.00    +0.000 N 
ATOM     26  H   UNL     1      -0.501  10.759  16.768  0.00  0.00    +0.000 HD
BRANCH  25  27
ATOM     27  O   UNL     1      -4.859  11.313  16.646  0.00  0.00    +0.000 OA
ATOM     28  H   UNL     1      -4.662  11.823  15.836  0.00  0.00    +0.000 HD
ENDBRANCH  25  27
ENDBRANCH  17  21
ENDBRANCH   1  17
TORSDOF 5
ENDMDL
MODEL 7
REMARK VINA RESULT:      -8.6      1.715      2.428
REMARK  Name = 
REMARK  5 active torsions:
REMARK  status: ('A' for Active; 'I' for Inactive)
REMARK    1  A    between atoms: C_4  and  C_5
REMARK    2  A    between atoms: C_5  and  C_6
REMARK    3  A    between atoms: C_9  and  C_10
REMARK    4  A    between atoms: C_14  and  C_15
REMARK    5  A    between atoms: N_25  and  O_26
REMARK                            x       y       z     vdW  Elec       q    Type
REMARK                         _______ _______ _______ _____ _____    ______ ____
ROOT
ATOM      1  C   UNL     1       1.460   9.428  19.178  0.00  0.00    +0.000 A 
ATOM      2  C   UNL     1       2.010   8.616  18.182  0.00  0.00    +0.000 A 
ATOM      3  C   UNL     1       2.282   7.266  18.435  0.00  0.00    +0.000 A 
ATOM      4  C   UNL     1       1.987   6.673  19.676  0.00  0.00    +0.000 A 
ATOM      5  C   UNL     1       1.403   7.498  20.652  0.00  0.00    +0.000 A 
ATOM      6  C   UNL     1       1.150   8.854  20.413  0.00  0.00    +0.000 A 
ENDROOT
BRANCH   4   7
ATOM      7  C   UNL     1       2.266   5.241  19.944  0.00  0.00    +0.000 A 
ATOM      8  C   UNL     1       2.155   4.696  21.237  0.00  0.00    +0.000 A 
ATOM      9  C   UNL     1       2.375   3.338  21.482  0.00  0.00    +0.000 A 
ATOM     10  C   UNL     1       2.743   2.491  20.442  0.00  0.00    +0.000 A 
ATOM     11  C   UNL     1       2.898   2.997  19.147  0.00  0.00    +0.000 A 
ATOM     12  C   UNL     1       2.643   4.362  18.912  0.00  0.00    +0.000 A 
BRANCH  11  13
ATOM     13  C   UNL     1       3.346   2.121  18.005  0.00  0.00    +0.000 C 
ATOM     14  F   UNL     1       3.859   0.923  18.404  0.00  0.00    +0.000 F 
ATOM     15  F   UNL     1       2.333   1.827  17.143  0.00  0.00    +0.000 F 
ATOM     16  F   UNL     1       4.317   2.709  17.252  0.00  0.00    +0.000 F 
ENDBRANCH  11  13
ENDBRANCH   4   7
BRANCH   1  17
ATOM     17  C   UNL     1       1.221  10.898  18.929  0.00  0.00    +0.000 C 
BRANCH  17  21
ATOM     18  O   UNL     1      -3.001  12.687  20.463  0.00  0.00    +0.000 OA
ATOM     19  C   UNL     1      -2.378  12.174  19.538  0.00  0.00    +0.000 A 
ATOM     20  C   UNL     1      -0.942  11.859  19.731  0.00  0.00    +0.000 A 
ATOM     21  C   UNL     1      -0.232  11.276  18.755  0.00  0.00    +0.000 A 
ATOM     22  N   UNL     1      -0.844  10.967  17.562  0.00  0.00    +0.000 N 
ATOM     23  C   UNL     1      -2.163  11.230  17.283  0.00  0.00    +0.000 A 
ATOM     24  O   UNL     1      -2.665  10.936  16.199  0.00  0.00    +0.000 OA
ATOM     25  N   UNL     1      -2.871  11.834  18.300  0.00  0.00    +0.000 N 
ATOM     26  H   UNL     1      -0.316  10.541  16.808  0.00  0.00    +0.000 HD
BRANCH  25  27
ATOM     27  O   UNL     1      -4.232  12.104  18.045  0.00  0.00    +0.000 OA
ATOM     28  H   UNL     1      -4.175  12.746  17.311  0.00  0.00    +0.000 HD
ENDBRANCH  25  27
ENDBRANCH  17  21
ENDBRANCH   1  17
TORSDOF 5
ENDMDL
MODEL 8
REMARK VINA RESULT:      -8.5      6.255      9.014
REMARK  Name = 
REMARK  5 active torsions:
REMARK  status: ('A' for Active; 'I' for Inactive)
REMARK    1  A    between atoms: C_4  and  C_5
REMARK    2  A    between atoms: C_5  and  C_6
REMARK    3  A    between atoms: C_9  and  C_10
REMARK    4  A    between atoms: C_14  and  C_15
REMARK    5  A    between atoms: N_25  and  O_26
REMARK                            x       y       z     vdW  Elec       q    Type
REMARK                         _______ _______ _______ _____ _____    ______ ____
ROOT
ATOM      1  C   UNL     1       3.058   6.691  19.011  0.00  0.00    +0.000 A 
ATOM      2  C   UNL     1       2.312   7.090  20.123  0.00  0.00    +0.000 A 
ATOM      3  C   UNL     1       1.445   8.187  20.042  0.00  0.00    +0.000 A 
ATOM      4  C   UNL     1       1.270   8.903  18.843  0.00  0.00    +0.000 A 
ATOM      5  C   UNL     1       2.005   8.465  17.728  0.00  0.00    +0.000 A 
ATOM      6  C   UNL     1       2.890   7.384  17.809  0.00  0.00    +0.000 A 
ENDROOT
BRANCH   4   7
ATOM      7  C   UNL     1       0.346  10.059  18.751  0.00  0.00    +0.000 A 
ATOM      8  C   UNL     1       0.553  11.231  19.502  0.00  0.00    +0.000 A 
ATOM      9  C   UNL     1      -0.292  12.338  19.383  0.00  0.00    +0.000 A 
ATOM     10  C   UNL     1      -1.389  12.290  18.528  0.00  0.00    +0.000 A 
ATOM     11  C   UNL     1      -1.652  11.132  17.789  0.00  0.00    +0.000 A 
ATOM     12  C   UNL     1      -0.772  10.037  17.898  0.00  0.00    +0.000 A 
BRANCH  11  13
ATOM     13  C   UNL     1      -2.859  11.025  16.892  0.00  0.00    +0.000 C 
ATOM     14  F   UNL     1      -2.596  11.307  15.585  0.00  0.00    +0.000 F 
ATOM     15  F   UNL     1      -3.410   9.780  16.904  0.00  0.00    +0.000 F 
ATOM     16  F   UNL     1      -3.855  11.877  17.263  0.00  0.00    +0.000 F 
ENDBRANCH  11  13
ENDBRANCH   4   7
BRANCH   1  17
ATOM     17  C   UNL     1       4.039   5.547  19.111  0.00  0.00    +0.000 C 
BRANCH  17  21
ATOM     18  O   UNL     1       5.843   3.376  15.185  0.00  0.00    +0.000 OA
ATOM     19  C   UNL     1       5.916   4.327  15.958  0.00  0.00    +0.000 A 
ATOM     20  C   UNL     1       4.933   4.426  17.064  0.00  0.00    +0.000 A 
ATOM     21  C   UNL     1       4.993   5.436  17.944  0.00  0.00    +0.000 A 
ATOM     22  N   UNL     1       5.979   6.388  17.819  0.00  0.00    +0.000 N 
ATOM     23  C   UNL     1       6.924   6.390  16.824  0.00  0.00    +0.000 A 
ATOM     24  O   UNL     1       7.785   7.266  16.752  0.00  0.00    +0.000 OA
ATOM     25  N   UNL     1       6.839   5.345  15.928  0.00  0.00    +0.000 N 
ATOM     26  H   UNL     1       6.027   7.167  18.467  0.00  0.00    +0.000 HD
BRANCH  25  27
ATOM     27  O   UNL     1       7.807   5.315  14.902  0.00  0.00    +0.000 OA
ATOM     28  H   UNL     1       7.315   4.887  14.174  0.00  0.00    +0.000 HD
ENDBRANCH  25  27
ENDBRANCH  17  21
ENDBRANCH   1  17
TORSDOF 5
ENDMDL
MODEL 9
REMARK VINA RESULT:      -8.5      2.389      3.090
REMARK  Name = 
REMARK  5 active torsions:
REMARK  status: ('A' for Active; 'I' for Inactive)
REMARK    1  A    between atoms: C_4  and  C_5
REMARK    2  A    between atoms: C_5  and  C_6
REMARK    3  A    between atoms: C_9  and  C_10
REMARK    4  A    between atoms: C_14  and  C_15
REMARK    5  A    between atoms: N_25  and  O_26
REMARK                            x       y       z     vdW  Elec       q    Type
REMARK                         _______ _______ _______ _____ _____    ______ ____
ROOT
ATOM      1  C   UNL     1       0.782  10.149  19.037  0.00  0.00    +0.000 A 
ATOM      2  C   UNL     1       1.408   9.819  17.832  0.00  0.00    +0.000 A 
ATOM      3  C   UNL     1       2.170   8.649  17.724  0.00  0.00    +0.000 A 
ATOM      4  C   UNL     1       2.309   7.755  18.801  0.00  0.00    +0.000 A 
ATOM      5  C   UNL     1       1.644   8.089  19.994  0.00  0.00    +0.000 A 
ATOM      6  C   UNL     1       0.900   9.268  20.115  0.00  0.00    +0.000 A 
ENDROOT
BRANCH   4   7
ATOM      7  C   UNL     1       3.108   6.511  18.687  0.00  0.00    +0.000 A 
ATOM      8  C   UNL     1       3.057   5.507  19.672  0.00  0.00    +0.000 A 
ATOM      9  C   UNL     1       3.776   4.315  19.543  0.00  0.00    +0.000 A 
ATOM     10  C   UNL     1       4.593   4.109  18.435  0.00  0.00    +0.000 A 
ATOM     11  C   UNL     1       4.700   5.095  17.450  0.00  0.00    +0.000 A 
ATOM     12  C   UNL     1       3.945   6.277  17.580  0.00  0.00    +0.000 A 
BRANCH  11  13
ATOM     13  C   UNL     1       5.614   4.928  16.263  0.00  0.00    +0.000 C 
ATOM     14  F   UNL     1       6.895   5.328  16.498  0.00  0.00    +0.000 F 
ATOM     15  F   UNL     1       5.696   3.636  15.843  0.00  0.00    +0.000 F 
ATOM     16  F   UNL     1       5.194   5.645  15.183  0.00  0.00    +0.000 F 
ENDBRANCH  11  13
ENDBRANCH   4   7
BRANCH   1  17
ATOM     17  C   UNL     1       0.009  11.439  19.176  0.00  0.00    +0.000 C 
BRANCH  17  21
ATOM     18  O   UNL     1      -4.803  11.906  19.172  0.00  0.00    +0.000 OA
ATOM     19  C   UNL     1      -3.795  11.656  18.518  0.00  0.00    +0.000 A 
ATOM     20  C   UNL     1      -2.474  11.720  19.190  0.00  0.00    +0.000 A 
ATOM     21  C   UNL     1      -1.351  11.429  18.517  0.00  0.00    +0.000 A 
ATOM     22  N   UNL     1      -1.426  11.068  17.192  0.00  0.00    +0.000 N 
ATOM     23  C   UNL     1      -2.599  10.992  16.481  0.00  0.00    +0.000 A 
ATOM     24  O   UNL     1      -2.615  10.666  15.295  0.00  0.00    +0.000 OA
ATOM     25  N   UNL     1      -3.739  11.299  17.191  0.00  0.00    +0.000 N 
ATOM     26  H   UNL     1      -0.584  10.862  16.666  0.00  0.00    +0.000 HD
BRANCH  25  27
ATOM     27  O   UNL     1      -4.960  11.217  16.489  0.00  0.00    +0.000 OA
ATOM     28  H   UNL     1      -4.673  10.849  15.630  0.00  0.00    +0.000 HD
ENDBRANCH  25  27
ENDBRANCH  17  21
ENDBRANCH   1  17
TORSDOF 5
ENDMDL
