MODEL 1
REMARK VINA RESULT:      -8.1      0.000      0.000
REMARK  Name = 
REMARK  9 active torsions:
REMARK  status: ('A' for Active; 'I' for Inactive)
REMARK    1  A    between atoms: C_1  and  N_2
REMARK    2  A    between atoms: C_4  and  O_5
REMARK    3  A    between atoms: C_4  and  C_13
REMARK    4  A    between atoms: O_5  and  C_6
REMARK    5  A    between atoms: C_6  and  C_7
REMARK    6  A    between atoms: C_7  and  C_8
REMARK    7  A    between atoms: C_8  and  O_9
REMARK    8  A    between atoms: O_9  and  N_10
REMARK    9  A    between atoms: C_16  and  C_17
REMARK                            x       y       z     vdW  Elec       q    Type
REMARK                         _______ _______ _______ _____ _____    ______ ____
ROOT
ATOM      1  C   UNL     1       7.968   6.520  18.514  0.00  0.00    +0.000 C 
ATOM      2  N   UNL     1       6.608   6.068  18.235  0.00  0.00    +0.000 NA
ATOM      3  C   UNL     1       5.998   5.438  19.437  0.00  0.00    +0.000 C 
ATOM      4  C   UNL     1       4.492   5.006  19.228  0.00  0.00    +0.000 C 
ATOM      5  O   UNL     1       4.461   4.073  18.123  0.00  0.00    +0.000 OA
ATOM      6  C   UNL     1       5.015   4.651  16.928  0.00  0.00    +0.000 C 
ATOM      7  C   UNL     1       4.918   3.626  15.794  0.00  0.00    +0.000 C 
ATOM      8  C   UNL     1       5.378   4.250  14.481  0.00  0.00    +0.000 C 
ATOM      9  C   UNL     1       6.794   4.804  14.592  0.00  0.00    +0.000 C 
ATOM     10  C   UNL     1       6.947   5.767  15.770  0.00  0.00    +0.000 C 
ATOM     11  C   UNL     1       6.494   5.128  17.098  0.00  0.00    +0.000 C 
ENDROOT
BRANCH   4  12
ATOM     12  C   UNL     1       3.551   6.209  18.992  0.00  0.00    +0.000 A 
ATOM     13  C   UNL     1       3.595   6.999  17.834  0.00  0.00    +0.000 A 
ATOM     14  C   UNL     1       2.802   8.140  17.701  0.00  0.00    +0.000 A 
ATOM     15  C   UNL     1       1.967   8.571  18.735  0.00  0.00    +0.000 A 
ATOM     16  C   UNL     1       1.884   7.760  19.872  0.00  0.00    +0.000 A 
ATOM     17  C   UNL     1       2.594   6.566  19.954  0.00  0.00    +0.000 A 
BRANCH  15  18
ATOM     18  C   UNL     1       1.158   9.799  18.639  0.00  0.00    +0.000 A 
ATOM     19  C   UNL     1      -0.249   9.728  18.687  0.00  0.00    +0.000 A 
ATOM     20  C   UNL     1      -1.021  10.889  18.641  0.00  0.00    +0.000 A 
ATOM     21  C   UNL     1      -0.407  12.134  18.557  0.00  0.00    +0.000 A 
ATOM     22  C   UNL     1       0.982  12.227  18.511  0.00  0.00    +0.000 A 
ATOM     23  C   UNL     1       1.741  11.064  18.542  0.00  0.00    +0.000 A 
ENDBRANCH  15  18
ENDBRANCH   4  12
BRANCH   4  24
ATOM     24  O   UNL     1       4.131   4.313  20.463  0.00  0.00    +0.000 OA
BRANCH  24  25
ATOM     25  C   UNL     1       3.401   3.098  20.300  0.00  0.00    +0.000 C 
BRANCH  25  26
ATOM     26  C   UNL     1       2.338   2.919  21.366  0.00  0.00    +0.000 C 
BRANCH  26  27
ATOM     27  C   UNL     1       0.984   2.679  20.714  0.00  0.00    +0.000 C 
BRANCH  27  28
ATOM     28  O   UNL     1       0.792   3.678  19.721  0.00  0.00    +0.000 OA
BRANCH  28  29
ATOM     29  N   UNL     1       0.764   3.134  18.417  0.00  0.00    +0.000 N 
ATOM     30  O   UNL     1       1.231   3.823  17.504  0.00  0.00    +0.000 OA
ATOM     31  O   UNL     1       0.259   2.016  18.381  0.00  0.00    +0.000 OA
ENDBRANCH  28  29
ENDBRANCH  27  28
ENDBRANCH  26  27
ENDBRANCH  25  26
ENDBRANCH  24  25
ENDBRANCH   4  24
TORSDOF 8
ENDMDL
MODEL 2
REMARK VINA RESULT:      -7.9      2.010      4.848
REMARK  Name = 
REMARK  9 active torsions:
REMARK  status: ('A' for Active; 'I' for Inactive)
REMARK    1  A    between atoms: C_1  and  N_2
REMARK    2  A    between atoms: C_4  and  O_5
REMARK    3  A    between atoms: C_4  and  C_13
REMARK    4  A    between atoms: O_5  and  C_6
REMARK    5  A    between atoms: C_6  and  C_7
REMARK    6  A    between atoms: C_7  and  C_8
REMARK    7  A    between atoms: C_8  and  O_9
REMARK    8  A    between atoms: O_9  and  N_10
REMARK    9  A    between atoms: C_16  and  C_17
REMARK                            x       y       z     vdW  Elec       q    Type
REMARK                         _______ _______ _______ _____ _____    ______ ____
ROOT
ATOM      1  C   UNL     1       2.571   3.243  16.428  0.00  0.00    +0.000 C 
ATOM      2  N   UNL     1       2.649   4.069  17.629  0.00  0.00    +0.000 NA
ATOM      3  C   UNL     1       3.930   4.827  17.673  0.00  0.00    +0.000 C 
ATOM      4  C   UNL     1       4.039   5.810  18.906  0.00  0.00    +0.000 C 
ATOM      5  O   UNL     1       3.906   5.013  20.105  0.00  0.00    +0.000 OA
ATOM      6  C   UNL     1       2.666   4.284  20.120  0.00  0.00    +0.000 C 
ATOM      7  C   UNL     1       2.574   3.494  21.429  0.00  0.00    +0.000 C 
ATOM      8  C   UNL     1       1.215   2.811  21.537  0.00  0.00    +0.000 C 
ATOM      9  C   UNL     1       0.947   1.909  20.337  0.00  0.00    +0.000 C 
ATOM     10  C   UNL     1       1.115   2.648  19.009  0.00  0.00    +0.000 C 
ATOM     11  C   UNL     1       2.495   3.325  18.898  0.00  0.00    +0.000 C 
ENDROOT
BRANCH   4  12
ATOM     12  C   UNL     1       2.999   6.953  18.855  0.00  0.00    +0.000 A 
ATOM     13  C   UNL     1       2.774   7.730  17.710  0.00  0.00    +0.000 A 
ATOM     14  C   UNL     1       1.902   8.821  17.731  0.00  0.00    +0.000 A 
ATOM     15  C   UNL     1       1.256   9.214  18.907  0.00  0.00    +0.000 A 
ATOM     16  C   UNL     1       1.441   8.412  20.039  0.00  0.00    +0.000 A 
ATOM     17  C   UNL     1       2.225   7.263  19.983  0.00  0.00    +0.000 A 
BRANCH  15  18
ATOM     18  C   UNL     1       0.370  10.390  18.968  0.00  0.00    +0.000 A 
ATOM     19  C   UNL     1       0.672  11.463  19.829  0.00  0.00    +0.000 A 
ATOM     20  C   UNL     1      -0.138  12.598  19.861  0.00  0.00    +0.000 A 
ATOM     21  C   UNL     1      -1.250  12.686  19.031  0.00  0.00    +0.000 A 
ATOM     22  C   UNL     1      -1.566  11.638  18.170  0.00  0.00    +0.000 A 
ATOM     23  C   UNL     1      -0.762  10.505  18.158  0.00  0.00    +0.000 A 
ENDBRANCH  15  18
ENDBRANCH   4  12
BRANCH   4  24
ATOM     24  O   UNL     1       5.394   6.352  18.828  0.00  0.00    +0.000 OA
BRANCH  24  25
ATOM     25  C   UNL     1       6.441   5.456  19.197  0.00  0.00    +0.000 C 
BRANCH  25  26
ATOM     26  C   UNL     1       7.592   5.478  18.210  0.00  0.00    +0.000 C 
BRANCH  26  27
ATOM     27  C   UNL     1       7.380   6.588  17.192  0.00  0.00    +0.000 C 
BRANCH  27  28
ATOM     28  O   UNL     1       7.662   6.062  15.902  0.00  0.00    +0.000 OA
BRANCH  28  29
ATOM     29  N   UNL     1       6.563   5.359  15.360  0.00  0.00    +0.000 N 
ATOM     30  O   UNL     1       6.652   4.129  15.294  0.00  0.00    +0.000 OA
ATOM     31  O   UNL     1       5.646   6.102  15.021  0.00  0.00    +0.000 OA
ENDBRANCH  28  29
ENDBRANCH  27  28
ENDBRANCH  26  27
ENDBRANCH  25  26
ENDBRANCH  24  25
ENDBRANCH   4  24
TORSDOF 8
ENDMDL
MODEL 3
REMARK VINA RESULT:      -7.7      2.007      5.013
REMARK  Name = 
REMARK  9 active torsions:
REMARK  status: ('A' for Active; 'I' for Inactive)
REMARK    1  A    between atoms: C_1  and  N_2
REMARK    2  A    between atoms: C_4  and  O_5
REMARK    3  A    between atoms: C_4  and  C_13
REMARK    4  A    between atoms: O_5  and  C_6
REMARK    5  A    between atoms: C_6  and  C_7
REMARK    6  A    between atoms: C_7  and  C_8
REMARK    7  A    between atoms: C_8  and  O_9
REMARK    8  A    between atoms: O_9  and  N_10
REMARK    9  A    between atoms: C_16  and  C_17
REMARK                            x       y       z     vdW  Elec       q    Type
REMARK                         _______ _______ _______ _____ _____    ______ ____
ROOT
ATOM      1  C   UNL     1       2.362   3.337  16.440  0.00  0.00    +0.000 C 
ATOM      2  N   UNL     1       2.568   4.153  17.632  0.00  0.00    +0.000 NA
ATOM      3  C   UNL     1       3.887   4.840  17.587  0.00  0.00    +0.000 C 
ATOM      4  C   UNL     1       4.136   5.811  18.809  0.00  0.00    +0.000 C 
ATOM      5  O   UNL     1       4.043   5.019  20.015  0.00  0.00    +0.000 OA
ATOM      6  C   UNL     1       2.769   4.358  20.116  0.00  0.00    +0.000 C 
ATOM      7  C   UNL     1       2.726   3.569  21.428  0.00  0.00    +0.000 C 
ATOM      8  C   UNL     1       1.343   2.960  21.631  0.00  0.00    +0.000 C 
ATOM      9  C   UNL     1       0.944   2.078  20.453  0.00  0.00    +0.000 C 
ATOM     10  C   UNL     1       1.058   2.811  19.116  0.00  0.00    +0.000 C 
ATOM     11  C   UNL     1       2.462   3.414  18.910  0.00  0.00    +0.000 C 
ENDROOT
BRANCH   4  12
ATOM     12  C   UNL     1       3.158   7.009  18.831  0.00  0.00    +0.000 A 
ATOM     13  C   UNL     1       2.333   7.302  19.926  0.00  0.00    +0.000 A 
ATOM     14  C   UNL     1       1.388   8.329  19.871  0.00  0.00    +0.000 A 
ATOM     15  C   UNL     1       1.191   9.074  18.705  0.00  0.00    +0.000 A 
ATOM     16  C   UNL     1       2.045   8.817  17.627  0.00  0.00    +0.000 A 
ATOM     17  C   UNL     1       3.057   7.867  17.726  0.00  0.00    +0.000 A 
BRANCH  15  18
ATOM     18  C   UNL     1       0.167  10.129  18.605  0.00  0.00    +0.000 A 
ATOM     19  C   UNL     1       0.327  11.344  19.301  0.00  0.00    +0.000 A 
ATOM     20  C   UNL     1      -0.616  12.364  19.176  0.00  0.00    +0.000 A 
ATOM     21  C   UNL     1      -1.723  12.195  18.351  0.00  0.00    +0.000 A 
ATOM     22  C   UNL     1      -1.900  11.004  17.651  0.00  0.00    +0.000 A 
ATOM     23  C   UNL     1      -0.963   9.988  17.796  0.00  0.00    +0.000 A 
ENDBRANCH  15  18
ENDBRANCH   4  12
BRANCH   4  24
ATOM     24  O   UNL     1       5.509   6.279  18.637  0.00  0.00    +0.000 OA
BRANCH  24  25
ATOM     25  C   UNL     1       6.522   5.447  19.200  0.00  0.00    +0.000 C 
BRANCH  25  26
ATOM     26  C   UNL     1       7.494   4.936  18.154  0.00  0.00    +0.000 C 
BRANCH  26  27
ATOM     27  C   UNL     1       7.365   5.759  16.881  0.00  0.00    +0.000 C 
BRANCH  27  28
ATOM     28  O   UNL     1       7.655   4.911  15.778  0.00  0.00    +0.000 OA
BRANCH  28  29
ATOM     29  N   UNL     1       6.984   5.318  14.603  0.00  0.00    +0.000 N 
ATOM     30  O   UNL     1       7.634   5.329  13.552  0.00  0.00    +0.000 OA
ATOM     31  O   UNL     1       5.810   5.613  14.806  0.00  0.00    +0.000 OA
ENDBRANCH  28  29
ENDBRANCH  27  28
ENDBRANCH  26  27
ENDBRANCH  25  26
ENDBRANCH  24  25
ENDBRANCH   4  24
TORSDOF 8
ENDMDL
MODEL 4
REMARK VINA RESULT:      -7.6      2.118      4.930
REMARK  Name = 
REMARK  9 active torsions:
REMARK  status: ('A' for Active; 'I' for Inactive)
REMARK    1  A    between atoms: C_1  and  N_2
REMARK    2  A    between atoms: C_4  and  O_5
REMARK    3  A    between atoms: C_4  and  C_13
REMARK    4  A    between atoms: O_5  and  C_6
REMARK    5  A    between atoms: C_6  and  C_7
REMARK    6  A    between atoms: C_7  and  C_8
REMARK    7  A    between atoms: C_8  and  O_9
REMARK    8  A    between atoms: O_9  and  N_10
REMARK    9  A    between atoms: C_16  and  C_17
REMARK                            x       y       z     vdW  Elec       q    Type
REMARK                         _______ _______ _______ _____ _____    ______ ____
ROOT
ATOM      1  C   UNL     1       2.551   3.448  16.359  0.00  0.00    +0.000 C 
ATOM      2  N   UNL     1       2.616   4.248  17.577  0.00  0.00    +0.000 NA
ATOM      3  C   UNL     1       3.870   5.049  17.623  0.00  0.00    +0.000 C 
ATOM      4  C   UNL     1       3.962   6.007  18.878  0.00  0.00    +0.000 C 
ATOM      5  O   UNL     1       3.872   5.178  20.059  0.00  0.00    +0.000 OA
ATOM      6  C   UNL     1       2.658   4.407  20.072  0.00  0.00    +0.000 C 
ATOM      7  C   UNL     1       2.611   3.584  21.364  0.00  0.00    +0.000 C 
ATOM      8  C   UNL     1       1.278   2.852  21.472  0.00  0.00    +0.000 C 
ATOM      9  C   UNL     1       1.025   1.969  20.255  0.00  0.00    +0.000 C 
ATOM     10  C   UNL     1       1.150   2.743  18.943  0.00  0.00    +0.000 C 
ATOM     11  C   UNL     1       2.504   3.470  18.831  0.00  0.00    +0.000 C 
ENDROOT
BRANCH   4  12
ATOM     12  C   UNL     1       2.884   7.114  18.866  0.00  0.00    +0.000 A 
ATOM     13  C   UNL     1       2.606   7.899  17.738  0.00  0.00    +0.000 A 
ATOM     14  C   UNL     1       1.699   8.959  17.794  0.00  0.00    +0.000 A 
ATOM     15  C   UNL     1       1.066   9.312  18.988  0.00  0.00    +0.000 A 
ATOM     16  C   UNL     1       1.303   8.501  20.104  0.00  0.00    +0.000 A 
ATOM     17  C   UNL     1       2.124   7.381  20.014  0.00  0.00    +0.000 A 
BRANCH  15  18
ATOM     18  C   UNL     1       0.142  10.456  19.086  0.00  0.00    +0.000 A 
ATOM     19  C   UNL     1      -0.965  10.551  18.220  0.00  0.00    +0.000 A 
ATOM     20  C   UNL     1      -1.869  11.608  18.335  0.00  0.00    +0.000 A 
ATOM     21  C   UNL     1      -1.689  12.577  19.317  0.00  0.00    +0.000 A 
ATOM     22  C   UNL     1      -0.603  12.501  20.186  0.00  0.00    +0.000 A 
ATOM     23  C   UNL     1       0.299  11.453  20.052  0.00  0.00    +0.000 A 
ENDBRANCH  15  18
ENDBRANCH   4  12
BRANCH   4  24
ATOM     24  O   UNL     1       5.297   6.596  18.795  0.00  0.00    +0.000 OA
BRANCH  24  25
ATOM     25  C   UNL     1       6.023   6.318  17.599  0.00  0.00    +0.000 C 
BRANCH  25  26
ATOM     26  C   UNL     1       7.239   5.448  17.854  0.00  0.00    +0.000 C 
BRANCH  26  27
ATOM     27  C   UNL     1       7.507   4.566  16.644  0.00  0.00    +0.000 C 
BRANCH  27  28
ATOM     28  O   UNL     1       7.674   5.410  15.512  0.00  0.00    +0.000 OA
BRANCH  28  29
ATOM     29  N   UNL     1       7.155   4.830  14.334  0.00  0.00    +0.000 N 
ATOM     30  O   UNL     1       7.528   5.302  13.255  0.00  0.00    +0.000 OA
ATOM     31  O   UNL     1       6.378   3.907  14.563  0.00  0.00    +0.000 OA
ENDBRANCH  28  29
ENDBRANCH  27  28
ENDBRANCH  26  27
ENDBRANCH  25  26
ENDBRANCH  24  25
ENDBRANCH   4  24
TORSDOF 8
ENDMDL
MODEL 5
REMARK VINA RESULT:      -7.6      1.339      1.634
REMARK  Name = 
REMARK  9 active torsions:
REMARK  status: ('A' for Active; 'I' for Inactive)
REMARK    1  A    between atoms: C_1  and  N_2
REMARK    2  A    between atoms: C_4  and  O_5
REMARK    3  A    between atoms: C_4  and  C_13
REMARK    4  A    between atoms: O_5  and  C_6
REMARK    5  A    between atoms: C_6  and  C_7
REMARK    6  A    between atoms: C_7  and  C_8
REMARK    7  A    between atoms: C_8  and  O_9
REMARK    8  A    between atoms: O_9  and  N_10
REMARK    9  A    between atoms: C_16  and  C_17
REMARK                            x       y       z     vdW  Elec       q    Type
REMARK                         _______ _______ _______ _____ _____    ______ ____
ROOT
ATOM      1  C   UNL     1       7.905   5.613  18.950  0.00  0.00    +0.000 C 
ATOM      2  N   UNL     1       6.601   5.417  18.325  0.00  0.00    +0.000 NA
ATOM      3  C   UNL     1       5.729   4.554  19.168  0.00  0.00    +0.000 C 
ATOM      4  C   UNL     1       4.269   4.375  18.589  0.00  0.00    +0.000 C 
ATOM      5  O   UNL     1       4.396   3.794  17.271  0.00  0.00    +0.000 OA
ATOM      6  C   UNL     1       5.209   4.612  16.410  0.00  0.00    +0.000 C 
ATOM      7  C   UNL     1       5.271   3.959  15.026  0.00  0.00    +0.000 C 
ATOM      8  C   UNL     1       6.018   4.864  14.051  0.00  0.00    +0.000 C 
ATOM      9  C   UNL     1       7.416   5.197  14.559  0.00  0.00    +0.000 C 
ATOM     10  C   UNL     1       7.395   5.773  15.975  0.00  0.00    +0.000 C 
ATOM     11  C   UNL     1       6.652   4.849  16.960  0.00  0.00    +0.000 C 
ENDROOT
BRANCH   4  12
ATOM     12  C   UNL     1       3.469   5.698  18.561  0.00  0.00    +0.000 A 
ATOM     13  C   UNL     1       3.481   6.574  17.467  0.00  0.00    +0.000 A 
ATOM     14  C   UNL     1       2.830   7.809  17.517  0.00  0.00    +0.000 A 
ATOM     15  C   UNL     1       2.183   8.244  18.676  0.00  0.00    +0.000 A 
ATOM     16  C   UNL     1       2.128   7.352  19.753  0.00  0.00    +0.000 A 
ATOM     17  C   UNL     1       2.684   6.080  19.659  0.00  0.00    +0.000 A 
BRANCH  15  18
ATOM     18  C   UNL     1       1.532   9.563  18.772  0.00  0.00    +0.000 A 
ATOM     19  C   UNL     1       0.313   9.704  19.464  0.00  0.00    +0.000 A 
ATOM     20  C   UNL     1      -0.288  10.956  19.597  0.00  0.00    +0.000 A 
ATOM     21  C   UNL     1       0.319  12.083  19.052  0.00  0.00    +0.000 A 
ATOM     22  C   UNL     1       1.526  11.967  18.366  0.00  0.00    +0.000 A 
ATOM     23  C   UNL     1       2.107  10.712  18.227  0.00  0.00    +0.000 A 
ENDBRANCH  15  18
ENDBRANCH   4  12
BRANCH   4  24
ATOM     24  O   UNL     1       3.631   3.414  19.487  0.00  0.00    +0.000 OA
BRANCH  24  25
ATOM     25  C   UNL     1       2.933   2.344  18.852  0.00  0.00    +0.000 C 
BRANCH  25  26
ATOM     26  C   UNL     1       1.477   2.679  18.597  0.00  0.00    +0.000 C 
BRANCH  26  27
ATOM     27  C   UNL     1       0.656   2.410  19.850  0.00  0.00    +0.000 C 
BRANCH  27  28
ATOM     28  O   UNL     1       0.887   3.474  20.764  0.00  0.00    +0.000 OA
BRANCH  28  29
ATOM     29  N   UNL     1       1.573   3.043  21.921  0.00  0.00    +0.000 N 
ATOM     30  O   UNL     1       2.520   3.733  22.311  0.00  0.00    +0.000 OA
ATOM     31  O   UNL     1       1.111   2.005  22.386  0.00  0.00    +0.000 OA
ENDBRANCH  28  29
ENDBRANCH  27  28
ENDBRANCH  26  27
ENDBRANCH  25  26
ENDBRANCH  24  25
ENDBRANCH   4  24
TORSDOF 8
ENDMDL
MODEL 6
REMARK VINA RESULT:      -7.4      2.740      5.722
REMARK  Name = 
REMARK  9 active torsions:
REMARK  status: ('A' for Active; 'I' for Inactive)
REMARK    1  A    between atoms: C_1  and  N_2
REMARK    2  A    between atoms: C_4  and  O_5
REMARK    3  A    between atoms: C_4  and  C_13
REMARK    4  A    between atoms: O_5  and  C_6
REMARK    5  A    between atoms: C_6  and  C_7
REMARK    6  A    between atoms: C_7  and  C_8
REMARK    7  A    between atoms: C_8  and  O_9
REMARK    8  A    between atoms: O_9  and  N_10
REMARK    9  A    between atoms: C_16  and  C_17
REMARK                            x       y       z     vdW  Elec       q    Type
REMARK                         _______ _______ _______ _____ _____    ______ ____
ROOT
ATOM      1  C   UNL     1       2.807   3.231  16.343  0.00  0.00    +0.000 C 
ATOM      2  N   UNL     1       2.836   4.074  17.534  0.00  0.00    +0.000 NA
ATOM      3  C   UNL     1       4.116   4.828  17.624  0.00  0.00    +0.000 C 
ATOM      4  C   UNL     1       4.175   5.829  18.846  0.00  0.00    +0.000 C 
ATOM      5  O   UNL     1       3.986   5.050  20.050  0.00  0.00    +0.000 OA
ATOM      6  C   UNL     1       2.743   4.324  20.020  0.00  0.00    +0.000 C 
ATOM      7  C   UNL     1       2.592   3.553  21.335  0.00  0.00    +0.000 C 
ATOM      8  C   UNL     1       1.227   2.876  21.393  0.00  0.00    +0.000 C 
ATOM      9  C   UNL     1       1.009   1.957  20.195  0.00  0.00    +0.000 C 
ATOM     10  C   UNL     1       1.237   2.677  18.866  0.00  0.00    +0.000 C 
ATOM     11  C   UNL     1       2.623   3.348  18.806  0.00  0.00    +0.000 C 
ENDROOT
BRANCH   4  12
ATOM     12  C   UNL     1       3.142   6.974  18.734  0.00  0.00    +0.000 A 
ATOM     13  C   UNL     1       2.992   7.756  17.580  0.00  0.00    +0.000 A 
ATOM     14  C   UNL     1       2.122   8.849  17.549  0.00  0.00    +0.000 A 
ATOM     15  C   UNL     1       1.403   9.238  18.682  0.00  0.00    +0.000 A 
ATOM     16  C   UNL     1       1.514   8.431  19.820  0.00  0.00    +0.000 A 
ATOM     17  C   UNL     1       2.297   7.281  19.810  0.00  0.00    +0.000 A 
BRANCH  15  18
ATOM     18  C   UNL     1       0.517  10.415  18.691  0.00  0.00    +0.000 A 
ATOM     19  C   UNL     1       1.021  11.681  19.048  0.00  0.00    +0.000 A 
ATOM     20  C   UNL     1       0.200  12.808  19.017  0.00  0.00    +0.000 A 
ATOM     21  C   UNL     1      -1.129  12.693  18.622  0.00  0.00    +0.000 A 
ATOM     22  C   UNL     1      -1.648  11.452  18.263  0.00  0.00    +0.000 A 
ATOM     23  C   UNL     1      -0.825  10.333  18.313  0.00  0.00    +0.000 A 
ENDBRANCH  15  18
ENDBRANCH   4  12
BRANCH   4  24
ATOM     24  O   UNL     1       5.534   6.365  18.820  0.00  0.00    +0.000 OA
BRANCH  24  25
ATOM     25  C   UNL     1       6.088   6.583  17.523  0.00  0.00    +0.000 C 
BRANCH  25  26
ATOM     26  C   UNL     1       7.578   6.859  17.573  0.00  0.00    +0.000 C 
BRANCH  26  27
ATOM     27  C   UNL     1       7.825   8.359  17.632  0.00  0.00    +0.000 C 
BRANCH  27  28
ATOM     28  O   UNL     1       8.650   8.625  18.759  0.00  0.00    +0.000 OA
BRANCH  28  29
ATOM     29  N   UNL     1       8.957   9.998  18.882  0.00  0.00    +0.000 N 
ATOM     30  O   UNL     1       9.484  10.371  19.935  0.00  0.00    +0.000 OA
ATOM     31  O   UNL     1       8.640  10.645  17.888  0.00  0.00    +0.000 OA
ENDBRANCH  28  29
ENDBRANCH  27  28
ENDBRANCH  26  27
ENDBRANCH  25  26
ENDBRANCH  24  25
ENDBRANCH   4  24
TORSDOF 8
ENDMDL
MODEL 7
REMARK VINA RESULT:      -7.2      1.395      1.898
REMARK  Name = 
REMARK  9 active torsions:
REMARK  status: ('A' for Active; 'I' for Inactive)
REMARK    1  A    between atoms: C_1  and  N_2
REMARK    2  A    between atoms: C_4  and  O_5
REMARK    3  A    between atoms: C_4  and  C_13
REMARK    4  A    between atoms: O_5  and  C_6
REMARK    5  A    between atoms: C_6  and  C_7
REMARK    6  A    between atoms: C_7  and  C_8
REMARK    7  A    between atoms: C_8  and  O_9
REMARK    8  A    between atoms: O_9  and  N_10
REMARK    9  A    between atoms: C_16  and  C_17
REMARK                            x       y       z     vdW  Elec       q    Type
REMARK                         _______ _______ _______ _____ _____    ______ ____
ROOT
ATOM      1  C   UNL     1       7.264   5.754  19.615  0.00  0.00    +0.000 C 
ATOM      2  N   UNL     1       5.975   5.752  18.930  0.00  0.00    +0.000 NA
ATOM      3  C   UNL     1       4.942   5.046  19.737  0.00  0.00    +0.000 C 
ATOM      4  C   UNL     1       3.500   5.085  19.091  0.00  0.00    +0.000 C 
ATOM      5  O   UNL     1       3.597   4.472  17.785  0.00  0.00    +0.000 OA
ATOM      6  C   UNL     1       4.565   5.142  16.957  0.00  0.00    +0.000 C 
ATOM      7  C   UNL     1       4.589   4.466  15.583  0.00  0.00    +0.000 C 
ATOM      8  C   UNL     1       5.510   5.230  14.637  0.00  0.00    +0.000 C 
ATOM      9  C   UNL     1       6.919   5.352  15.209  0.00  0.00    +0.000 C 
ATOM     10  C   UNL     1       6.922   5.945  16.618  0.00  0.00    +0.000 C 
ATOM     11  C   UNL     1       6.001   5.161  17.573  0.00  0.00    +0.000 C 
ENDROOT
BRANCH   4  12
ATOM     12  C   UNL     1       2.917   6.515  19.014  0.00  0.00    +0.000 A 
ATOM     13  C   UNL     1       2.335   7.163  20.114  0.00  0.00    +0.000 A 
ATOM     14  C   UNL     1       1.725   8.412  19.983  0.00  0.00    +0.000 A 
ATOM     15  C   UNL     1       1.624   9.046  18.742  0.00  0.00    +0.000 A 
ATOM     16  C   UNL     1       2.246   8.426  17.653  0.00  0.00    +0.000 A 
ATOM     17  C   UNL     1       2.947   7.234  17.811  0.00  0.00    +0.000 A 
BRANCH  15  18
ATOM     18  C   UNL     1       0.943  10.341  18.568  0.00  0.00    +0.000 A 
ATOM     19  C   UNL     1      -0.444  10.387  18.321  0.00  0.00    +0.000 A 
ATOM     20  C   UNL     1      -1.104  11.609  18.199  0.00  0.00    +0.000 A 
ATOM     21  C   UNL     1      -0.398  12.801  18.330  0.00  0.00    +0.000 A 
ATOM     22  C   UNL     1       0.972  12.779  18.577  0.00  0.00    +0.000 A 
ATOM     23  C   UNL     1       1.623  11.556  18.681  0.00  0.00    +0.000 A 
ENDBRANCH  15  18
ENDBRANCH   4  12
BRANCH   4  24
ATOM     24  O   UNL     1       2.681   4.248  19.965  0.00  0.00    +0.000 OA
BRANCH  24  25
ATOM     25  C   UNL     1       1.277   4.280  19.714  0.00  0.00    +0.000 C 
BRANCH  25  26
ATOM     26  C   UNL     1       0.669   2.892  19.669  0.00  0.00    +0.000 C 
BRANCH  26  27
ATOM     27  C   UNL     1       1.416   2.032  18.661  0.00  0.00    +0.000 C 
BRANCH  27  28
ATOM     28  O   UNL     1       2.363   1.244  19.371  0.00  0.00    +0.000 OA
BRANCH  28  29
ATOM     29  N   UNL     1       3.678   1.428  18.889  0.00  0.00    +0.000 N 
ATOM     30  O   UNL     1       4.571   1.598  19.725  0.00  0.00    +0.000 OA
ATOM     31  O   UNL     1       3.742   1.393  17.664  0.00  0.00    +0.000 OA
ENDBRANCH  28  29
ENDBRANCH  27  28
ENDBRANCH  26  27
ENDBRANCH  25  26
ENDBRANCH  24  25
ENDBRANCH   4  24
TORSDOF 8
ENDMDL
MODEL 8
REMARK VINA RESULT:      -7.2      1.310      1.895
REMARK  Name = 
REMARK  9 active torsions:
REMARK  status: ('A' for Active; 'I' for Inactive)
REMARK    1  A    between atoms: C_1  and  N_2
REMARK    2  A    between atoms: C_4  and  O_5
REMARK    3  A    between atoms: C_4  and  C_13
REMARK    4  A    between atoms: O_5  and  C_6
REMARK    5  A    between atoms: C_6  and  C_7
REMARK    6  A    between atoms: C_7  and  C_8
REMARK    7  A    between atoms: C_8  and  O_9
REMARK    8  A    between atoms: O_9  and  N_10
REMARK    9  A    between atoms: C_16  and  C_17
REMARK                            x       y       z     vdW  Elec       q    Type
REMARK                         _______ _______ _______ _____ _____    ______ ____
ROOT
ATOM      1  C   UNL     1       8.038   5.351  18.776  0.00  0.00    +0.000 C 
ATOM      2  N   UNL     1       6.702   5.293  18.193  0.00  0.00    +0.000 NA
ATOM      3  C   UNL     1       5.793   4.457  19.024  0.00  0.00    +0.000 C 
ATOM      4  C   UNL     1       4.304   4.425  18.494  0.00  0.00    +0.000 C 
ATOM      5  O   UNL     1       4.338   3.909  17.144  0.00  0.00    +0.000 OA
ATOM      6  C   UNL     1       5.184   4.705  16.295  0.00  0.00    +0.000 C 
ATOM      7  C   UNL     1       5.145   4.125  14.878  0.00  0.00    +0.000 C 
ATOM      8  C   UNL     1       5.928   5.020  13.922  0.00  0.00    +0.000 C 
ATOM      9  C   UNL     1       7.366   5.214  14.391  0.00  0.00    +0.000 C 
ATOM     10  C   UNL     1       7.440   5.711  15.835  0.00  0.00    +0.000 C 
ATOM     11  C   UNL     1       6.660   4.797  16.800  0.00  0.00    +0.000 C 
ENDROOT
BRANCH   4  12
ATOM     12  C   UNL     1       3.613   5.806  18.565  0.00  0.00    +0.000 A 
ATOM     13  C   UNL     1       2.814   6.207  19.646  0.00  0.00    +0.000 A 
ATOM     14  C   UNL     1       2.122   7.419  19.629  0.00  0.00    +0.000 A 
ATOM     15  C   UNL     1       2.156   8.261  18.515  0.00  0.00    +0.000 A 
ATOM     16  C   UNL     1       2.990   7.888  17.455  0.00  0.00    +0.000 A 
ATOM     17  C   UNL     1       3.762   6.733  17.523  0.00  0.00    +0.000 A 
BRANCH  15  18
ATOM     18  C   UNL     1       1.396   9.522  18.452  0.00  0.00    +0.000 A 
ATOM     19  C   UNL     1      -0.010   9.500  18.364  0.00  0.00    +0.000 A 
ATOM     20  C   UNL     1      -0.740  10.689  18.348  0.00  0.00    +0.000 A 
ATOM     21  C   UNL     1      -0.084  11.913  18.429  0.00  0.00    +0.000 A 
ATOM     22  C   UNL     1       1.306  11.958  18.519  0.00  0.00    +0.000 A 
ATOM     23  C   UNL     1       2.023  10.768  18.518  0.00  0.00    +0.000 A 
ENDBRANCH  15  18
ENDBRANCH   4  12
BRANCH   4  24
ATOM     24  O   UNL     1       3.622   3.470  19.365  0.00  0.00    +0.000 OA
BRANCH  24  25
ATOM     25  C   UNL     1       2.858   2.464  18.702  0.00  0.00    +0.000 C 
BRANCH  25  26
ATOM     26  C   UNL     1       1.416   2.881  18.492  0.00  0.00    +0.000 C 
BRANCH  26  27
ATOM     27  C   UNL     1       0.590   2.527  19.720  0.00  0.00    +0.000 C 
BRANCH  27  28
ATOM     28  O   UNL     1       0.768   3.558  20.683  0.00  0.00    +0.000 OA
BRANCH  28  29
ATOM     29  N   UNL     1       1.498   3.116  21.808  0.00  0.00    +0.000 N 
ATOM     30  O   UNL     1       1.114   2.082  22.365  0.00  0.00    +0.000 OA
ATOM     31  O   UNL     1       2.442   3.852  22.080  0.00  0.00    +0.000 OA
ENDBRANCH  28  29
ENDBRANCH  27  28
ENDBRANCH  26  27
ENDBRANCH  25  26
ENDBRANCH  24  25
ENDBRANCH   4  24
TORSDOF 8
ENDMDL
MODEL 9
REMARK VINA RESULT:      -7.2      2.245      3.191
REMARK  Name = 
REMARK  9 active torsions:
REMARK  status: ('A' for Active; 'I' for Inactive)
REMARK    1  A    between atoms: C_1  and  N_2
REMARK    2  A    between atoms: C_4  and  O_5
REMARK    3  A    between atoms: C_4  and  C_13
REMARK    4  A    between atoms: O_5  and  C_6
REMARK    5  A    between atoms: C_6  and  C_7
REMARK    6  A    between atoms: C_7  and  C_8
REMARK    7  A    between atoms: C_8  and  O_9
REMARK    8  A    between atoms: O_9  and  N_10
REMARK    9  A    between atoms: C_16  and  C_17
REMARK                            x       y       z     vdW  Elec       q    Type
REMARK                         _______ _______ _______ _____ _____    ______ ____
ROOT
ATOM      1  C   UNL     1       5.450   3.431  20.353  0.00  0.00    +0.000 C 
ATOM      2  N   UNL     1       4.923   4.532  19.553  0.00  0.00    +0.000 NA
ATOM      3  C   UNL     1       3.717   4.108  18.790  0.00  0.00    +0.000 C 
ATOM      4  C   UNL     1       3.044   5.280  17.970  0.00  0.00    +0.000 C 
ATOM      5  O   UNL     1       4.040   5.794  17.057  0.00  0.00    +0.000 OA
ATOM      6  C   UNL     1       5.215   6.245  17.754  0.00  0.00    +0.000 C 
ATOM      7  C   UNL     1       6.208   6.808  16.734  0.00  0.00    +0.000 C 
ATOM      8  C   UNL     1       7.411   7.413  17.450  0.00  0.00    +0.000 C 
ATOM      9  C   UNL     1       8.087   6.396  18.363  0.00  0.00    +0.000 C 
ATOM     10  C   UNL     1       7.102   5.751  19.339  0.00  0.00    +0.000 C 
ATOM     11  C   UNL     1       5.895   5.128  18.610  0.00  0.00    +0.000 C 
ENDROOT
BRANCH   4  12
ATOM     12  C   UNL     1       2.467   6.391  18.877  0.00  0.00    +0.000 A 
ATOM     13  C   UNL     1       2.032   6.156  20.190  0.00  0.00    +0.000 A 
ATOM     14  C   UNL     1       1.420   7.160  20.944  0.00  0.00    +0.000 A 
ATOM     15  C   UNL     1       1.170   8.424  20.405  0.00  0.00    +0.000 A 
ATOM     16  C   UNL     1       1.646   8.677  19.114  0.00  0.00    +0.000 A 
ATOM     17  C   UNL     1       2.352   7.707  18.408  0.00  0.00    +0.000 A 
BRANCH  15  18
ATOM     18  C   UNL     1       0.482   9.485  21.162  0.00  0.00    +0.000 A 
ATOM     19  C   UNL     1      -0.179   9.183  22.369  0.00  0.00    +0.000 A 
ATOM     20  C   UNL     1      -0.795  10.189  23.113  0.00  0.00    +0.000 A 
ATOM     21  C   UNL     1      -0.754  11.508  22.674  0.00  0.00    +0.000 A 
ATOM     22  C   UNL     1      -0.104  11.830  21.485  0.00  0.00    +0.000 A 
ATOM     23  C   UNL     1       0.493  10.818  20.744  0.00  0.00    +0.000 A 
ENDBRANCH  15  18
ENDBRANCH   4  12
BRANCH   4  24
ATOM     24  O   UNL     1       1.974   4.634  17.213  0.00  0.00    +0.000 OA
BRANCH  24  25
ATOM     25  C   UNL     1       1.731   3.265  17.531  0.00  0.00    +0.000 C 
BRANCH  25  26
ATOM     26  C   UNL     1       0.628   3.099  18.558  0.00  0.00    +0.000 C 
BRANCH  26  27
ATOM     27  C   UNL     1       1.108   2.207  19.694  0.00  0.00    +0.000 C 
BRANCH  27  28
ATOM     28  O   UNL     1       0.888   2.896  20.918  0.00  0.00    +0.000 OA
BRANCH  28  29
ATOM     29  N   UNL     1       2.029   2.879  21.751  0.00  0.00    +0.000 N 
ATOM     30  O   UNL     1       2.373   3.948  22.265  0.00  0.00    +0.000 OA
ATOM     31  O   UNL     1       2.531   1.762  21.844  0.00  0.00    +0.000 OA
ENDBRANCH  28  29
ENDBRANCH  27  28
ENDBRANCH  26  27
ENDBRANCH  25  26
ENDBRANCH  24  25
ENDBRANCH   4  24
TORSDOF 8
ENDMDL
