MODEL 1
REMARK VINA RESULT:      -6.1      0.000      0.000
REMARK  Name = 
REMARK  10 active torsions:
REMARK  status: ('A' for Active; 'I' for Inactive)
REMARK    1  A    between atoms: C_1  and  O_2
REMARK    2  A    between atoms: O_2  and  C_3
REMARK    3  A    between atoms: C_5  and  C_6
REMARK    4  A    between atoms: C_6  and  O_7
REMARK    5  A    between atoms: C_6  and  C_9
REMARK    6  A    between atoms: O_7  and  C_8
REMARK    7  A    between atoms: C_9  and  C_10
REMARK    8  A    between atoms: C_9  and  N_11
REMARK    9  A    between atoms: C_12  and  O_13
REMARK   10  A    between atoms: O_13  and  C_14
REMARK                            x       y       z     vdW  Elec       q    Type
REMARK                         _______ _______ _______ _____ _____    ______ ____
ROOT
ATOM      1  C   UNL     1       3.091   3.165  17.835  0.00  0.00    +0.000 A 
ATOM      2  C   UNL     1       4.075   3.738  17.038  0.00  0.00    +0.000 A 
ATOM      3  C   UNL     1       4.344   5.123  17.048  0.00  0.00    +0.000 A 
ATOM      4  C   UNL     1       3.520   5.961  17.822  0.00  0.00    +0.000 A 
ATOM      5  C   UNL     1       2.477   5.396  18.570  0.00  0.00    +0.000 A 
ATOM      6  C   UNL     1       2.273   4.010  18.583  0.00  0.00    +0.000 A 
ATOM      7 BR   UNL     1       0.875   3.319  19.669  0.00  0.00    +0.000 Br
ENDROOT
BRANCH   1   9
ATOM      8  C   UNL     1       3.870   1.091  18.654  0.00  0.00    +0.000 C 
ATOM      9  O   UNL     1       2.894   1.809  17.898  0.00  0.00    +0.000 OA
ENDBRANCH   1   9
BRANCH   4  10
ATOM     10  O   UNL     1       3.816   7.298  17.799  0.00  0.00    +0.000 OA
ATOM     11  C   UNL     1       2.729   8.215  17.888  0.00  0.00    +0.000 C 
ENDBRANCH   4  10
BRANCH   3  12
ATOM     12  C   UNL     1       5.522   5.662  16.228  0.00  0.00    +0.000 C 
BRANCH  12  13
ATOM     13  O   UNL     1       5.513   5.174  14.874  0.00  0.00    +0.000 OA
ATOM     14  C   UNL     1       6.711   4.572  14.412  0.00  0.00    +0.000 C 
ENDBRANCH  12  13
BRANCH  12  15
ATOM     15  C   UNL     1       6.933   5.500  16.923  0.00  0.00    +0.000 C 
ATOM     16  C   UNL     1       7.457   6.802  17.527  0.00  0.00    +0.000 C 
BRANCH  15  17
ATOM     17  N   UNL     1       6.925   4.459  17.975  0.00  0.00    +0.000 NA
ATOM     18  H   UNL     1       7.776   4.535  18.534  0.00  0.00    +0.000 HD
ATOM     19  H   UNL     1       6.943   3.532  17.551  0.00  0.00    +0.000 HD
ENDBRANCH  15  17
ENDBRANCH  12  15
ENDBRANCH   3  12
TORSDOF 6
ENDMDL
MODEL 2
REMARK VINA RESULT:      -6.0      1.290      1.321
REMARK  Name = 
REMARK  10 active torsions:
REMARK  status: ('A' for Active; 'I' for Inactive)
REMARK    1  A    between atoms: C_1  and  O_2
REMARK    2  A    between atoms: O_2  and  C_3
REMARK    3  A    between atoms: C_5  and  C_6
REMARK    4  A    between atoms: C_6  and  O_7
REMARK    5  A    between atoms: C_6  and  C_9
REMARK    6  A    between atoms: O_7  and  C_8
REMARK    7  A    between atoms: C_9  and  C_10
REMARK    8  A    between atoms: C_9  and  N_11
REMARK    9  A    between atoms: C_12  and  O_13
REMARK   10  A    between atoms: O_13  and  C_14
REMARK                            x       y       z     vdW  Elec       q    Type
REMARK                         _______ _______ _______ _____ _____    ______ ____
ROOT
ATOM      1  C   UNL     1       3.536   3.438  18.873  0.00  0.00    +0.000 A 
ATOM      2  C   UNL     1       4.576   3.901  18.076  0.00  0.00    +0.000 A 
ATOM      3  C   UNL     1       4.635   5.231  17.608  0.00  0.00    +0.000 A 
ATOM      4  C   UNL     1       3.552   6.087  17.881  0.00  0.00    +0.000 A 
ATOM      5  C   UNL     1       2.464   5.601  18.621  0.00  0.00    +0.000 A 
ATOM      6  C   UNL     1       2.463   4.292  19.120  0.00  0.00    +0.000 A 
ATOM      7 BR   UNL     1       0.977   3.732  20.164  0.00  0.00    +0.000 Br
ENDROOT
BRANCH   1   9
ATOM      8  C   UNL     1       4.582   1.901  20.329  0.00  0.00    +0.000 C 
ATOM      9  O   UNL     1       3.526   2.175  19.407  0.00  0.00    +0.000 OA
ENDBRANCH   1   9
BRANCH   4  10
ATOM     10  O   UNL     1       3.650   7.368  17.405  0.00  0.00    +0.000 OA
ATOM     11  C   UNL     1       2.645   8.296  17.799  0.00  0.00    +0.000 C 
ENDBRANCH   4  10
BRANCH   3  12
ATOM     12  C   UNL     1       5.873   5.697  16.833  0.00  0.00    +0.000 C 
BRANCH  12  13
ATOM     13  O   UNL     1       6.554   4.605  16.186  0.00  0.00    +0.000 OA
ATOM     14  C   UNL     1       6.417   4.522  14.777  0.00  0.00    +0.000 C 
ENDBRANCH  12  13
BRANCH  12  15
ATOM     15  C   UNL     1       6.854   6.622  17.658  0.00  0.00    +0.000 C 
ATOM     16  C   UNL     1       7.691   5.848  18.676  0.00  0.00    +0.000 C 
BRANCH  15  17
ATOM     17  N   UNL     1       7.764   7.396  16.786  0.00  0.00    +0.000 NA
ATOM     18  H   UNL     1       7.243   7.752  15.984  0.00  0.00    +0.000 HD
ATOM     19  H   UNL     1       8.491   6.788  16.409  0.00  0.00    +0.000 HD
ENDBRANCH  15  17
ENDBRANCH  12  15
ENDBRANCH   3  12
TORSDOF 6
ENDMDL
MODEL 3
REMARK VINA RESULT:      -5.8      2.281      3.331
REMARK  Name = 
REMARK  10 active torsions:
REMARK  status: ('A' for Active; 'I' for Inactive)
REMARK    1  A    between atoms: C_1  and  O_2
REMARK    2  A    between atoms: O_2  and  C_3
REMARK    3  A    between atoms: C_5  and  C_6
REMARK    4  A    between atoms: C_6  and  O_7
REMARK    5  A    between atoms: C_6  and  C_9
REMARK    6  A    between atoms: O_7  and  C_8
REMARK    7  A    between atoms: C_9  and  C_10
REMARK    8  A    between atoms: C_9  and  N_11
REMARK    9  A    between atoms: C_12  and  O_13
REMARK   10  A    between atoms: O_13  and  C_14
REMARK                            x       y       z     vdW  Elec       q    Type
REMARK                         _______ _______ _______ _____ _____    ______ ____
ROOT
ATOM      1  C   UNL     1       3.333   5.407  17.723  0.00  0.00    +0.000 A 
ATOM      2  C   UNL     1       4.349   4.657  17.143  0.00  0.00    +0.000 A 
ATOM      3  C   UNL     1       5.587   5.223  16.771  0.00  0.00    +0.000 A 
ATOM      4  C   UNL     1       5.757   6.614  16.906  0.00  0.00    +0.000 A 
ATOM      5  C   UNL     1       4.705   7.386  17.421  0.00  0.00    +0.000 A 
ATOM      6  C   UNL     1       3.510   6.784  17.834  0.00  0.00    +0.000 A 
ATOM      7 BR   UNL     1       2.157   7.894  18.577  0.00  0.00    +0.000 Br
ENDROOT
BRANCH   1   9
ATOM      8  C   UNL     1       2.336   3.699  19.015  0.00  0.00    +0.000 C 
ATOM      9  O   UNL     1       2.167   4.840  18.173  0.00  0.00    +0.000 OA
ENDBRANCH   1   9
BRANCH   4  10
ATOM     10  O   UNL     1       6.973   7.120  16.530  0.00  0.00    +0.000 OA
ATOM     11  C   UNL     1       7.626   8.004  17.435  0.00  0.00    +0.000 C 
ENDBRANCH   4  10
BRANCH   3  12
ATOM     12  C   UNL     1       6.699   4.309  16.245  0.00  0.00    +0.000 C 
BRANCH  12  13
ATOM     13  O   UNL     1       7.946   4.513  16.937  0.00  0.00    +0.000 OA
ATOM     14  C   UNL     1       7.884   4.539  18.354  0.00  0.00    +0.000 C 
ENDBRANCH  12  13
BRANCH  12  15
ATOM     15  C   UNL     1       6.868   4.319  14.673  0.00  0.00    +0.000 C 
ATOM     16  C   UNL     1       5.534   4.285  13.927  0.00  0.00    +0.000 C 
BRANCH  15  17
ATOM     17  N   UNL     1       7.647   5.484  14.198  0.00  0.00    +0.000 NA
ATOM     18  H   UNL     1       7.176   5.902  13.395  0.00  0.00    +0.000 HD
ATOM     19  H   UNL     1       8.563   5.183  13.869  0.00  0.00    +0.000 HD
ENDBRANCH  15  17
ENDBRANCH  12  15
ENDBRANCH   3  12
TORSDOF 6
ENDMDL
MODEL 4
REMARK VINA RESULT:      -5.6      2.624      5.373
REMARK  Name = 
REMARK  10 active torsions:
REMARK  status: ('A' for Active; 'I' for Inactive)
REMARK    1  A    between atoms: C_1  and  O_2
REMARK    2  A    between atoms: O_2  and  C_3
REMARK    3  A    between atoms: C_5  and  C_6
REMARK    4  A    between atoms: C_6  and  O_7
REMARK    5  A    between atoms: C_6  and  C_9
REMARK    6  A    between atoms: O_7  and  C_8
REMARK    7  A    between atoms: C_9  and  C_10
REMARK    8  A    between atoms: C_9  and  N_11
REMARK    9  A    between atoms: C_12  and  O_13
REMARK   10  A    between atoms: O_13  and  C_14
REMARK                            x       y       z     vdW  Elec       q    Type
REMARK                         _______ _______ _______ _____ _____    ______ ____
ROOT
ATOM      1  C   UNL     1       5.502   6.288  16.775  0.00  0.00    +0.000 A 
ATOM      2  C   UNL     1       4.424   6.578  17.602  0.00  0.00    +0.000 A 
ATOM      3  C   UNL     1       3.399   5.644  17.863  0.00  0.00    +0.000 A 
ATOM      4  C   UNL     1       3.425   4.412  17.183  0.00  0.00    +0.000 A 
ATOM      5  C   UNL     1       4.473   4.144  16.289  0.00  0.00    +0.000 A 
ATOM      6  C   UNL     1       5.505   5.071  16.097  0.00  0.00    +0.000 A 
ATOM      7 BR   UNL     1       6.918   4.606  14.913  0.00  0.00    +0.000 Br
ENDROOT
BRANCH   1   9
ATOM      8  C   UNL     1       7.499   7.185  17.662  0.00  0.00    +0.000 C 
ATOM      9  O   UNL     1       6.547   7.159  16.597  0.00  0.00    +0.000 OA
ENDBRANCH   1   9
BRANCH   4  10
ATOM     10  O   UNL     1       2.409   3.537  17.465  0.00  0.00    +0.000 OA
ATOM     11  C   UNL     1       2.761   2.183  17.729  0.00  0.00    +0.000 C 
ENDBRANCH   4  10
BRANCH   3  12
ATOM     12  C   UNL     1       2.305   5.997  18.877  0.00  0.00    +0.000 C 
BRANCH  12  13
ATOM     13  O   UNL     1       2.168   7.419  19.058  0.00  0.00    +0.000 OA
ATOM     14  C   UNL     1       1.776   7.856  20.349  0.00  0.00    +0.000 C 
ENDBRANCH  12  13
BRANCH  12  15
ATOM     15  C   UNL     1       2.407   5.218  20.249  0.00  0.00    +0.000 C 
ATOM     16  C   UNL     1       1.191   4.336  20.528  0.00  0.00    +0.000 C 
BRANCH  15  17
ATOM     17  N   UNL     1       3.626   4.384  20.333  0.00  0.00    +0.000 NA
ATOM     18  H   UNL     1       3.392   3.481  20.747  0.00  0.00    +0.000 HD
ATOM     19  H   UNL     1       4.306   4.818  20.957  0.00  0.00    +0.000 HD
ENDBRANCH  15  17
ENDBRANCH  12  15
ENDBRANCH   3  12
TORSDOF 6
ENDMDL
MODEL 5
REMARK VINA RESULT:      -5.6      1.241      1.286
REMARK  Name = 
REMARK  10 active torsions:
REMARK  status: ('A' for Active; 'I' for Inactive)
REMARK    1  A    between atoms: C_1  and  O_2
REMARK    2  A    between atoms: O_2  and  C_3
REMARK    3  A    between atoms: C_5  and  C_6
REMARK    4  A    between atoms: C_6  and  O_7
REMARK    5  A    between atoms: C_6  and  C_9
REMARK    6  A    between atoms: O_7  and  C_8
REMARK    7  A    between atoms: C_9  and  C_10
REMARK    8  A    between atoms: C_9  and  N_11
REMARK    9  A    between atoms: C_12  and  O_13
REMARK   10  A    between atoms: O_13  and  C_14
REMARK                            x       y       z     vdW  Elec       q    Type
REMARK                         _______ _______ _______ _____ _____    ______ ____
ROOT
ATOM      1  C   UNL     1       3.804   3.371  19.257  0.00  0.00    +0.000 A 
ATOM      2  C   UNL     1       4.829   3.814  18.430  0.00  0.00    +0.000 A 
ATOM      3  C   UNL     1       4.930   5.156  18.005  0.00  0.00    +0.000 A 
ATOM      4  C   UNL     1       3.901   6.050  18.355  0.00  0.00    +0.000 A 
ATOM      5  C   UNL     1       2.826   5.588  19.128  0.00  0.00    +0.000 A 
ATOM      6  C   UNL     1       2.785   4.264  19.582  0.00  0.00    +0.000 A 
ATOM      7 BR   UNL     1       1.322   3.735  20.673  0.00  0.00    +0.000 Br
ENDROOT
BRANCH   1   9
ATOM      8  C   UNL     1       3.637   1.068  18.759  0.00  0.00    +0.000 C 
ATOM      9  O   UNL     1       3.758   2.091  19.749  0.00  0.00    +0.000 OA
ENDBRANCH   1   9
BRANCH   4  10
ATOM     10  O   UNL     1       4.039   7.341  17.918  0.00  0.00    +0.000 OA
ATOM     11  C   UNL     1       2.854   8.116  17.772  0.00  0.00    +0.000 C 
ENDBRANCH   4  10
BRANCH   3  12
ATOM     12  C   UNL     1       6.153   5.592  17.189  0.00  0.00    +0.000 C 
BRANCH  12  13
ATOM     13  O   UNL     1       6.189   4.974  15.889  0.00  0.00    +0.000 OA
ATOM     14  C   UNL     1       5.320   5.517  14.908  0.00  0.00    +0.000 C 
ENDBRANCH  12  13
BRANCH  12  15
ATOM     15  C   UNL     1       7.530   5.472  17.958  0.00  0.00    +0.000 C 
ATOM     16  C   UNL     1       7.412   5.785  19.449  0.00  0.00    +0.000 C 
BRANCH  15  17
ATOM     17  N   UNL     1       8.148   4.137  17.800  0.00  0.00    +0.000 NA
ATOM     18  H   UNL     1       8.593   4.076  16.884  0.00  0.00    +0.000 HD
ATOM     19  H   UNL     1       7.430   3.414  17.819  0.00  0.00    +0.000 HD
ENDBRANCH  15  17
ENDBRANCH  12  15
ENDBRANCH   3  12
TORSDOF 6
ENDMDL
MODEL 6
REMARK VINA RESULT:      -5.5      1.707      2.274
REMARK  Name = 
REMARK  10 active torsions:
REMARK  status: ('A' for Active; 'I' for Inactive)
REMARK    1  A    between atoms: C_1  and  O_2
REMARK    2  A    between atoms: O_2  and  C_3
REMARK    3  A    between atoms: C_5  and  C_6
REMARK    4  A    between atoms: C_6  and  O_7
REMARK    5  A    between atoms: C_6  and  C_9
REMARK    6  A    between atoms: O_7  and  C_8
REMARK    7  A    between atoms: C_9  and  C_10
REMARK    8  A    between atoms: C_9  and  N_11
REMARK    9  A    between atoms: C_12  and  O_13
REMARK   10  A    between atoms: O_13  and  C_14
REMARK                            x       y       z     vdW  Elec       q    Type
REMARK                         _______ _______ _______ _____ _____    ______ ____
ROOT
ATOM      1  C   UNL     1       3.655   3.394  19.201  0.00  0.00    +0.000 A 
ATOM      2  C   UNL     1       4.747   3.808  18.448  0.00  0.00    +0.000 A 
ATOM      3  C   UNL     1       4.851   5.112  17.920  0.00  0.00    +0.000 A 
ATOM      4  C   UNL     1       3.763   5.990  18.083  0.00  0.00    +0.000 A 
ATOM      5  C   UNL     1       2.626   5.552  18.779  0.00  0.00    +0.000 A 
ATOM      6  C   UNL     1       2.580   4.269  19.340  0.00  0.00    +0.000 A 
ATOM      7 BR   UNL     1       1.027   3.775  20.318  0.00  0.00    +0.000 Br
ENDROOT
BRANCH   1   9
ATOM      8  C   UNL     1       4.771   1.781  20.518  0.00  0.00    +0.000 C 
ATOM      9  O   UNL     1       3.598   2.159  19.796  0.00  0.00    +0.000 OA
ENDBRANCH   1   9
BRANCH   4  10
ATOM     10  O   UNL     1       3.905   7.244  17.552  0.00  0.00    +0.000 OA
ATOM     11  C   UNL     1       2.842   8.170  17.753  0.00  0.00    +0.000 C 
ENDBRANCH   4  10
BRANCH   3  12
ATOM     12  C   UNL     1       6.138   5.527  17.199  0.00  0.00    +0.000 C 
BRANCH  12  13
ATOM     13  O   UNL     1       6.712   6.725  17.755  0.00  0.00    +0.000 OA
ATOM     14  C   UNL     1       7.836   6.552  18.602  0.00  0.00    +0.000 C 
ENDBRANCH  12  13
BRANCH  12  15
ATOM     15  C   UNL     1       6.018   5.585  15.623  0.00  0.00    +0.000 C 
ATOM     16  C   UNL     1       5.336   4.353  15.029  0.00  0.00    +0.000 C 
BRANCH  15  17
ATOM     17  N   UNL     1       5.302   6.794  15.159  0.00  0.00    +0.000 NA
ATOM     18  H   UNL     1       4.469   6.515  14.638  0.00  0.00    +0.000 HD
ATOM     19  H   UNL     1       5.885   7.319  14.507  0.00  0.00    +0.000 HD
ENDBRANCH  15  17
ENDBRANCH  12  15
ENDBRANCH   3  12
TORSDOF 6
ENDMDL
MODEL 7
REMARK VINA RESULT:      -5.5      2.812      5.302
REMARK  Name = 
REMARK  10 active torsions:
REMARK  status: ('A' for Active; 'I' for Inactive)
REMARK    1  A    between atoms: C_1  and  O_2
REMARK    2  A    between atoms: O_2  and  C_3
REMARK    3  A    between atoms: C_5  and  C_6
REMARK    4  A    between atoms: C_6  and  O_7
REMARK    5  A    between atoms: C_6  and  C_9
REMARK    6  A    between atoms: O_7  and  C_8
REMARK    7  A    between atoms: C_9  and  C_10
REMARK    8  A    between atoms: C_9  and  N_11
REMARK    9  A    between atoms: C_12  and  O_13
REMARK   10  A    between atoms: O_13  and  C_14
REMARK                            x       y       z     vdW  Elec       q    Type
REMARK                         _______ _______ _______ _____ _____    ______ ____
ROOT
ATOM      1  C   UNL     1       5.258   6.429  16.860  0.00  0.00    +0.000 A 
ATOM      2  C   UNL     1       4.276   7.167  17.509  0.00  0.00    +0.000 A 
ATOM      3  C   UNL     1       3.093   6.580  18.005  0.00  0.00    +0.000 A 
ATOM      4  C   UNL     1       2.861   5.216  17.745  0.00  0.00    +0.000 A 
ATOM      5  C   UNL     1       3.815   4.484  17.023  0.00  0.00    +0.000 A 
ATOM      6  C   UNL     1       5.006   5.085  16.595  0.00  0.00    +0.000 A 
ATOM      7 BR   UNL     1       6.273   4.007  15.675  0.00  0.00    +0.000 Br
ENDROOT
BRANCH   1   9
ATOM      8  C   UNL     1       7.368   7.258  17.522  0.00  0.00    +0.000 C 
ATOM      9  O   UNL     1       6.450   6.980  16.463  0.00  0.00    +0.000 OA
ENDBRANCH   1   9
BRANCH   4  10
ATOM     10  O   UNL     1       1.698   4.689  18.242  0.00  0.00    +0.000 OA
ATOM     11  C   UNL     1       1.576   3.270  18.264  0.00  0.00    +0.000 C 
ENDBRANCH   4  10
BRANCH   3  12
ATOM     12  C   UNL     1       2.112   7.438  18.812  0.00  0.00    +0.000 C 
BRANCH  12  13
ATOM     13  O   UNL     1       2.126   8.817  18.397  0.00  0.00    +0.000 OA
ATOM     14  C   UNL     1       0.933   9.312  17.811  0.00  0.00    +0.000 C 
ENDBRANCH  12  13
BRANCH  12  15
ATOM     15  C   UNL     1       2.234   7.274  20.380  0.00  0.00    +0.000 C 
ATOM     16  C   UNL     1       1.237   8.137  21.152  0.00  0.00    +0.000 C 
BRANCH  15  17
ATOM     17  N   UNL     1       2.078   5.868  20.812  0.00  0.00    +0.000 NA
ATOM     18  H   UNL     1       2.555   5.255  20.149  0.00  0.00    +0.000 HD
ATOM     19  H   UNL     1       1.094   5.601  20.792  0.00  0.00    +0.000 HD
ENDBRANCH  15  17
ENDBRANCH  12  15
ENDBRANCH   3  12
TORSDOF 6
ENDMDL
MODEL 8
REMARK VINA RESULT:      -5.5      2.053      2.625
REMARK  Name = 
REMARK  10 active torsions:
REMARK  status: ('A' for Active; 'I' for Inactive)
REMARK    1  A    between atoms: C_1  and  O_2
REMARK    2  A    between atoms: O_2  and  C_3
REMARK    3  A    between atoms: C_5  and  C_6
REMARK    4  A    between atoms: C_6  and  O_7
REMARK    5  A    between atoms: C_6  and  C_9
REMARK    6  A    between atoms: O_7  and  C_8
REMARK    7  A    between atoms: C_9  and  C_10
REMARK    8  A    between atoms: C_9  and  N_11
REMARK    9  A    between atoms: C_12  and  O_13
REMARK   10  A    between atoms: O_13  and  C_14
REMARK                            x       y       z     vdW  Elec       q    Type
REMARK                         _______ _______ _______ _____ _____    ______ ____
ROOT
ATOM      1  C   UNL     1       2.339   3.745  18.811  0.00  0.00    +0.000 A 
ATOM      2  C   UNL     1       2.942   4.240  17.662  0.00  0.00    +0.000 A 
ATOM      3  C   UNL     1       4.334   4.445  17.566  0.00  0.00    +0.000 A 
ATOM      4  C   UNL     1       5.124   4.228  18.711  0.00  0.00    +0.000 A 
ATOM      5  C   UNL     1       4.510   3.799  19.896  0.00  0.00    +0.000 A 
ATOM      6  C   UNL     1       3.132   3.551  19.941  0.00  0.00    +0.000 A 
ATOM      7 BR   UNL     1       2.387   2.915  21.570  0.00  0.00    +0.000 Br
ENDROOT
BRANCH   1   9
ATOM      8  C   UNL     1       0.664   2.091  18.615  0.00  0.00    +0.000 C 
ATOM      9  O   UNL     1       0.999   3.455  18.873  0.00  0.00    +0.000 OA
ENDBRANCH   1   9
BRANCH   4  10
ATOM     10  O   UNL     1       6.470   4.441  18.573  0.00  0.00    +0.000 OA
ATOM     11  C   UNL     1       7.069   5.427  19.409  0.00  0.00    +0.000 C 
ENDBRANCH   4  10
BRANCH   3  12
ATOM     12  C   UNL     1       4.936   4.884  16.226  0.00  0.00    +0.000 C 
BRANCH  12  13
ATOM     13  O   UNL     1       6.044   4.055  15.829  0.00  0.00    +0.000 OA
ATOM     14  C   UNL     1       6.208   3.846  14.435  0.00  0.00    +0.000 C 
ENDBRANCH  12  13
BRANCH  12  15
ATOM     15  C   UNL     1       5.266   6.427  16.130  0.00  0.00    +0.000 C 
ATOM     16  C   UNL     1       4.443   7.277  17.097  0.00  0.00    +0.000 C 
BRANCH  15  17
ATOM     17  N   UNL     1       6.701   6.710  16.353  0.00  0.00    +0.000 NA
ATOM     18  H   UNL     1       6.806   7.299  17.181  0.00  0.00    +0.000 HD
ATOM     19  H   UNL     1       7.079   7.244  15.572  0.00  0.00    +0.000 HD
ENDBRANCH  15  17
ENDBRANCH  12  15
ENDBRANCH   3  12
TORSDOF 6
ENDMDL
MODEL 9
REMARK VINA RESULT:      -5.4      2.759      4.904
REMARK  Name = 
REMARK  10 active torsions:
REMARK  status: ('A' for Active; 'I' for Inactive)
REMARK    1  A    between atoms: C_1  and  O_2
REMARK    2  A    between atoms: O_2  and  C_3
REMARK    3  A    between atoms: C_5  and  C_6
REMARK    4  A    between atoms: C_6  and  O_7
REMARK    5  A    between atoms: C_6  and  C_9
REMARK    6  A    between atoms: O_7  and  C_8
REMARK    7  A    between atoms: C_9  and  C_10
REMARK    8  A    between atoms: C_9  and  N_11
REMARK    9  A    between atoms: C_12  and  O_13
REMARK   10  A    between atoms: O_13  and  C_14
REMARK                            x       y       z     vdW  Elec       q    Type
REMARK                         _______ _______ _______ _____ _____    ______ ____
ROOT
ATOM      1  C   UNL     1       2.258   7.795  19.146  0.00  0.00    +0.000 A 
ATOM      2  C   UNL     1       2.950   6.813  18.448  0.00  0.00    +0.000 A 
ATOM      3  C   UNL     1       3.015   5.475  18.890  0.00  0.00    +0.000 A 
ATOM      4  C   UNL     1       2.436   5.150  20.131  0.00  0.00    +0.000 A 
ATOM      5  C   UNL     1       1.801   6.155  20.875  0.00  0.00    +0.000 A 
ATOM      6  C   UNL     1       1.705   7.461  20.380  0.00  0.00    +0.000 A 
ATOM      7 BR   UNL     1       0.776   8.750  21.424  0.00  0.00    +0.000 Br
ENDROOT
BRANCH   1   9
ATOM      8  C   UNL     1       1.058   9.248  17.722  0.00  0.00    +0.000 C 
ATOM      9  O   UNL     1       2.114   9.073  18.668  0.00  0.00    +0.000 OA
ENDBRANCH   1   9
BRANCH   4  10
ATOM     10  O   UNL     1       2.526   3.840  20.522  0.00  0.00    +0.000 OA
ATOM     11  C   UNL     1       1.346   3.222  21.028  0.00  0.00    +0.000 C 
ENDBRANCH   4  10
BRANCH   3  12
ATOM     12  C   UNL     1       3.700   4.427  18.006  0.00  0.00    +0.000 C 
BRANCH  12  13
ATOM     13  O   UNL     1       4.663   5.014  17.111  0.00  0.00    +0.000 OA
ATOM     14  C   UNL     1       5.057   4.223  16.001  0.00  0.00    +0.000 C 
ENDBRANCH  12  13
BRANCH  12  15
ATOM     15  C   UNL     1       2.707   3.441  17.268  0.00  0.00    +0.000 C 
ATOM     16  C   UNL     1       2.819   1.999  17.760  0.00  0.00    +0.000 C 
BRANCH  15  17
ATOM     17  N   UNL     1       1.297   3.874  17.385  0.00  0.00    +0.000 NA
ATOM     18  H   UNL     1       1.154   4.718  16.828  0.00  0.00    +0.000 HD
ATOM     19  H   UNL     1       1.086   4.127  18.349  0.00  0.00    +0.000 HD
ENDBRANCH  15  17
ENDBRANCH  12  15
ENDBRANCH   3  12
TORSDOF 6
ENDMDL
