MODEL 1
REMARK VINA RESULT:      -6.5      0.000      0.000
REMARK  Name = 
REMARK  4 active torsions:
REMARK  status: ('A' for Active; 'I' for Inactive)
REMARK    1  A    between atoms: N_1  and  C_2
REMARK    2  A    between atoms: C_2  and  C_3
REMARK    3  A    between atoms: C_3  and  C_4
REMARK    4  A    between atoms: C_4  and  O_5
REMARK                            x       y       z     vdW  Elec       q    Type
REMARK                         _______ _______ _______ _____ _____    ______ ____
ROOT
ATOM      1  C   UNL     1       3.992   4.269  18.321  0.00  0.00    +0.000 C 
ATOM      2  C   UNL     1       3.739   2.817  18.879  0.00  0.00    +0.000 C 
ATOM      3  C   UNL     1       3.349   2.858  20.377  0.00  0.00    +0.000 C 
ATOM      4  C   UNL     1       2.075   3.698  20.577  0.00  0.00    +0.000 C 
ATOM      5  C   UNL     1       0.918   3.033  19.811  0.00  0.00    +0.000 C 
ATOM      6  C   UNL     1       1.268   2.952  18.316  0.00  0.00    +0.000 C 
ATOM      7  C   UNL     1       2.559   2.131  18.145  0.00  0.00    +0.000 C 
ATOM      8  C   UNL     1       1.480   4.378  17.783  0.00  0.00    +0.000 C 
ATOM      9  C   UNL     1       2.653   5.061  18.522  0.00  0.00    +0.000 C 
ATOM     10  C   UNL     1       2.278   5.118  20.022  0.00  0.00    +0.000 C 
ENDROOT
BRANCH   1  11
ATOM     11  C   UNL     1       5.186   4.939  19.086  0.00  0.00    +0.000 C 
BRANCH  11  12
ATOM     12  N   UNL     1       6.475   4.284  18.844  0.00  0.00    +0.000 NA
ATOM     13  H   UNL     1       6.397   3.296  19.097  0.00  0.00    +0.000 HD
ATOM     14  H   UNL     1       7.172   4.669  19.484  0.00  0.00    +0.000 HD
ENDBRANCH  11  12
ENDBRANCH   1  11
BRANCH   1  15
ATOM     15  C   UNL     1       4.381   4.232  16.810  0.00  0.00    +0.000 C 
BRANCH  15  16
ATOM     16  O   UNL     1       5.332   3.210  16.525  0.00  0.00    +0.000 OA
ATOM     17  H   UNL     1       5.734   2.968  17.379  0.00  0.00    +0.000 HD
ENDBRANCH  15  16
ENDBRANCH   1  15
TORSDOF 4
ENDMDL
MODEL 2
REMARK VINA RESULT:      -6.5      1.092      2.733
REMARK  Name = 
REMARK  4 active torsions:
REMARK  status: ('A' for Active; 'I' for Inactive)
REMARK    1  A    between atoms: N_1  and  C_2
REMARK    2  A    between atoms: C_2  and  C_3
REMARK    3  A    between atoms: C_3  and  C_4
REMARK    4  A    between atoms: C_4  and  O_5
REMARK                            x       y       z     vdW  Elec       q    Type
REMARK                         _______ _______ _______ _____ _____    ______ ____
ROOT
ATOM      1  C   UNL     1       4.064   4.021  18.366  0.00  0.00    +0.000 C 
ATOM      2  C   UNL     1       2.821   4.973  18.548  0.00  0.00    +0.000 C 
ATOM      3  C   UNL     1       1.576   4.408  17.820  0.00  0.00    +0.000 C 
ATOM      4  C   UNL     1       1.221   3.015  18.370  0.00  0.00    +0.000 C 
ATOM      5  C   UNL     1       0.870   3.145  19.862  0.00  0.00    +0.000 C 
ATOM      6  C   UNL     1       2.073   3.722  20.626  0.00  0.00    +0.000 C 
ATOM      7  C   UNL     1       2.426   5.103  20.041  0.00  0.00    +0.000 C 
ATOM      8  C   UNL     1       3.265   2.765  20.462  0.00  0.00    +0.000 C 
ATOM      9  C   UNL     1       3.651   2.634  18.972  0.00  0.00    +0.000 C 
ATOM     10  C   UNL     1       2.421   2.062  18.228  0.00  0.00    +0.000 C 
ENDROOT
BRANCH   1  11
ATOM     11  C   UNL     1       4.434   3.906  16.846  0.00  0.00    +0.000 C 
BRANCH  11  12
ATOM     12  N   UNL     1       4.922   5.162  16.268  0.00  0.00    +0.000 NA
ATOM     13  H   UNL     1       5.886   5.314  16.575  0.00  0.00    +0.000 HD
ATOM     14  H   UNL     1       4.391   5.941  16.660  0.00  0.00    +0.000 HD
ENDBRANCH  11  12
ENDBRANCH   1  11
BRANCH   1  15
ATOM     15  C   UNL     1       5.318   4.585  19.102  0.00  0.00    +0.000 C 
BRANCH  15  16
ATOM     16  O   UNL     1       6.532   4.056  18.576  0.00  0.00    +0.000 OA
ATOM     17  H   UNL     1       6.443   4.084  17.606  0.00  0.00    +0.000 HD
ENDBRANCH  15  16
ENDBRANCH   1  15
TORSDOF 4
ENDMDL
MODEL 3
REMARK VINA RESULT:      -6.2      1.365      2.653
REMARK  Name = 
REMARK  4 active torsions:
REMARK  status: ('A' for Active; 'I' for Inactive)
REMARK    1  A    between atoms: N_1  and  C_2
REMARK    2  A    between atoms: C_2  and  C_3
REMARK    3  A    between atoms: C_3  and  C_4
REMARK    4  A    between atoms: C_4  and  O_5
REMARK                            x       y       z     vdW  Elec       q    Type
REMARK                         _______ _______ _______ _____ _____    ______ ____
ROOT
ATOM      1  C   UNL     1       3.212   3.321  18.085  0.00  0.00    +0.000 C 
ATOM      2  C   UNL     1       1.806   4.030  18.029  0.00  0.00    +0.000 C 
ATOM      3  C   UNL     1       0.905   3.573  19.204  0.00  0.00    +0.000 C 
ATOM      4  C   UNL     1       1.575   3.900  20.551  0.00  0.00    +0.000 C 
ATOM      5  C   UNL     1       1.748   5.425  20.661  0.00  0.00    +0.000 C 
ATOM      6  C   UNL     1       2.622   5.930  19.500  0.00  0.00    +0.000 C 
ATOM      7  C   UNL     1       1.945   5.567  18.165  0.00  0.00    +0.000 C 
ATOM      8  C   UNL     1       3.999   5.252  19.590  0.00  0.00    +0.000 C 
ATOM      9  C   UNL     1       3.854   3.719  19.461  0.00  0.00    +0.000 C 
ATOM     10  C   UNL     1       2.963   3.242  20.632  0.00  0.00    +0.000 C 
ENDROOT
BRANCH   1  11
ATOM     11  C   UNL     1       3.037   1.768  17.952  0.00  0.00    +0.000 C 
BRANCH  11  12
ATOM     12  N   UNL     1       4.211   1.008  18.394  0.00  0.00    +0.000 NA
ATOM     13  H   UNL     1       3.911   0.073  18.680  0.00  0.00    +0.000 HD
ATOM     14  H   UNL     1       4.590   1.438  19.239  0.00  0.00    +0.000 HD
ENDBRANCH  11  12
ENDBRANCH   1  11
BRANCH   1  15
ATOM     15  C   UNL     1       4.123   3.782  16.905  0.00  0.00    +0.000 C 
BRANCH  15  16
ATOM     16  O   UNL     1       5.464   3.322  17.051  0.00  0.00    +0.000 OA
ATOM     17  H   UNL     1       5.448   2.664  17.769  0.00  0.00    +0.000 HD
ENDBRANCH  15  16
ENDBRANCH   1  15
TORSDOF 4
ENDMDL
MODEL 4
REMARK VINA RESULT:      -6.2      1.394      2.241
REMARK  Name = 
REMARK  4 active torsions:
REMARK  status: ('A' for Active; 'I' for Inactive)
REMARK    1  A    between atoms: N_1  and  C_2
REMARK    2  A    between atoms: C_2  and  C_3
REMARK    3  A    between atoms: C_3  and  C_4
REMARK    4  A    between atoms: C_4  and  O_5
REMARK                            x       y       z     vdW  Elec       q    Type
REMARK                         _______ _______ _______ _____ _____    ______ ____
ROOT
ATOM      1  C   UNL     1       3.445   2.917  18.505  0.00  0.00    +0.000 C 
ATOM      2  C   UNL     1       3.543   3.452  19.984  0.00  0.00    +0.000 C 
ATOM      3  C   UNL     1       3.283   4.978  20.041  0.00  0.00    +0.000 C 
ATOM      4  C   UNL     1       1.886   5.305  19.484  0.00  0.00    +0.000 C 
ATOM      5  C   UNL     1       0.828   4.618  20.364  0.00  0.00    +0.000 C 
ATOM      6  C   UNL     1       1.057   3.098  20.355  0.00  0.00    +0.000 C 
ATOM      7  C   UNL     1       2.469   2.798  20.890  0.00  0.00    +0.000 C 
ATOM      8  C   UNL     1       0.927   2.589  18.909  0.00  0.00    +0.000 C 
ATOM      9  C   UNL     1       1.995   3.250  18.008  0.00  0.00    +0.000 C 
ATOM     10  C   UNL     1       1.746   4.776  18.046  0.00  0.00    +0.000 C 
ENDROOT
BRANCH   1  11
ATOM     11  C   UNL     1       4.538   3.601  17.612  0.00  0.00    +0.000 C 
BRANCH  11  12
ATOM     12  N   UNL     1       5.844   3.711  18.270  0.00  0.00    +0.000 NA
ATOM     13  H   UNL     1       6.027   4.696  18.478  0.00  0.00    +0.000 HD
ATOM     14  H   UNL     1       6.575   3.437  17.613  0.00  0.00    +0.000 HD
ENDBRANCH  11  12
ENDBRANCH   1  11
BRANCH   1  15
ATOM     15  C   UNL     1       3.702   1.379  18.444  0.00  0.00    +0.000 C 
BRANCH  15  16
ATOM     16  O   UNL     1       4.739   0.972  19.333  0.00  0.00    +0.000 OA
ATOM     17  H   UNL     1       4.956   1.754  19.872  0.00  0.00    +0.000 HD
ENDBRANCH  15  16
ENDBRANCH   1  15
TORSDOF 4
ENDMDL
MODEL 5
REMARK VINA RESULT:      -6.1      1.448      2.412
REMARK  Name = 
REMARK  4 active torsions:
REMARK  status: ('A' for Active; 'I' for Inactive)
REMARK    1  A    between atoms: N_1  and  C_2
REMARK    2  A    between atoms: C_2  and  C_3
REMARK    3  A    between atoms: C_3  and  C_4
REMARK    4  A    between atoms: C_4  and  O_5
REMARK                            x       y       z     vdW  Elec       q    Type
REMARK                         _______ _______ _______ _____ _____    ______ ____
ROOT
ATOM      1  C   UNL     1       3.620   2.966  18.764  0.00  0.00    +0.000 C 
ATOM      2  C   UNL     1       2.183   3.102  18.131  0.00  0.00    +0.000 C 
ATOM      3  C   UNL     1       1.116   2.421  19.024  0.00  0.00    +0.000 C 
ATOM      4  C   UNL     1       1.105   3.058  20.425  0.00  0.00    +0.000 C 
ATOM      5  C   UNL     1       0.725   4.543  20.292  0.00  0.00    +0.000 C 
ATOM      6  C   UNL     1       1.748   5.259  19.395  0.00  0.00    +0.000 C 
ATOM      7  C   UNL     1       1.760   4.588  18.009  0.00  0.00    +0.000 C 
ATOM      8  C   UNL     1       3.137   5.143  20.044  0.00  0.00    +0.000 C 
ATOM      9  C   UNL     1       3.552   3.660  20.170  0.00  0.00    +0.000 C 
ATOM     10  C   UNL     1       2.500   2.964  21.066  0.00  0.00    +0.000 C 
ENDROOT
BRANCH   1  11
ATOM     11  C   UNL     1       4.016   1.454  18.879  0.00  0.00    +0.000 C 
BRANCH  11  12
ATOM     12  N   UNL     1       5.067   1.200  19.870  0.00  0.00    +0.000 NA
ATOM     13  H   UNL     1       5.612   0.387  19.572  0.00  0.00    +0.000 HD
ATOM     14  H   UNL     1       4.636   0.923  20.753  0.00  0.00    +0.000 HD
ENDBRANCH  11  12
ENDBRANCH   1  11
BRANCH   1  15
ATOM     15  C   UNL     1       4.697   3.655  17.868  0.00  0.00    +0.000 C 
BRANCH  15  16
ATOM     16  O   UNL     1       5.965   3.726  18.513  0.00  0.00    +0.000 OA
ATOM     17  H   UNL     1       5.948   4.535  19.056  0.00  0.00    +0.000 HD
ENDBRANCH  15  16
ENDBRANCH   1  15
TORSDOF 4
ENDMDL
MODEL 6
REMARK VINA RESULT:      -6.0      1.348      2.583
REMARK  Name = 
REMARK  4 active torsions:
REMARK  status: ('A' for Active; 'I' for Inactive)
REMARK    1  A    between atoms: N_1  and  C_2
REMARK    2  A    between atoms: C_2  and  C_3
REMARK    3  A    between atoms: C_3  and  C_4
REMARK    4  A    between atoms: C_4  and  O_5
REMARK                            x       y       z     vdW  Elec       q    Type
REMARK                         _______ _______ _______ _____ _____    ______ ____
ROOT
ATOM      1  C   UNL     1       3.969   3.457  19.595  0.00  0.00    +0.000 C 
ATOM      2  C   UNL     1       2.703   4.224  20.135  0.00  0.00    +0.000 C 
ATOM      3  C   UNL     1       2.242   5.311  19.132  0.00  0.00    +0.000 C 
ATOM      4  C   UNL     1       1.897   4.674  17.773  0.00  0.00    +0.000 C 
ATOM      5  C   UNL     1       0.728   3.692  17.969  0.00  0.00    +0.000 C 
ATOM      6  C   UNL     1       1.133   2.602  18.975  0.00  0.00    +0.000 C 
ATOM      7  C   UNL     1       1.499   3.265  20.316  0.00  0.00    +0.000 C 
ATOM      8  C   UNL     1       2.349   1.845  18.417  0.00  0.00    +0.000 C 
ATOM      9  C   UNL     1       3.545   2.806  18.232  0.00  0.00    +0.000 C 
ATOM     10  C   UNL     1       3.105   3.895  17.225  0.00  0.00    +0.000 C 
ENDROOT
BRANCH   1  11
ATOM     11  C   UNL     1       5.167   4.454  19.416  0.00  0.00    +0.000 C 
BRANCH  11  12
ATOM     12  N   UNL     1       6.264   3.909  18.609  0.00  0.00    +0.000 NA
ATOM     13  H   UNL     1       6.252   4.359  17.691  0.00  0.00    +0.000 HD
ATOM     14  H   UNL     1       6.086   2.921  18.425  0.00  0.00    +0.000 HD
ENDBRANCH  11  12
ENDBRANCH   1  11
BRANCH   1  15
ATOM     15  C   UNL     1       4.434   2.359  20.601  0.00  0.00    +0.000 C 
BRANCH  15  16
ATOM     16  O   UNL     1       5.300   1.405  19.993  0.00  0.00    +0.000 OA
ATOM     17  H   UNL     1       5.613   1.812  19.165  0.00  0.00    +0.000 HD
ENDBRANCH  15  16
ENDBRANCH   1  15
TORSDOF 4
ENDMDL
MODEL 7
REMARK VINA RESULT:      -6.0      1.444      1.976
REMARK  Name = 
REMARK  4 active torsions:
REMARK  status: ('A' for Active; 'I' for Inactive)
REMARK    1  A    between atoms: N_1  and  C_2
REMARK    2  A    between atoms: C_2  and  C_3
REMARK    3  A    between atoms: C_3  and  C_4
REMARK    4  A    between atoms: C_4  and  O_5
REMARK                            x       y       z     vdW  Elec       q    Type
REMARK                         _______ _______ _______ _____ _____    ______ ____
ROOT
ATOM      1  C   UNL     1       4.003   4.480  17.991  0.00  0.00    +0.000 C 
ATOM      2  C   UNL     1       3.909   4.154  19.530  0.00  0.00    +0.000 C 
ATOM      3  C   UNL     1       2.583   4.683  20.130  0.00  0.00    +0.000 C 
ATOM      4  C   UNL     1       1.378   4.047  19.411  0.00  0.00    +0.000 C 
ATOM      5  C   UNL     1       1.417   2.525  19.633  0.00  0.00    +0.000 C 
ATOM      6  C   UNL     1       2.729   1.955  19.069  0.00  0.00    +0.000 C 
ATOM      7  C   UNL     1       3.917   2.625  19.783  0.00  0.00    +0.000 C 
ATOM      8  C   UNL     1       2.788   2.254  17.562  0.00  0.00    +0.000 C 
ATOM      9  C   UNL     1       2.773   3.779  17.314  0.00  0.00    +0.000 C 
ATOM     10  C   UNL     1       1.449   4.326  17.900  0.00  0.00    +0.000 C 
ENDROOT
BRANCH   1  11
ATOM     11  C   UNL     1       3.986   6.032  17.767  0.00  0.00    +0.000 C 
BRANCH  11  12
ATOM     12  N   UNL     1       4.981   6.492  16.793  0.00  0.00    +0.000 NA
ATOM     13  H   UNL     1       4.782   7.466  16.553  0.00  0.00    +0.000 HD
ATOM     14  H   UNL     1       4.862   5.973  15.922  0.00  0.00    +0.000 HD
ENDBRANCH  11  12
ENDBRANCH   1  11
BRANCH   1  15
ATOM     15  C   UNL     1       5.337   3.944  17.382  0.00  0.00    +0.000 C 
BRANCH  15  16
ATOM     16  O   UNL     1       6.441   4.127  18.264  0.00  0.00    +0.000 OA
ATOM     17  H   UNL     1       6.398   5.054  18.563  0.00  0.00    +0.000 HD
ENDBRANCH  15  16
ENDBRANCH   1  15
TORSDOF 4
ENDMDL
MODEL 8
REMARK VINA RESULT:      -6.0      2.023      3.436
REMARK  Name = 
REMARK  4 active torsions:
REMARK  status: ('A' for Active; 'I' for Inactive)
REMARK    1  A    between atoms: N_1  and  C_2
REMARK    2  A    between atoms: C_2  and  C_3
REMARK    3  A    between atoms: C_3  and  C_4
REMARK    4  A    between atoms: C_4  and  O_5
REMARK                            x       y       z     vdW  Elec       q    Type
REMARK                         _______ _______ _______ _____ _____    ______ ____
ROOT
ATOM      1  C   UNL     1       3.075   3.122  19.130  0.00  0.00    +0.000 C 
ATOM      2  C   UNL     1       3.509   4.406  19.934  0.00  0.00    +0.000 C 
ATOM      3  C   UNL     1       4.805   5.019  19.347  0.00  0.00    +0.000 C 
ATOM      4  C   UNL     1       4.595   5.403  17.870  0.00  0.00    +0.000 C 
ATOM      5  C   UNL     1       3.494   6.474  17.789  0.00  0.00    +0.000 C 
ATOM      6  C   UNL     1       2.188   5.917  18.381  0.00  0.00    +0.000 C 
ATOM      7  C   UNL     1       2.431   5.516  19.848  0.00  0.00    +0.000 C 
ATOM      8  C   UNL     1       1.764   4.685  17.565  0.00  0.00    +0.000 C 
ATOM      9  C   UNL     1       2.845   3.585  17.648  0.00  0.00    +0.000 C 
ATOM     10  C   UNL     1       4.148   4.176  17.057  0.00  0.00    +0.000 C 
ENDROOT
BRANCH   1  11
ATOM     11  C   UNL     1       4.188   2.023  19.231  0.00  0.00    +0.000 C 
BRANCH  11  12
ATOM     12  N   UNL     1       3.948   0.867  18.361  0.00  0.00    +0.000 NA
ATOM     13  H   UNL     1       2.995   0.923  17.993  0.00  0.00    +0.000 HD
ATOM     14  H   UNL     1       3.967   0.015  18.922  0.00  0.00    +0.000 HD
ENDBRANCH  11  12
ENDBRANCH   1  11
BRANCH   1  15
ATOM     15  C   UNL     1       1.767   2.506  19.716  0.00  0.00    +0.000 C 
BRANCH  15  16
ATOM     16  O   UNL     1       1.176   1.559  18.831  0.00  0.00    +0.000 OA
ATOM     17  H   UNL     1       1.910   1.166  18.325  0.00  0.00    +0.000 HD
ENDBRANCH  15  16
ENDBRANCH   1  15
TORSDOF 4
ENDMDL
MODEL 9
REMARK VINA RESULT:      -6.0      1.282      2.132
REMARK  Name = 
REMARK  4 active torsions:
REMARK  status: ('A' for Active; 'I' for Inactive)
REMARK    1  A    between atoms: N_1  and  C_2
REMARK    2  A    between atoms: C_2  and  C_3
REMARK    3  A    between atoms: C_3  and  C_4
REMARK    4  A    between atoms: C_4  and  O_5
REMARK                            x       y       z     vdW  Elec       q    Type
REMARK                         _______ _______ _______ _____ _____    ______ ____
ROOT
ATOM      1  C   UNL     1       3.992   4.461  17.995  0.00  0.00    +0.000 C 
ATOM      2  C   UNL     1       2.754   3.756  17.321  0.00  0.00    +0.000 C 
ATOM      3  C   UNL     1       2.746   2.237  17.626  0.00  0.00    +0.000 C 
ATOM      4  C   UNL     1       2.690   1.997  19.145  0.00  0.00    +0.000 C 
ATOM      5  C   UNL     1       1.381   2.590  19.694  0.00  0.00    +0.000 C 
ATOM      6  C   UNL     1       1.335   4.099  19.396  0.00  0.00    +0.000 C 
ATOM      7  C   UNL     1       1.419   4.315  17.874  0.00  0.00    +0.000 C 
ATOM      8  C   UNL     1       2.531   4.773  20.087  0.00  0.00    +0.000 C 
ATOM      9  C   UNL     1       3.860   4.208  19.538  0.00  0.00    +0.000 C 
ATOM     10  C   UNL     1       3.873   2.691  19.841  0.00  0.00    +0.000 C 
ENDROOT
BRANCH   1  11
ATOM     11  C   UNL     1       5.326   3.870  17.420  0.00  0.00    +0.000 C 
BRANCH  11  12
ATOM     12  N   UNL     1       6.513   4.251  18.193  0.00  0.00    +0.000 NA
ATOM     13  H   UNL     1       6.380   3.965  19.166  0.00  0.00    +0.000 HD
ATOM     14  H   UNL     1       6.583   5.269  18.221  0.00  0.00    +0.000 HD
ENDBRANCH  11  12
ENDBRANCH   1  11
BRANCH   1  15
ATOM     15  C   UNL     1       4.002   5.992  17.693  0.00  0.00    +0.000 C 
BRANCH  15  16
ATOM     16  O   UNL     1       4.817   6.313  16.569  0.00  0.00    +0.000 OA
ATOM     17  H   UNL     1       5.291   5.494  16.336  0.00  0.00    +0.000 HD
ENDBRANCH  15  16
ENDBRANCH   1  15
TORSDOF 4
ENDMDL
