MODEL 1
REMARK VINA RESULT:      -9.3      0.000      0.000
REMARK  Name = 
REMARK  5 active torsions:
REMARK  status: ('A' for Active; 'I' for Inactive)
REMARK    1  A    between atoms: C_1  and  O_2
REMARK    2  A    between atoms: O_2  and  C_3
REMARK    3  A    between atoms: C_6  and  C_7
REMARK    4  A    between atoms: C_9  and  C_10
REMARK    5  A    between atoms: C_13  and  C_14
REMARK                            x       y       z     vdW  Elec       q    Type
REMARK                         _______ _______ _______ _____ _____    ______ ____
ROOT
ATOM      1  C   UNL     1       2.683   6.444  19.002  0.00  0.00    +0.000 A 
ATOM      2  C   UNL     1       4.035   6.207  19.178  0.00  0.00    +0.000 A 
ATOM      3  C   UNL     1       4.545   4.996  18.746  0.00  0.00    +0.000 A 
ATOM      4  C   UNL     1       3.701   3.899  18.699  0.00  0.00    +0.000 A 
ATOM      5  C   UNL     1       4.204   2.585  18.768  0.00  0.00    +0.000 A 
ATOM      6  C   UNL     1       3.351   1.508  18.634  0.00  0.00    +0.000 A 
ATOM      7  C   UNL     1       2.007   1.748  18.379  0.00  0.00    +0.000 A 
ATOM      8  C   UNL     1       1.515   3.064  18.339  0.00  0.00    +0.000 A 
ATOM      9  C   UNL     1       2.333   4.168  18.568  0.00  0.00    +0.000 A 
ATOM     10  N   UNL     1       1.845   5.436  18.637  0.00  0.00    +0.000 NA
ENDROOT
BRANCH   1  14
ATOM     11  C   UNL     1       0.749  10.276  19.485  0.00  0.00    +0.000 A 
ATOM     12  C   UNL     1       0.879   9.415  20.564  0.00  0.00    +0.000 A 
ATOM     13  C   UNL     1       1.577   8.215  20.427  0.00  0.00    +0.000 A 
ATOM     14  C   UNL     1       2.131   7.809  19.191  0.00  0.00    +0.000 A 
ATOM     15  C   UNL     1       2.075   8.737  18.146  0.00  0.00    +0.000 A 
ATOM     16  C   UNL     1       1.391   9.954  18.286  0.00  0.00    +0.000 A 
BRANCH  11  18
ATOM     17  C   UNL     1      -0.003  11.889  21.047  0.00  0.00    +0.000 C 
ATOM     18  O   UNL     1      -0.029  11.369  19.726  0.00  0.00    +0.000 OA
ENDBRANCH  11  18
ENDBRANCH   1  14
BRANCH   3  19
ATOM     19  C   UNL     1       5.719   5.013  17.880  0.00  0.00    +0.000 A 
ATOM     20  N   UNL     1       6.965   4.697  18.176  0.00  0.00    +0.000 NA
ATOM     21  N   UNL     1       7.606   4.454  16.982  0.00  0.00    +0.000 NA
ATOM     22  C   UNL     1       6.712   4.647  16.039  0.00  0.00    +0.000 A 
ATOM     23  O   UNL     1       5.488   5.011  16.530  0.00  0.00    +0.000 OA
BRANCH  22  24
ATOM     24  C   UNL     1       6.840   4.562  14.595  0.00  0.00    +0.000 A 
ATOM     25  C   UNL     1       6.079   3.638  13.877  0.00  0.00    +0.000 A 
ATOM     26  C   UNL     1       6.281   3.547  12.514  0.00  0.00    +0.000 A 
ATOM     27  N   UNL     1       7.154   4.310  11.825  0.00  0.00    +0.000 NA
ATOM     28  C   UNL     1       7.855   5.212  12.530  0.00  0.00    +0.000 A 
ATOM     29  C   UNL     1       7.736   5.381  13.900  0.00  0.00    +0.000 A 
ENDBRANCH  22  24
ENDBRANCH   3  19
TORSDOF 4
ENDMDL
MODEL 2
REMARK VINA RESULT:      -9.0      0.277      1.276
REMARK  Name = 
REMARK  5 active torsions:
REMARK  status: ('A' for Active; 'I' for Inactive)
REMARK    1  A    between atoms: C_1  and  O_2
REMARK    2  A    between atoms: O_2  and  C_3
REMARK    3  A    between atoms: C_6  and  C_7
REMARK    4  A    between atoms: C_9  and  C_10
REMARK    5  A    between atoms: C_13  and  C_14
REMARK                            x       y       z     vdW  Elec       q    Type
REMARK                         _______ _______ _______ _____ _____    ______ ____
ROOT
ATOM      1  C   UNL     1       2.619   6.360  18.995  0.00  0.00    +0.000 A 
ATOM      2  C   UNL     1       3.979   6.192  19.183  0.00  0.00    +0.000 A 
ATOM      3  C   UNL     1       4.548   4.995  18.787  0.00  0.00    +0.000 A 
ATOM      4  C   UNL     1       3.757   3.859  18.768  0.00  0.00    +0.000 A 
ATOM      5  C   UNL     1       4.321   2.572  18.875  0.00  0.00    +0.000 A 
ATOM      6  C   UNL     1       3.521   1.453  18.769  0.00  0.00    +0.000 A 
ATOM      7  C   UNL     1       2.167   1.621  18.503  0.00  0.00    +0.000 A 
ATOM      8  C   UNL     1       1.615   2.911  18.424  0.00  0.00    +0.000 A 
ATOM      9  C   UNL     1       2.378   4.058  18.625  0.00  0.00    +0.000 A 
ATOM     10  N   UNL     1       1.830   5.304  18.657  0.00  0.00    +0.000 NA
ENDROOT
BRANCH   1  14
ATOM     11  C   UNL     1       1.157  10.394  19.493  0.00  0.00    +0.000 A 
ATOM     12  C   UNL     1       1.574   9.948  18.248  0.00  0.00    +0.000 A 
ATOM     13  C   UNL     1       1.967   8.621  18.072  0.00  0.00    +0.000 A 
ATOM     14  C   UNL     1       2.001   7.702  19.145  0.00  0.00    +0.000 A 
ATOM     15  C   UNL     1       1.481   8.146  20.366  0.00  0.00    +0.000 A 
ATOM     16  C   UNL     1       1.066   9.474  20.541  0.00  0.00    +0.000 A 
BRANCH  11  18
ATOM     17  C   UNL     1       0.615  12.264  20.839  0.00  0.00    +0.000 C 
ATOM     18  O   UNL     1       0.885  11.728  19.552  0.00  0.00    +0.000 OA
ENDBRANCH  11  18
ENDBRANCH   1  14
BRANCH   3  19
ATOM     19  C   UNL     1       5.723   5.044  17.924  0.00  0.00    +0.000 A 
ATOM     20  N   UNL     1       6.984   4.814  18.236  0.00  0.00    +0.000 NA
ATOM     21  N   UNL     1       7.645   4.558  17.057  0.00  0.00    +0.000 NA
ATOM     22  C   UNL     1       6.746   4.657  16.103  0.00  0.00    +0.000 A 
ATOM     23  O   UNL     1       5.500   4.970  16.575  0.00  0.00    +0.000 OA
BRANCH  22  24
ATOM     24  C   UNL     1       6.886   4.519  14.665  0.00  0.00    +0.000 A 
ATOM     25  C   UNL     1       7.779   5.332  13.965  0.00  0.00    +0.000 A 
ATOM     26  C   UNL     1       7.831   5.211  12.591  0.00  0.00    +0.000 A 
ATOM     27  N   UNL     1       7.087   4.341  11.879  0.00  0.00    +0.000 NA
ATOM     28  C   UNL     1       6.255   3.548  12.573  0.00  0.00    +0.000 A 
ATOM     29  C   UNL     1       6.119   3.592  13.951  0.00  0.00    +0.000 A 
ENDBRANCH  22  24
ENDBRANCH   3  19
TORSDOF 4
ENDMDL
MODEL 3
REMARK VINA RESULT:      -8.7      0.722      1.126
REMARK  Name = 
REMARK  5 active torsions:
REMARK  status: ('A' for Active; 'I' for Inactive)
REMARK    1  A    between atoms: C_1  and  O_2
REMARK    2  A    between atoms: O_2  and  C_3
REMARK    3  A    between atoms: C_6  and  C_7
REMARK    4  A    between atoms: C_9  and  C_10
REMARK    5  A    between atoms: C_13  and  C_14
REMARK                            x       y       z     vdW  Elec       q    Type
REMARK                         _______ _______ _______ _____ _____    ______ ____
ROOT
ATOM      1  C   UNL     1       2.528   6.845  18.829  0.00  0.00    +0.000 A 
ATOM      2  C   UNL     1       3.906   6.729  18.824  0.00  0.00    +0.000 A 
ATOM      3  C   UNL     1       4.462   5.603  18.245  0.00  0.00    +0.000 A 
ATOM      4  C   UNL     1       3.719   4.434  18.219  0.00  0.00    +0.000 A 
ATOM      5  C   UNL     1       4.340   3.173  18.129  0.00  0.00    +0.000 A 
ATOM      6  C   UNL     1       3.576   2.029  18.019  0.00  0.00    +0.000 A 
ATOM      7  C   UNL     1       2.194   2.154  17.946  0.00  0.00    +0.000 A 
ATOM      8  C   UNL     1       1.587   3.416  18.062  0.00  0.00    +0.000 A 
ATOM      9  C   UNL     1       2.327   4.577  18.273  0.00  0.00    +0.000 A 
ATOM     10  N   UNL     1       1.741   5.786  18.495  0.00  0.00    +0.000 NA
ENDROOT
BRANCH   1  14
ATOM     11  C   UNL     1       0.340  10.440  19.803  0.00  0.00    +0.000 A 
ATOM     12  C   UNL     1       0.614   9.500  20.783  0.00  0.00    +0.000 A 
ATOM     13  C   UNL     1       1.392   8.380  20.486  0.00  0.00    +0.000 A 
ATOM     14  C   UNL     1       1.886   8.136  19.184  0.00  0.00    +0.000 A 
ATOM     15  C   UNL     1       1.683   9.147  18.239  0.00  0.00    +0.000 A 
ATOM     16  C   UNL     1       0.918  10.284  18.540  0.00  0.00    +0.000 A 
BRANCH  11  18
ATOM     17  C   UNL     1      -0.312  11.947  21.508  0.00  0.00    +0.000 C 
ATOM     18  O   UNL     1      -0.501  11.438  20.197  0.00  0.00    +0.000 OA
ENDBRANCH  11  18
ENDBRANCH   1  14
BRANCH   3  19
ATOM     19  C   UNL     1       5.511   5.787  17.248  0.00  0.00    +0.000 A 
ATOM     20  N   UNL     1       6.774   6.120  17.434  0.00  0.00    +0.000 NA
ATOM     21  N   UNL     1       7.451   5.758  16.292  0.00  0.00    +0.000 NA
ATOM     22  C   UNL     1       6.556   5.237  15.483  0.00  0.00    +0.000 A 
ATOM     23  O   UNL     1       5.296   5.226  16.017  0.00  0.00    +0.000 OA
BRANCH  22  24
ATOM     24  C   UNL     1       6.700   4.717  14.135  0.00  0.00    +0.000 A 
ATOM     25  C   UNL     1       7.637   5.275  13.264  0.00  0.00    +0.000 A 
ATOM     26  C   UNL     1       7.693   4.793  11.972  0.00  0.00    +0.000 A 
ATOM     27  N   UNL     1       6.912   3.800  11.499  0.00  0.00    +0.000 NA
ATOM     28  C   UNL     1       6.037   3.258  12.361  0.00  0.00    +0.000 A 
ATOM     29  C   UNL     1       5.893   3.670  13.675  0.00  0.00    +0.000 A 
ENDBRANCH  22  24
ENDBRANCH   3  19
TORSDOF 4
ENDMDL
MODEL 4
REMARK VINA RESULT:      -8.3      1.257      1.453
REMARK  Name = 
REMARK  5 active torsions:
REMARK  status: ('A' for Active; 'I' for Inactive)
REMARK    1  A    between atoms: C_1  and  O_2
REMARK    2  A    between atoms: O_2  and  C_3
REMARK    3  A    between atoms: C_6  and  C_7
REMARK    4  A    between atoms: C_9  and  C_10
REMARK    5  A    between atoms: C_13  and  C_14
REMARK                            x       y       z     vdW  Elec       q    Type
REMARK                         _______ _______ _______ _____ _____    ______ ____
ROOT
ATOM      1  C   UNL     1       2.740   6.808  18.359  0.00  0.00    +0.000 A 
ATOM      2  C   UNL     1       4.088   6.667  18.080  0.00  0.00    +0.000 A 
ATOM      3  C   UNL     1       4.515   5.476  17.521  0.00  0.00    +0.000 A 
ATOM      4  C   UNL     1       3.787   4.325  17.775  0.00  0.00    +0.000 A 
ATOM      5  C   UNL     1       4.381   3.050  17.693  0.00  0.00    +0.000 A 
ATOM      6  C   UNL     1       3.614   1.915  17.866  0.00  0.00    +0.000 A 
ATOM      7  C   UNL     1       2.247   2.057  18.070  0.00  0.00    +0.000 A 
ATOM      8  C   UNL     1       1.674   3.335  18.175  0.00  0.00    +0.000 A 
ATOM      9  C   UNL     1       2.436   4.499  18.102  0.00  0.00    +0.000 A 
ATOM     10  N   UNL     1       1.905   5.734  18.311  0.00  0.00    +0.000 NA
ENDROOT
BRANCH   1  14
ATOM     11  C   UNL     1       0.790  10.557  19.255  0.00  0.00    +0.000 A 
ATOM     12  C   UNL     1       0.875   9.564  20.218  0.00  0.00    +0.000 A 
ATOM     13  C   UNL     1       1.578   8.387  19.955  0.00  0.00    +0.000 A 
ATOM     14  C   UNL     1       2.181   8.141  18.701  0.00  0.00    +0.000 A 
ATOM     15  C   UNL     1       2.169   9.196  17.783  0.00  0.00    +0.000 A 
ATOM     16  C   UNL     1       1.481  10.389  18.051  0.00  0.00    +0.000 A 
BRANCH  11  18
ATOM     17  C   UNL     1       0.240  12.834  18.915  0.00  0.00    +0.000 C 
ATOM     18  O   UNL     1       0.004  11.615  19.602  0.00  0.00    +0.000 OA
ENDBRANCH  11  18
ENDBRANCH   1  14
BRANCH   3  19
ATOM     19  C   UNL     1       5.331   5.535  16.314  0.00  0.00    +0.000 A 
ATOM     20  N   UNL     1       6.551   6.013  16.168  0.00  0.00    +0.000 NA
ATOM     21  N   UNL     1       7.051   5.476  15.003  0.00  0.00    +0.000 NA
ATOM     22  C   UNL     1       6.100   4.715  14.512  0.00  0.00    +0.000 A 
ATOM     23  O   UNL     1       4.971   4.705  15.285  0.00  0.00    +0.000 OA
BRANCH  22  24
ATOM     24  C   UNL     1       6.063   3.932  13.290  0.00  0.00    +0.000 A 
ATOM     25  C   UNL     1       4.842   3.492  12.776  0.00  0.00    +0.000 A 
ATOM     26  C   UNL     1       4.859   2.695  11.649  0.00  0.00    +0.000 A 
ATOM     27  N   UNL     1       5.981   2.328  10.997  0.00  0.00    +0.000 NA
ATOM     28  C   UNL     1       7.143   2.785  11.491  0.00  0.00    +0.000 A 
ATOM     29  C   UNL     1       7.240   3.584  12.619  0.00  0.00    +0.000 A 
ENDBRANCH  22  24
ENDBRANCH   3  19
TORSDOF 4
ENDMDL
MODEL 5
REMARK VINA RESULT:      -8.0      2.516      8.319
REMARK  Name = 
REMARK  5 active torsions:
REMARK  status: ('A' for Active; 'I' for Inactive)
REMARK    1  A    between atoms: C_1  and  O_2
REMARK    2  A    between atoms: O_2  and  C_3
REMARK    3  A    between atoms: C_6  and  C_7
REMARK    4  A    between atoms: C_9  and  C_10
REMARK    5  A    between atoms: C_13  and  C_14
REMARK                            x       y       z     vdW  Elec       q    Type
REMARK                         _______ _______ _______ _____ _____    ______ ____
ROOT
ATOM      1  C   UNL     1       4.337   4.690  17.395  0.00  0.00    +0.000 A 
ATOM      2  C   UNL     1       3.308   5.614  17.347  0.00  0.00    +0.000 A 
ATOM      3  C   UNL     1       2.586   5.845  18.504  0.00  0.00    +0.000 A 
ATOM      4  C   UNL     1       2.496   4.832  19.443  0.00  0.00    +0.000 A 
ATOM      5  C   UNL     1       1.426   4.775  20.358  0.00  0.00    +0.000 A 
ATOM      6  C   UNL     1       1.403   3.804  21.339  0.00  0.00    +0.000 A 
ATOM      7  C   UNL     1       2.475   2.925  21.435  0.00  0.00    +0.000 A 
ATOM      8  C   UNL     1       3.522   2.978  20.499  0.00  0.00    +0.000 A 
ATOM      9  C   UNL     1       3.525   3.882  19.440  0.00  0.00    +0.000 A 
ATOM     10  N   UNL     1       4.480   3.867  18.470  0.00  0.00    +0.000 NA
ENDROOT
BRANCH   1  14
ATOM     11  C   UNL     1       7.056   4.740  14.040  0.00  0.00    +0.000 A 
ATOM     12  C   UNL     1       7.429   5.301  15.251  0.00  0.00    +0.000 A 
ATOM     13  C   UNL     1       6.583   5.210  16.358  0.00  0.00    +0.000 A 
ATOM     14  C   UNL     1       5.313   4.596  16.280  0.00  0.00    +0.000 A 
ATOM     15  C   UNL     1       5.002   3.951  15.078  0.00  0.00    +0.000 A 
ATOM     16  C   UNL     1       5.859   4.022  13.969  0.00  0.00    +0.000 A 
BRANCH  11  18
ATOM     17  C   UNL     1       7.450   4.722  11.705  0.00  0.00    +0.000 C 
ATOM     18  O   UNL     1       7.928   4.974  13.018  0.00  0.00    +0.000 OA
ENDBRANCH  11  18
ENDBRANCH   1  14
BRANCH   3  19
ATOM     19  C   UNL     1       2.416   7.225  18.945  0.00  0.00    +0.000 A 
ATOM     20  N   UNL     1       2.549   8.335  18.246  0.00  0.00    +0.000 NA
ATOM     21  N   UNL     1       1.889   9.324  18.940  0.00  0.00    +0.000 NA
ATOM     22  C   UNL     1       1.405   8.753  20.020  0.00  0.00    +0.000 A 
ATOM     23  O   UNL     1       1.704   7.420  20.099  0.00  0.00    +0.000 OA
BRANCH  22  24
ATOM     24  C   UNL     1       0.650   9.320  21.123  0.00  0.00    +0.000 A 
ATOM     25  C   UNL     1      -0.250  10.363  20.894  0.00  0.00    +0.000 A 
ATOM     26  C   UNL     1      -0.897  10.916  21.981  0.00  0.00    +0.000 A 
ATOM     27  N   UNL     1      -0.730  10.500  23.253  0.00  0.00    +0.000 NA
ATOM     28  C   UNL     1       0.118   9.478  23.449  0.00  0.00    +0.000 A 
ATOM     29  C   UNL     1       0.823   8.857  22.431  0.00  0.00    +0.000 A 
ENDBRANCH  22  24
ENDBRANCH   3  19
TORSDOF 4
ENDMDL
MODEL 6
REMARK VINA RESULT:      -7.9      4.039      8.859
REMARK  Name = 
REMARK  5 active torsions:
REMARK  status: ('A' for Active; 'I' for Inactive)
REMARK    1  A    between atoms: C_1  and  O_2
REMARK    2  A    between atoms: O_2  and  C_3
REMARK    3  A    between atoms: C_6  and  C_7
REMARK    4  A    between atoms: C_9  and  C_10
REMARK    5  A    between atoms: C_13  and  C_14
REMARK                            x       y       z     vdW  Elec       q    Type
REMARK                         _______ _______ _______ _____ _____    ______ ____
ROOT
ATOM      1  C   UNL     1       1.821   8.272  19.033  0.00  0.00    +0.000 A 
ATOM      2  C   UNL     1       1.177   9.303  18.372  0.00  0.00    +0.000 A 
ATOM      3  C   UNL     1       0.688  10.354  19.126  0.00  0.00    +0.000 A 
ATOM      4  C   UNL     1       0.337  10.119  20.445  0.00  0.00    +0.000 A 
ATOM      5  C   UNL     1      -0.598  10.935  21.110  0.00  0.00    +0.000 A 
ATOM      6  C   UNL     1      -0.867  10.733  22.449  0.00  0.00    +0.000 A 
ATOM      7  C   UNL     1      -0.162   9.748  23.131  0.00  0.00    +0.000 A 
ATOM      8  C   UNL     1       0.748   8.924  22.447  0.00  0.00    +0.000 A 
ATOM      9  C   UNL     1       0.968   9.040  21.077  0.00  0.00    +0.000 A 
ATOM     10  N   UNL     1       1.766   8.177  20.390  0.00  0.00    +0.000 NA
ENDROOT
BRANCH   1  14
ATOM     11  C   UNL     1       4.276   5.280  17.115  0.00  0.00    +0.000 A 
ATOM     12  C   UNL     1       3.134   4.910  17.808  0.00  0.00    +0.000 A 
ATOM     13  C   UNL     1       2.297   5.884  18.355  0.00  0.00    +0.000 A 
ATOM     14  C   UNL     1       2.598   7.262  18.271  0.00  0.00    +0.000 A 
ATOM     15  C   UNL     1       3.699   7.615  17.483  0.00  0.00    +0.000 A 
ATOM     16  C   UNL     1       4.530   6.639  16.913  0.00  0.00    +0.000 A 
BRANCH  11  18
ATOM     17  C   UNL     1       5.773   4.415  15.498  0.00  0.00    +0.000 C 
ATOM     18  O   UNL     1       5.051   4.236  16.708  0.00  0.00    +0.000 OA
ENDBRANCH  11  18
ENDBRANCH   1  14
BRANCH   3  19
ATOM     19  C   UNL     1       1.048  11.711  18.729  0.00  0.00    +0.000 A 
ATOM     20  N   UNL     1       0.252  12.720  18.431  0.00  0.00    +0.000 NA
ATOM     21  N   UNL     1       1.005  13.866  18.543  0.00  0.00    +0.000 NA
ATOM     22  C   UNL     1       2.211  13.481  18.893  0.00  0.00    +0.000 A 
ATOM     23  O   UNL     1       2.320  12.123  19.025  0.00  0.00    +0.000 OA
BRANCH  22  24
ATOM     24  C   UNL     1       3.415  14.259  19.121  0.00  0.00    +0.000 A 
ATOM     25  C   UNL     1       4.187  14.690  18.041  0.00  0.00    +0.000 A 
ATOM     26  C   UNL     1       5.358  15.371  18.308  0.00  0.00    +0.000 A 
ATOM     27  N   UNL     1       5.797  15.665  19.549  0.00  0.00    +0.000 NA
ATOM     28  C   UNL     1       5.026  15.267  20.573  0.00  0.00    +0.000 A 
ATOM     29  C   UNL     1       3.837  14.572  20.418  0.00  0.00    +0.000 A 
ENDBRANCH  22  24
ENDBRANCH   3  19
TORSDOF 4
ENDMDL
MODEL 7
REMARK VINA RESULT:      -7.8      4.089      8.138
REMARK  Name = 
REMARK  5 active torsions:
REMARK  status: ('A' for Active; 'I' for Inactive)
REMARK    1  A    between atoms: C_1  and  O_2
REMARK    2  A    between atoms: O_2  and  C_3
REMARK    3  A    between atoms: C_6  and  C_7
REMARK    4  A    between atoms: C_9  and  C_10
REMARK    5  A    between atoms: C_13  and  C_14
REMARK                            x       y       z     vdW  Elec       q    Type
REMARK                         _______ _______ _______ _____ _____    ______ ____
ROOT
ATOM      1  C   UNL     1      -1.774  12.008  18.830  0.00  0.00    +0.000 A 
ATOM      2  C   UNL     1      -1.011  10.887  18.553  0.00  0.00    +0.000 A 
ATOM      3  C   UNL     1       0.356  10.966  18.747  0.00  0.00    +0.000 A 
ATOM      4  C   UNL     1       0.970  12.203  18.645  0.00  0.00    +0.000 A 
ATOM      5  C   UNL     1       2.338  12.317  18.328  0.00  0.00    +0.000 A 
ATOM      6  C   UNL     1       2.947  13.556  18.316  0.00  0.00    +0.000 A 
ATOM      7  C   UNL     1       2.198  14.672  18.670  0.00  0.00    +0.000 A 
ATOM      8  C   UNL     1       0.829  14.546  18.958  0.00  0.00    +0.000 A 
ATOM      9  C   UNL     1       0.165  13.323  18.884  0.00  0.00    +0.000 A 
ATOM     10  N   UNL     1      -1.181  13.212  19.055  0.00  0.00    +0.000 NA
ENDROOT
BRANCH   1  14
ATOM     11  C   UNL     1      -6.033  11.444  19.276  0.00  0.00    +0.000 A 
ATOM     12  C   UNL     1      -5.344  12.282  20.138  0.00  0.00    +0.000 A 
ATOM     13  C   UNL     1      -3.984  12.528  19.941  0.00  0.00    +0.000 A 
ATOM     14  C   UNL     1      -3.254  11.908  18.903  0.00  0.00    +0.000 A 
ATOM     15  C   UNL     1      -3.991  11.148  17.988  0.00  0.00    +0.000 A 
ATOM     16  C   UNL     1      -5.362  10.915  18.170  0.00  0.00    +0.000 A 
BRANCH  11  18
ATOM     17  C   UNL     1      -7.708  11.595  20.942  0.00  0.00    +0.000 C 
ATOM     18  O   UNL     1      -7.330  11.216  19.627  0.00  0.00    +0.000 OA
ENDBRANCH  11  18
ENDBRANCH   1  14
BRANCH   3  19
ATOM     19  C   UNL     1       0.998   9.930  19.548  0.00  0.00    +0.000 A 
ATOM     20  N   UNL     1       0.806   9.635  20.819  0.00  0.00    +0.000 NA
ATOM     21  N   UNL     1       1.289   8.360  21.008  0.00  0.00    +0.000 NA
ATOM     22  C   UNL     1       1.753   7.967  19.843  0.00  0.00    +0.000 A 
ATOM     23  O   UNL     1       1.610   8.913  18.865  0.00  0.00    +0.000 OA
BRANCH  22  24
ATOM     24  C   UNL     1       2.402   6.726  19.462  0.00  0.00    +0.000 A 
ATOM     25  C   UNL     1       2.285   5.595  20.273  0.00  0.00    +0.000 A 
ATOM     26  C   UNL     1       2.973   4.456  19.906  0.00  0.00    +0.000 A 
ATOM     27  N   UNL     1       3.738   4.357  18.801  0.00  0.00    +0.000 NA
ATOM     28  C   UNL     1       3.815   5.446  18.019  0.00  0.00    +0.000 A 
ATOM     29  C   UNL     1       3.172   6.641  18.297  0.00  0.00    +0.000 A 
ENDBRANCH  22  24
ENDBRANCH   3  19
TORSDOF 4
ENDMDL
MODEL 8
REMARK VINA RESULT:      -7.8      3.988      9.546
REMARK  Name = 
REMARK  5 active torsions:
REMARK  status: ('A' for Active; 'I' for Inactive)
REMARK    1  A    between atoms: C_1  and  O_2
REMARK    2  A    between atoms: O_2  and  C_3
REMARK    3  A    between atoms: C_6  and  C_7
REMARK    4  A    between atoms: C_9  and  C_10
REMARK    5  A    between atoms: C_13  and  C_14
REMARK                            x       y       z     vdW  Elec       q    Type
REMARK                         _______ _______ _______ _____ _____    ______ ____
ROOT
ATOM      1  C   UNL     1       1.933   8.278  18.991  0.00  0.00    +0.000 A 
ATOM      2  C   UNL     1       1.512   9.433  18.355  0.00  0.00    +0.000 A 
ATOM      3  C   UNL     1       1.085  10.488  19.140  0.00  0.00    +0.000 A 
ATOM      4  C   UNL     1       0.559  10.215  20.391  0.00  0.00    +0.000 A 
ATOM      5  C   UNL     1      -0.329  11.108  21.024  0.00  0.00    +0.000 A 
ATOM      6  C   UNL     1      -0.773  10.854  22.306  0.00  0.00    +0.000 A 
ATOM      7  C   UNL     1      -0.288   9.734  22.971  0.00  0.00    +0.000 A 
ATOM      8  C   UNL     1       0.577   8.839  22.318  0.00  0.00    +0.000 A 
ATOM      9  C   UNL     1       0.964   9.017  20.992  0.00  0.00    +0.000 A 
ATOM     10  N   UNL     1       1.713   8.099  20.321  0.00  0.00    +0.000 NA
ENDROOT
BRANCH   1  14
ATOM     11  C   UNL     1       4.201   5.136  17.082  0.00  0.00    +0.000 A 
ATOM     12  C   UNL     1       3.016   4.844  17.740  0.00  0.00    +0.000 A 
ATOM     13  C   UNL     1       2.243   5.871  18.284  0.00  0.00    +0.000 A 
ATOM     14  C   UNL     1       2.650   7.223  18.230  0.00  0.00    +0.000 A 
ATOM     15  C   UNL     1       3.794   7.502  17.475  0.00  0.00    +0.000 A 
ATOM     16  C   UNL     1       4.563   6.475  16.909  0.00  0.00    +0.000 A 
BRANCH  11  18
ATOM     17  C   UNL     1       6.252   4.262  16.285  0.00  0.00    +0.000 C 
ATOM     18  O   UNL     1       4.904   4.042  16.675  0.00  0.00    +0.000 OA
ENDBRANCH  11  18
ENDBRANCH   1  14
BRANCH   3  19
ATOM     19  C   UNL     1       1.665  11.805  18.898  0.00  0.00    +0.000 A 
ATOM     20  N   UNL     1       2.627  12.138  18.060  0.00  0.00    +0.000 NA
ATOM     21  N   UNL     1       2.535  13.499  17.871  0.00  0.00    +0.000 NA
ATOM     22  C   UNL     1       1.529  13.905  18.612  0.00  0.00    +0.000 A 
ATOM     23  O   UNL     1       0.928  12.887  19.301  0.00  0.00    +0.000 OA
BRANCH  22  24
ATOM     24  C   UNL     1       0.999  15.240  18.823  0.00  0.00    +0.000 A 
ATOM     25  C   UNL     1      -0.367  15.426  19.041  0.00  0.00    +0.000 A 
ATOM     26  C   UNL     1      -0.836  16.718  19.172  0.00  0.00    +0.000 A 
ATOM     27  N   UNL     1      -0.055  17.815  19.121  0.00  0.00    +0.000 NA
ATOM     28  C   UNL     1       1.259  17.614  18.938  0.00  0.00    +0.000 A 
ATOM     29  C   UNL     1       1.833  16.362  18.789  0.00  0.00    +0.000 A 
ENDBRANCH  22  24
ENDBRANCH   3  19
TORSDOF 4
ENDMDL
MODEL 9
REMARK VINA RESULT:      -7.7      4.157      8.113
REMARK  Name = 
REMARK  5 active torsions:
REMARK  status: ('A' for Active; 'I' for Inactive)
REMARK    1  A    between atoms: C_1  and  O_2
REMARK    2  A    between atoms: O_2  and  C_3
REMARK    3  A    between atoms: C_6  and  C_7
REMARK    4  A    between atoms: C_9  and  C_10
REMARK    5  A    between atoms: C_13  and  C_14
REMARK                            x       y       z     vdW  Elec       q    Type
REMARK                         _______ _______ _______ _____ _____    ______ ____
ROOT
ATOM      1  C   UNL     1      -1.676  11.900  18.635  0.00  0.00    +0.000 A 
ATOM      2  C   UNL     1      -0.916  10.771  18.381  0.00  0.00    +0.000 A 
ATOM      3  C   UNL     1       0.445  10.837  18.617  0.00  0.00    +0.000 A 
ATOM      4  C   UNL     1       1.075  12.067  18.533  0.00  0.00    +0.000 A 
ATOM      5  C   UNL     1       2.453  12.167  18.259  0.00  0.00    +0.000 A 
ATOM      6  C   UNL     1       3.074  13.400  18.264  0.00  0.00    +0.000 A 
ATOM      7  C   UNL     1       2.326  14.523  18.596  0.00  0.00    +0.000 A 
ATOM      8  C   UNL     1       0.947  14.411  18.842  0.00  0.00    +0.000 A 
ATOM      9  C   UNL     1       0.274  13.196  18.747  0.00  0.00    +0.000 A 
ATOM     10  N   UNL     1      -1.077  13.098  18.878  0.00  0.00    +0.000 NA
ENDROOT
BRANCH   1  14
ATOM     11  C   UNL     1      -5.993  11.958  18.520  0.00  0.00    +0.000 A 
ATOM     12  C   UNL     1      -5.274  11.338  17.510  0.00  0.00    +0.000 A 
ATOM     13  C   UNL     1      -3.883  11.247  17.591  0.00  0.00    +0.000 A 
ATOM     14  C   UNL     1      -3.158  11.814  18.663  0.00  0.00    +0.000 A 
ATOM     15  C   UNL     1      -3.910  12.344  19.717  0.00  0.00    +0.000 A 
ATOM     16  C   UNL     1      -5.309  12.419  19.649  0.00  0.00    +0.000 A 
BRANCH  11  18
ATOM     17  C   UNL     1      -7.915  13.339  18.467  0.00  0.00    +0.000 C 
ATOM     18  O   UNL     1      -7.331  12.058  18.280  0.00  0.00    +0.000 OA
ENDBRANCH  11  18
ENDBRANCH   1  14
BRANCH   3  19
ATOM     19  C   UNL     1       1.053   9.795  19.437  0.00  0.00    +0.000 A 
ATOM     20  N   UNL     1       0.782   9.468  20.686  0.00  0.00    +0.000 NA
ATOM     21  N   UNL     1       1.276   8.198  20.880  0.00  0.00    +0.000 NA
ATOM     22  C   UNL     1       1.823   7.838  19.741  0.00  0.00    +0.000 A 
ATOM     23  O   UNL     1       1.727   8.804  18.775  0.00  0.00    +0.000 OA
BRANCH  22  24
ATOM     24  C   UNL     1       2.520   6.618  19.379  0.00  0.00    +0.000 A 
ATOM     25  C   UNL     1       3.158   6.515  18.142  0.00  0.00    +0.000 A 
ATOM     26  C   UNL     1       3.752   5.312  17.813  0.00  0.00    +0.000 A 
ATOM     27  N   UNL     1       3.772   4.232  18.620  0.00  0.00    +0.000 NA
ATOM     28  C   UNL     1       3.177   4.361  19.817  0.00  0.00    +0.000 A 
ATOM     29  C   UNL     1       2.546   5.518  20.243  0.00  0.00    +0.000 A 
ENDBRANCH  22  24
ENDBRANCH   3  19
TORSDOF 4
ENDMDL
