MODEL 1
REMARK VINA RESULT:      -7.3      0.000      0.000
REMARK  Name = 
REMARK  8 active torsions:
REMARK  status: ('A' for Active; 'I' for Inactive)
REMARK    1  A    between atoms: C_1  and  O_2
REMARK    2  A    between atoms: O_2  and  C_3
REMARK    3  A    between atoms: N_8  and  C_9
REMARK    4  A    between atoms: C_9  and  C_10
REMARK    5  A    between atoms: C_10  and  N_11
REMARK    6  A    between atoms: N_11  and  C_12
REMARK    7  A    between atoms: N_11  and  C_13
REMARK    8  A    between atoms: C_26  and  O_27
REMARK                            x       y       z     vdW  Elec       q    Type
REMARK                         _______ _______ _______ _____ _____    ______ ____
ROOT
ATOM      1  C   UNL     1       2.665   6.538  19.005  0.00  0.00    +0.000 A 
ATOM      2  C   UNL     1       2.387   7.797  18.444  0.00  0.00    +0.000 A 
ATOM      3  C   UNL     1       1.635   8.772  19.143  0.00  0.00    +0.000 A 
ATOM      4  C   UNL     1       1.331  10.083  18.524  0.00  0.00    +0.000 A 
ATOM      5  O   UNL     1       1.789  10.296  17.400  0.00  0.00    +0.000 OA
ATOM      6  N   UNL     1       0.526  11.024  19.223  0.00  0.00    +0.000 N 
ATOM      7  C   UNL     1       0.031  10.795  20.579  0.00  0.00    +0.000 A 
ATOM      8  C   UNL     1      -0.781  11.748  21.388  0.00  0.00    +0.000 A 
ATOM      9  C   UNL     1      -1.222  13.102  21.128  0.00  0.00    +0.000 A 
ATOM     10  C   UNL     1      -2.009  13.807  22.043  0.00  0.00    +0.000 A 
ATOM     11  C   UNL     1      -2.409  13.254  23.223  0.00  0.00    +0.000 A 
ATOM     12  C   UNL     1      -2.024  11.998  23.567  0.00  0.00    +0.000 A 
ATOM     13  C   UNL     1      -1.217  11.280  22.683  0.00  0.00    +0.000 A 
ATOM     14  C   UNL     1      -0.848  10.057  23.187  0.00  0.00    +0.000 A 
ATOM     15  C   UNL     1      -0.065   9.213  22.444  0.00  0.00    +0.000 A 
ATOM     16  C   UNL     1       0.372   9.528  21.148  0.00  0.00    +0.000 A 
ATOM     17  C   UNL     1       1.153   8.510  20.419  0.00  0.00    +0.000 A 
ATOM     18  C   UNL     1       1.451   7.234  20.960  0.00  0.00    +0.000 A 
ATOM     19  C   UNL     1       2.198   6.274  20.285  0.00  0.00    +0.000 A 
ATOM     20  O   UNL     1      -3.167  14.074  23.991  0.00  0.00    +0.000 OA
ATOM     21  C   UNL     1      -3.081  15.284  23.222  0.00  0.00    +0.000 C 
ATOM     22  O   UNL     1      -2.466  15.088  21.924  0.00  0.00    +0.000 OA
ENDROOT
BRANCH   1  24
ATOM     23  C   UNL     1       4.845   5.850  18.344  0.00  0.00    +0.000 C 
ATOM     24  O   UNL     1       3.430   5.707  18.231  0.00  0.00    +0.000 OA
ENDBRANCH   1  24
BRANCH  19  25
ATOM     25  O   UNL     1       2.463   5.099  20.934  0.00  0.00    +0.000 OA
ATOM     26  H   UNL     1       2.205   4.343  20.382  0.00  0.00    +0.000 HD
ENDBRANCH  19  25
BRANCH   6  27
ATOM     27  C   UNL     1       0.215  12.225  18.444  0.00  0.00    +0.000 C 
BRANCH  27  28
ATOM     28  C   UNL     1      -1.125  12.131  17.671  0.00  0.00    +0.000 C 
BRANCH  28  29
ATOM     29  N   UNL     1      -1.954  10.950  18.019  0.00  0.00    +0.000 NA
ATOM     30  C   UNL     1      -3.316  11.373  18.369  0.00  0.00    +0.000 C 
ATOM     31  C   UNL     1      -2.025   9.991  16.912  0.00  0.00    +0.000 C 
ENDBRANCH  28  29
ENDBRANCH  27  28
ENDBRANCH   6  27
TORSDOF 5
ENDMDL
MODEL 2
REMARK VINA RESULT:      -7.1      1.153      2.146
REMARK  Name = 
REMARK  8 active torsions:
REMARK  status: ('A' for Active; 'I' for Inactive)
REMARK    1  A    between atoms: C_1  and  O_2
REMARK    2  A    between atoms: O_2  and  C_3
REMARK    3  A    between atoms: N_8  and  C_9
REMARK    4  A    between atoms: C_9  and  C_10
REMARK    5  A    between atoms: C_10  and  N_11
REMARK    6  A    between atoms: N_11  and  C_12
REMARK    7  A    between atoms: N_11  and  C_13
REMARK    8  A    between atoms: C_26  and  O_27
REMARK                            x       y       z     vdW  Elec       q    Type
REMARK                         _______ _______ _______ _____ _____    ______ ____
ROOT
ATOM      1  C   UNL     1       2.721   6.712  18.941  0.00  0.00    +0.000 A 
ATOM      2  C   UNL     1       2.431   7.974  18.394  0.00  0.00    +0.000 A 
ATOM      3  C   UNL     1       1.657   8.929  19.098  0.00  0.00    +0.000 A 
ATOM      4  C   UNL     1       1.339  10.244  18.494  0.00  0.00    +0.000 A 
ATOM      5  O   UNL     1       1.806  10.478  17.377  0.00  0.00    +0.000 OA
ATOM      6  N   UNL     1       0.514  11.163  19.196  0.00  0.00    +0.000 N 
ATOM      7  C   UNL     1       0.010  10.909  20.545  0.00  0.00    +0.000 A 
ATOM      8  C   UNL     1      -0.825  11.838  21.358  0.00  0.00    +0.000 A 
ATOM      9  C   UNL     1      -1.282  13.190  21.111  0.00  0.00    +0.000 A 
ATOM     10  C   UNL     1      -2.090  13.870  22.027  0.00  0.00    +0.000 A 
ATOM     11  C   UNL     1      -2.493  13.296  23.195  0.00  0.00    +0.000 A 
ATOM     12  C   UNL     1      -2.093  12.042  23.527  0.00  0.00    +0.000 A 
ATOM     13  C   UNL     1      -1.266  11.348  22.641  0.00  0.00    +0.000 A 
ATOM     14  C   UNL     1      -0.884  10.123  23.133  0.00  0.00    +0.000 A 
ATOM     15  C   UNL     1      -0.082   9.300  22.387  0.00  0.00    +0.000 A 
ATOM     16  C   UNL     1       0.363   9.639  21.100  0.00  0.00    +0.000 A 
ATOM     17  C   UNL     1       1.167   8.643  20.365  0.00  0.00    +0.000 A 
ATOM     18  C   UNL     1       1.478   7.364  20.892  0.00  0.00    +0.000 A 
ATOM     19  C   UNL     1       2.245   6.424  20.212  0.00  0.00    +0.000 A 
ATOM     20  O   UNL     1      -3.270  14.094  23.967  0.00  0.00    +0.000 OA
ATOM     21  C   UNL     1      -3.195  15.316  23.215  0.00  0.00    +0.000 C 
ATOM     22  O   UNL     1      -2.564  15.146  21.921  0.00  0.00    +0.000 OA
ENDROOT
BRANCH   1  24
ATOM     23  C   UNL     1       4.404   6.553  17.267  0.00  0.00    +0.000 C 
ATOM     24  O   UNL     1       3.506   5.902  18.164  0.00  0.00    +0.000 OA
ENDBRANCH   1  24
BRANCH  19  25
ATOM     25  O   UNL     1       2.521   5.245  20.849  0.00  0.00    +0.000 OA
ATOM     26  H   UNL     1       2.390   4.496  20.244  0.00  0.00    +0.000 HD
ENDBRANCH  19  25
BRANCH   6  27
ATOM     27  C   UNL     1       0.194  12.370  18.431  0.00  0.00    +0.000 C 
BRANCH  27  28
ATOM     28  C   UNL     1       1.060  13.596  18.817  0.00  0.00    +0.000 C 
BRANCH  28  29
ATOM     29  N   UNL     1       2.427  13.259  19.287  0.00  0.00    +0.000 NA
ATOM     30  C   UNL     1       3.430  13.923  18.444  0.00  0.00    +0.000 C 
ATOM     31  C   UNL     1       2.638  13.661  20.681  0.00  0.00    +0.000 C 
ENDBRANCH  28  29
ENDBRANCH  27  28
ENDBRANCH   6  27
TORSDOF 5
ENDMDL
MODEL 3
REMARK VINA RESULT:      -7.0      1.405      2.155
REMARK  Name = 
REMARK  8 active torsions:
REMARK  status: ('A' for Active; 'I' for Inactive)
REMARK    1  A    between atoms: C_1  and  O_2
REMARK    2  A    between atoms: O_2  and  C_3
REMARK    3  A    between atoms: N_8  and  C_9
REMARK    4  A    between atoms: C_9  and  C_10
REMARK    5  A    between atoms: C_10  and  N_11
REMARK    6  A    between atoms: N_11  and  C_12
REMARK    7  A    between atoms: N_11  and  C_13
REMARK    8  A    between atoms: C_26  and  O_27
REMARK                            x       y       z     vdW  Elec       q    Type
REMARK                         _______ _______ _______ _____ _____    ______ ____
ROOT
ATOM      1  C   UNL     1       2.714   6.064  18.897  0.00  0.00    +0.000 A 
ATOM      2  C   UNL     1       2.622   7.372  18.390  0.00  0.00    +0.000 A 
ATOM      3  C   UNL     1       1.941   8.395  19.094  0.00  0.00    +0.000 A 
ATOM      4  C   UNL     1       1.832   9.761  18.530  0.00  0.00    +0.000 A 
ATOM      5  O   UNL     1       2.389   9.971  17.450  0.00  0.00    +0.000 OA
ATOM      6  N   UNL     1       1.095  10.756  19.227  0.00  0.00    +0.000 N 
ATOM      7  C   UNL     1       0.485  10.524  20.535  0.00  0.00    +0.000 A 
ATOM      8  C   UNL     1      -0.266  11.526  21.343  0.00  0.00    +0.000 A 
ATOM      9  C   UNL     1      -0.529  12.934  21.130  0.00  0.00    +0.000 A 
ATOM     10  C   UNL     1      -1.292  13.683  22.031  0.00  0.00    +0.000 A 
ATOM     11  C   UNL     1      -1.833  13.126  23.151  0.00  0.00    +0.000 A 
ATOM     12  C   UNL     1      -1.619  11.819  23.449  0.00  0.00    +0.000 A 
ATOM     13  C   UNL     1      -0.841  11.053  22.579  0.00  0.00    +0.000 A 
ATOM     14  C   UNL     1      -0.651   9.772  23.037  0.00  0.00    +0.000 A 
ATOM     15  C   UNL     1       0.080   8.877  22.300  0.00  0.00    +0.000 A 
ATOM     16  C   UNL     1       0.637   9.200  21.053  0.00  0.00    +0.000 A 
ATOM     17  C   UNL     1       1.345   8.132  20.320  0.00  0.00    +0.000 A 
ATOM     18  C   UNL     1       1.456   6.806  20.808  0.00  0.00    +0.000 A 
ATOM     19  C   UNL     1       2.132   5.797  20.129  0.00  0.00    +0.000 A 
ATOM     20  O   UNL     1      -2.542  13.993  23.914  0.00  0.00    +0.000 OA
ATOM     21  C   UNL     1      -2.265  15.219  23.221  0.00  0.00    +0.000 C 
ATOM     22  O   UNL     1      -1.589  15.013  21.955  0.00  0.00    +0.000 OA
ENDROOT
BRANCH   1  24
ATOM     23  C   UNL     1       4.476   5.738  17.332  0.00  0.00    +0.000 C 
ATOM     24  O   UNL     1       3.430   5.186  18.129  0.00  0.00    +0.000 OA
ENDBRANCH   1  24
BRANCH  19  25
ATOM     25  O   UNL     1       2.215   4.570  20.728  0.00  0.00    +0.000 OA
ATOM     26  H   UNL     1       2.969   4.071  20.372  0.00  0.00    +0.000 HD
ENDBRANCH  19  25
BRANCH   6  27
ATOM     27  C   UNL     1       0.979  12.022  18.498  0.00  0.00    +0.000 C 
BRANCH  27  28
ATOM     28  C   UNL     1       2.144  13.005  18.777  0.00  0.00    +0.000 C 
BRANCH  28  29
ATOM     29  N   UNL     1       2.009  14.323  18.109  0.00  0.00    +0.000 NA
ATOM     30  C   UNL     1       1.235  15.243  18.953  0.00  0.00    +0.000 C 
ATOM     31  C   UNL     1       3.316  14.926  17.826  0.00  0.00    +0.000 C 
ENDBRANCH  28  29
ENDBRANCH  27  28
ENDBRANCH   6  27
TORSDOF 5
ENDMDL
MODEL 4
REMARK VINA RESULT:      -6.8      3.319      6.358
REMARK  Name = 
REMARK  8 active torsions:
REMARK  status: ('A' for Active; 'I' for Inactive)
REMARK    1  A    between atoms: C_1  and  O_2
REMARK    2  A    between atoms: O_2  and  C_3
REMARK    3  A    between atoms: N_8  and  C_9
REMARK    4  A    between atoms: C_9  and  C_10
REMARK    5  A    between atoms: C_10  and  N_11
REMARK    6  A    between atoms: N_11  and  C_12
REMARK    7  A    between atoms: N_11  and  C_13
REMARK    8  A    between atoms: C_26  and  O_27
REMARK                            x       y       z     vdW  Elec       q    Type
REMARK                         _______ _______ _______ _____ _____    ______ ____
ROOT
ATOM      1  C   UNL     1       5.771   4.587  15.652  0.00  0.00    +0.000 A 
ATOM      2  C   UNL     1       5.152   4.173  16.845  0.00  0.00    +0.000 A 
ATOM      3  C   UNL     1       4.329   5.046  17.597  0.00  0.00    +0.000 A 
ATOM      4  C   UNL     1       3.707   4.598  18.865  0.00  0.00    +0.000 A 
ATOM      5  O   UNL     1       3.908   3.432  19.210  0.00  0.00    +0.000 OA
ATOM      6  N   UNL     1       2.931   5.510  19.631  0.00  0.00    +0.000 N 
ATOM      7  C   UNL     1       2.645   6.875  19.193  0.00  0.00    +0.000 A 
ATOM      8  C   UNL     1       1.810   7.872  19.920  0.00  0.00    +0.000 A 
ATOM      9  C   UNL     1       1.032   7.774  21.137  0.00  0.00    +0.000 A 
ATOM     10  C   UNL     1       0.333   8.870  21.652  0.00  0.00    +0.000 A 
ATOM     11  C   UNL     1       0.352  10.087  21.040  0.00  0.00    +0.000 A 
ATOM     12  C   UNL     1       1.032  10.269  19.879  0.00  0.00    +0.000 A 
ATOM     13  C   UNL     1       1.720   9.186  19.330  0.00  0.00    +0.000 A 
ATOM     14  C   UNL     1       2.304   9.494  18.125  0.00  0.00    +0.000 A 
ATOM     15  C   UNL     1       3.032   8.550  17.450  0.00  0.00    +0.000 A 
ATOM     16  C   UNL     1       3.243   7.256  17.951  0.00  0.00    +0.000 A 
ATOM     17  C   UNL     1       4.103   6.347  17.167  0.00  0.00    +0.000 A 
ATOM     18  C   UNL     1       4.737   6.736  15.961  0.00  0.00    +0.000 A 
ATOM     19  C   UNL     1       5.539   5.882  15.210  0.00  0.00    +0.000 A 
ATOM     20  O   UNL     1      -0.380  11.037  21.671  0.00  0.00    +0.000 OA
ATOM     21  C   UNL     1      -0.998  10.238  22.692  0.00  0.00    +0.000 C 
ATOM     22  O   UNL     1      -0.449   8.899  22.771  0.00  0.00    +0.000 OA
ENDROOT
BRANCH   1  24
ATOM     23  C   UNL     1       6.271   3.464  13.615  0.00  0.00    +0.000 C 
ATOM     24  O   UNL     1       6.511   3.630  15.011  0.00  0.00    +0.000 OA
ENDBRANCH   1  24
BRANCH  19  25
ATOM     25  O   UNL     1       6.053   6.359  14.035  0.00  0.00    +0.000 OA
ATOM     26  H   UNL     1       6.019   5.672  13.349  0.00  0.00    +0.000 HD
ENDBRANCH  19  25
BRANCH   6  27
ATOM     27  C   UNL     1       2.475   4.963  20.911  0.00  0.00    +0.000 C 
BRANCH  27  28
ATOM     28  C   UNL     1       1.060   4.334  20.846  0.00  0.00    +0.000 C 
BRANCH  28  29
ATOM     29  N   UNL     1       1.035   2.860  21.011  0.00  0.00    +0.000 NA
ATOM     30  C   UNL     1       0.997   2.204  19.697  0.00  0.00    +0.000 C 
ATOM     31  C   UNL     1       2.206   2.375  21.749  0.00  0.00    +0.000 C 
ENDBRANCH  28  29
ENDBRANCH  27  28
ENDBRANCH   6  27
TORSDOF 5
ENDMDL
MODEL 5
REMARK VINA RESULT:      -6.8      2.915      7.864
REMARK  Name = 
REMARK  8 active torsions:
REMARK  status: ('A' for Active; 'I' for Inactive)
REMARK    1  A    between atoms: C_1  and  O_2
REMARK    2  A    between atoms: O_2  and  C_3
REMARK    3  A    between atoms: N_8  and  C_9
REMARK    4  A    between atoms: C_9  and  C_10
REMARK    5  A    between atoms: C_10  and  N_11
REMARK    6  A    between atoms: N_11  and  C_12
REMARK    7  A    between atoms: N_11  and  C_13
REMARK    8  A    between atoms: C_26  and  O_27
REMARK                            x       y       z     vdW  Elec       q    Type
REMARK                         _______ _______ _______ _____ _____    ______ ____
ROOT
ATOM      1  C   UNL     1      -2.913  14.553  24.582  0.00  0.00    +0.000 A 
ATOM      2  C   UNL     1      -1.892  13.932  23.840  0.00  0.00    +0.000 A 
ATOM      3  C   UNL     1      -2.129  13.405  22.548  0.00  0.00    +0.000 A 
ATOM      4  C   UNL     1      -1.047  12.730  21.793  0.00  0.00    +0.000 A 
ATOM      5  O   UNL     1       0.065  12.684  22.324  0.00  0.00    +0.000 OA
ATOM      6  N   UNL     1      -1.323  12.159  20.522  0.00  0.00    +0.000 N 
ATOM      7  C   UNL     1      -2.626  12.264  19.868  0.00  0.00    +0.000 A 
ATOM      8  C   UNL     1      -2.978  11.727  18.523  0.00  0.00    +0.000 A 
ATOM      9  C   UNL     1      -2.183  11.064  17.511  0.00  0.00    +0.000 A 
ATOM     10  C   UNL     1      -2.744  10.620  16.310  0.00  0.00    +0.000 A 
ATOM     11  C   UNL     1      -4.069  10.781  16.033  0.00  0.00    +0.000 A 
ATOM     12  C   UNL     1      -4.889  11.415  16.910  0.00  0.00    +0.000 A 
ATOM     13  C   UNL     1      -4.350  11.890  18.106  0.00  0.00    +0.000 A 
ATOM     14  C   UNL     1      -5.274  12.568  18.864  0.00  0.00    +0.000 A 
ATOM     15  C   UNL     1      -4.920  13.092  20.079  0.00  0.00    +0.000 A 
ATOM     16  C   UNL     1      -3.633  12.946  20.620  0.00  0.00    +0.000 A 
ATOM     17  C   UNL     1      -3.388  13.494  21.969  0.00  0.00    +0.000 A 
ATOM     18  C   UNL     1      -4.396  14.128  22.738  0.00  0.00    +0.000 A 
ATOM     19  C   UNL     1      -4.171  14.658  24.004  0.00  0.00    +0.000 A 
ATOM     20  O   UNL     1      -4.446  10.294  14.827  0.00  0.00    +0.000 OA
ATOM     21  C   UNL     1      -3.164   9.929  14.293  0.00  0.00    +0.000 C 
ATOM     22  O   UNL     1      -2.100  10.006  15.275  0.00  0.00    +0.000 OA
ENDROOT
BRANCH   1  24
ATOM     23  C   UNL     1      -1.451  15.973  25.809  0.00  0.00    +0.000 C 
ATOM     24  O   UNL     1      -2.535  15.047  25.802  0.00  0.00    +0.000 OA
ENDBRANCH   1  24
BRANCH  19  25
ATOM     25  O   UNL     1      -5.213  15.292  24.625  0.00  0.00    +0.000 OA
ATOM     26  H   UNL     1      -5.230  16.231  24.379  0.00  0.00    +0.000 HD
ENDBRANCH  19  25
BRANCH   6  27
ATOM     27  C   UNL     1      -0.190  11.429  19.946  0.00  0.00    +0.000 C 
BRANCH  27  28
ATOM     28  C   UNL     1      -0.240   9.903  20.209  0.00  0.00    +0.000 C 
BRANCH  28  29
ATOM     29  N   UNL     1       0.557   9.454  21.378  0.00  0.00    +0.000 NA
ATOM     30  C   UNL     1      -0.328   9.167  22.515  0.00  0.00    +0.000 C 
ATOM     31  C   UNL     1       1.342   8.253  21.073  0.00  0.00    +0.000 C 
ENDBRANCH  28  29
ENDBRANCH  27  28
ENDBRANCH   6  27
TORSDOF 5
ENDMDL
MODEL 6
REMARK VINA RESULT:      -6.7      1.639      2.399
REMARK  Name = 
REMARK  8 active torsions:
REMARK  status: ('A' for Active; 'I' for Inactive)
REMARK    1  A    between atoms: C_1  and  O_2
REMARK    2  A    between atoms: O_2  and  C_3
REMARK    3  A    between atoms: N_8  and  C_9
REMARK    4  A    between atoms: C_9  and  C_10
REMARK    5  A    between atoms: C_10  and  N_11
REMARK    6  A    between atoms: N_11  and  C_12
REMARK    7  A    between atoms: N_11  and  C_13
REMARK    8  A    between atoms: C_26  and  O_27
REMARK                            x       y       z     vdW  Elec       q    Type
REMARK                         _______ _______ _______ _____ _____    ______ ____
ROOT
ATOM      1  C   UNL     1       3.213   5.271  18.571  0.00  0.00    +0.000 A 
ATOM      2  C   UNL     1       3.048   6.562  18.039  0.00  0.00    +0.000 A 
ATOM      3  C   UNL     1       2.348   7.572  18.743  0.00  0.00    +0.000 A 
ATOM      4  C   UNL     1       2.162   8.918  18.153  0.00  0.00    +0.000 A 
ATOM      5  O   UNL     1       2.671   9.125  17.049  0.00  0.00    +0.000 OA
ATOM      6  N   UNL     1       1.407   9.898  18.854  0.00  0.00    +0.000 N 
ATOM      7  C   UNL     1       0.853   9.671  20.187  0.00  0.00    +0.000 A 
ATOM      8  C   UNL     1       0.088  10.660  20.999  0.00  0.00    +0.000 A 
ATOM      9  C   UNL     1      -0.242  12.050  20.764  0.00  0.00    +0.000 A 
ATOM     10  C   UNL     1      -1.005  12.787  21.675  0.00  0.00    +0.000 A 
ATOM     11  C   UNL     1      -1.483  12.235  22.825  0.00  0.00    +0.000 A 
ATOM     12  C   UNL     1      -1.203  10.946  23.145  0.00  0.00    +0.000 A 
ATOM     13  C   UNL     1      -0.423  10.193  22.265  0.00  0.00    +0.000 A 
ATOM     14  C   UNL     1      -0.163   8.932  22.744  0.00  0.00    +0.000 A 
ATOM     15  C   UNL     1       0.579   8.051  22.002  0.00  0.00    +0.000 A 
ATOM     16  C   UNL     1       1.079   8.367  20.729  0.00  0.00    +0.000 A 
ATOM     17  C   UNL     1       1.807   7.313  19.995  0.00  0.00    +0.000 A 
ATOM     18  C   UNL     1       1.991   6.005  20.508  0.00  0.00    +0.000 A 
ATOM     19  C   UNL     1       2.686   5.009  19.828  0.00  0.00    +0.000 A 
ATOM     20  O   UNL     1      -2.202  13.089  23.594  0.00  0.00    +0.000 OA
ATOM     21  C   UNL     1      -2.002  14.309  22.863  0.00  0.00    +0.000 C 
ATOM     22  O   UNL     1      -1.361  14.102  21.580  0.00  0.00    +0.000 OA
ENDROOT
BRANCH   1  24
ATOM     23  C   UNL     1       5.217   4.860  17.358  0.00  0.00    +0.000 C 
ATOM     24  O   UNL     1       3.939   4.406  17.798  0.00  0.00    +0.000 OA
ENDBRANCH   1  24
BRANCH  19  25
ATOM     25  O   UNL     1       2.842   3.801  20.451  0.00  0.00    +0.000 OA
ATOM     26  H   UNL     1       3.514   3.866  21.149  0.00  0.00    +0.000 HD
ENDBRANCH  19  25
BRANCH   6  27
ATOM     27  C   UNL     1       1.212  11.139  18.101  0.00  0.00    +0.000 C 
BRANCH  27  28
ATOM     28  C   UNL     1       2.456  12.065  18.101  0.00  0.00    +0.000 C 
BRANCH  28  29
ATOM     29  N   UNL     1       2.277  13.335  18.847  0.00  0.00    +0.000 NA
ATOM     30  C   UNL     1       3.367  14.266  18.530  0.00  0.00    +0.000 C 
ATOM     31  C   UNL     1       0.997  13.977  18.529  0.00  0.00    +0.000 C 
ENDBRANCH  28  29
ENDBRANCH  27  28
ENDBRANCH   6  27
TORSDOF 5
ENDMDL
MODEL 7
REMARK VINA RESULT:      -6.6      1.825      7.569
REMARK  Name = 
REMARK  8 active torsions:
REMARK  status: ('A' for Active; 'I' for Inactive)
REMARK    1  A    between atoms: C_1  and  O_2
REMARK    2  A    between atoms: O_2  and  C_3
REMARK    3  A    between atoms: N_8  and  C_9
REMARK    4  A    between atoms: C_9  and  C_10
REMARK    5  A    between atoms: C_10  and  N_11
REMARK    6  A    between atoms: N_11  and  C_12
REMARK    7  A    between atoms: N_11  and  C_13
REMARK    8  A    between atoms: C_26  and  O_27
REMARK                            x       y       z     vdW  Elec       q    Type
REMARK                         _______ _______ _______ _____ _____    ______ ____
ROOT
ATOM      1  C   UNL     1      -3.044  15.090  23.333  0.00  0.00    +0.000 A 
ATOM      2  C   UNL     1      -2.425  15.044  22.071  0.00  0.00    +0.000 A 
ATOM      3  C   UNL     1      -1.726  13.895  21.629  0.00  0.00    +0.000 A 
ATOM      4  C   UNL     1      -1.057  13.876  20.306  0.00  0.00    +0.000 A 
ATOM      5  O   UNL     1      -1.169  14.883  19.604  0.00  0.00    +0.000 OA
ATOM      6  N   UNL     1      -0.315  12.732  19.907  0.00  0.00    +0.000 N 
ATOM      7  C   UNL     1      -0.231  11.516  20.715  0.00  0.00    +0.000 A 
ATOM      8  C   UNL     1       0.493  10.267  20.346  0.00  0.00    +0.000 A 
ATOM      9  C   UNL     1       1.206   9.884  19.146  0.00  0.00    +0.000 A 
ATOM     10  C   UNL     1       1.838   8.642  19.031  0.00  0.00    +0.000 A 
ATOM     11  C   UNL     1       1.822   7.732  20.045  0.00  0.00    +0.000 A 
ATOM     12  C   UNL     1       1.157   7.990  21.200  0.00  0.00    +0.000 A 
ATOM     13  C   UNL     1       0.496   9.213  21.332  0.00  0.00    +0.000 A 
ATOM     14  C   UNL     1      -0.189   9.311  22.518  0.00  0.00    +0.000 A 
ATOM     15  C   UNL     1      -0.884  10.453  22.821  0.00  0.00    +0.000 A 
ATOM     16  C   UNL     1      -0.913  11.569  21.971  0.00  0.00    +0.000 A 
ATOM     17  C   UNL     1      -1.640  12.768  22.435  0.00  0.00    +0.000 A 
ATOM     18  C   UNL     1      -2.276  12.842  23.699  0.00  0.00    +0.000 A 
ATOM     19  C   UNL     1      -2.973  13.963  24.139  0.00  0.00    +0.000 A 
ATOM     20  O   UNL     1       2.482   6.581  19.768  0.00  0.00    +0.000 OA
ATOM     21  C   UNL     1       2.801   6.805  18.385  0.00  0.00    +0.000 C 
ATOM     22  O   UNL     1       2.517   8.158  17.951  0.00  0.00    +0.000 OA
ENDROOT
BRANCH   1  24
ATOM     23  C   UNL     1      -5.095  16.295  23.270  0.00  0.00    +0.000 C 
ATOM     24  O   UNL     1      -3.712  16.251  23.617  0.00  0.00    +0.000 OA
ENDBRANCH   1  24
BRANCH  19  25
ATOM     25  O   UNL     1      -3.589  13.893  25.359  0.00  0.00    +0.000 OA
ATOM     26  H   UNL     1      -4.366  14.475  25.378  0.00  0.00    +0.000 HD
ENDBRANCH  19  25
BRANCH   6  27
ATOM     27  C   UNL     1       0.383  12.899  18.630  0.00  0.00    +0.000 C 
BRANCH  27  28
ATOM     28  C   UNL     1       1.873  13.295  18.786  0.00  0.00    +0.000 C 
BRANCH  28  29
ATOM     29  N   UNL     1       2.140  14.749  18.657  0.00  0.00    +0.000 NA
ATOM     30  C   UNL     1       2.345  15.346  19.983  0.00  0.00    +0.000 C 
ATOM     31  C   UNL     1       3.322  15.014  17.830  0.00  0.00    +0.000 C 
ENDBRANCH  28  29
ENDBRANCH  27  28
ENDBRANCH   6  27
TORSDOF 5
ENDMDL
MODEL 8
REMARK VINA RESULT:      -6.5      1.741      7.559
REMARK  Name = 
REMARK  8 active torsions:
REMARK  status: ('A' for Active; 'I' for Inactive)
REMARK    1  A    between atoms: C_1  and  O_2
REMARK    2  A    between atoms: O_2  and  C_3
REMARK    3  A    between atoms: N_8  and  C_9
REMARK    4  A    between atoms: C_9  and  C_10
REMARK    5  A    between atoms: C_10  and  N_11
REMARK    6  A    between atoms: N_11  and  C_12
REMARK    7  A    between atoms: N_11  and  C_13
REMARK    8  A    between atoms: C_26  and  O_27
REMARK                            x       y       z     vdW  Elec       q    Type
REMARK                         _______ _______ _______ _____ _____    ______ ____
ROOT
ATOM      1  C   UNL     1      -3.776  14.458  23.750  0.00  0.00    +0.000 A 
ATOM      2  C   UNL     1      -3.194  14.642  22.483  0.00  0.00    +0.000 A 
ATOM      3  C   UNL     1      -2.368  13.653  21.895  0.00  0.00    +0.000 A 
ATOM      4  C   UNL     1      -1.742  13.876  20.571  0.00  0.00    +0.000 A 
ATOM      5  O   UNL     1      -2.001  14.936  19.996  0.00  0.00    +0.000 OA
ATOM      6  N   UNL     1      -0.873  12.892  20.026  0.00  0.00    +0.000 N 
ATOM      7  C   UNL     1      -0.612  11.611  20.680  0.00  0.00    +0.000 A 
ATOM      8  C   UNL     1       0.254  10.518  20.153  0.00  0.00    +0.000 A 
ATOM      9  C   UNL     1       0.973  10.375  18.905  0.00  0.00    +0.000 A 
ATOM     10  C   UNL     1       1.754   9.248  18.633  0.00  0.00    +0.000 A 
ATOM     11  C   UNL     1       1.884   8.230  19.530  0.00  0.00    +0.000 A 
ATOM     12  C   UNL     1       1.226   8.262  20.717  0.00  0.00    +0.000 A 
ATOM     13  C   UNL     1       0.420   9.365  21.005  0.00  0.00    +0.000 A 
ATOM     14  C   UNL     1      -0.237   9.234  22.204  0.00  0.00    +0.000 A 
ATOM     15  C   UNL     1      -1.062  10.232  22.651  0.00  0.00    +0.000 A 
ATOM     16  C   UNL     1      -1.257  11.428  21.943  0.00  0.00    +0.000 A 
ATOM     17  C   UNL     1      -2.116  12.459  22.558  0.00  0.00    +0.000 A 
ATOM     18  C   UNL     1      -2.718  12.301  23.831  0.00  0.00    +0.000 A 
ATOM     19  C   UNL     1      -3.538  13.263  24.413  0.00  0.00    +0.000 A 
ATOM     20  O   UNL     1       2.676   7.215  19.106  0.00  0.00    +0.000 OA
ATOM     21  C   UNL     1       2.923   7.639  17.756  0.00  0.00    +0.000 C 
ATOM     22  O   UNL     1       2.457   8.986  17.492  0.00  0.00    +0.000 OA
ENDROOT
BRANCH   1  24
ATOM     23  C   UNL     1      -5.950  15.424  23.799  0.00  0.00    +0.000 C 
ATOM     24  O   UNL     1      -4.577  15.482  24.181  0.00  0.00    +0.000 OA
ENDBRANCH   1  24
BRANCH  19  25
ATOM     25  O   UNL     1      -4.104  12.970  25.624  0.00  0.00    +0.000 OA
ATOM     26  H   UNL     1      -4.960  13.420  25.713  0.00  0.00    +0.000 HD
ENDBRANCH  19  25
BRANCH   6  27
ATOM     27  C   UNL     1      -0.241  13.298  18.768  0.00  0.00    +0.000 C 
BRANCH  27  28
ATOM     28  C   UNL     1       1.002  14.203  18.964  0.00  0.00    +0.000 C 
BRANCH  28  29
ATOM     29  N   UNL     1       2.249  13.472  19.302  0.00  0.00    +0.000 NA
ATOM     30  C   UNL     1       3.310  13.811  18.345  0.00  0.00    +0.000 C 
ATOM     31  C   UNL     1       2.713  13.786  20.657  0.00  0.00    +0.000 C 
ENDBRANCH  28  29
ENDBRANCH  27  28
ENDBRANCH   6  27
TORSDOF 5
ENDMDL
MODEL 9
REMARK VINA RESULT:      -6.5      3.994      5.875
REMARK  Name = 
REMARK  8 active torsions:
REMARK  status: ('A' for Active; 'I' for Inactive)
REMARK    1  A    between atoms: C_1  and  O_2
REMARK    2  A    between atoms: O_2  and  C_3
REMARK    3  A    between atoms: N_8  and  C_9
REMARK    4  A    between atoms: C_9  and  C_10
REMARK    5  A    between atoms: C_10  and  N_11
REMARK    6  A    between atoms: N_11  and  C_12
REMARK    7  A    between atoms: N_11  and  C_13
REMARK    8  A    between atoms: C_26  and  O_27
REMARK                            x       y       z     vdW  Elec       q    Type
REMARK                         _______ _______ _______ _____ _____    ______ ____
ROOT
ATOM      1  C   UNL     1      -2.807  10.122  16.670  0.00  0.00    +0.000 A 
ATOM      2  C   UNL     1      -3.975  10.851  16.957  0.00  0.00    +0.000 A 
ATOM      3  C   UNL     1      -4.064  11.693  18.093  0.00  0.00    +0.000 A 
ATOM      4  C   UNL     1      -5.312  12.432  18.393  0.00  0.00    +0.000 A 
ATOM      5  O   UNL     1      -6.245  12.310  17.597  0.00  0.00    +0.000 OA
ATOM      6  N   UNL     1      -5.396  13.227  19.569  0.00  0.00    +0.000 N 
ATOM      7  C   UNL     1      -4.271  13.418  20.482  0.00  0.00    +0.000 A 
ATOM      8  C   UNL     1      -4.272  14.265  21.708  0.00  0.00    +0.000 A 
ATOM      9  C   UNL     1      -5.276  15.141  22.275  0.00  0.00    +0.000 A 
ATOM     10  C   UNL     1      -5.058  15.831  23.471  0.00  0.00    +0.000 A 
ATOM     11  C   UNL     1      -3.893  15.711  24.168  0.00  0.00    +0.000 A 
ATOM     12  C   UNL     1      -2.882  14.934  23.702  0.00  0.00    +0.000 A 
ATOM     13  C   UNL     1      -3.064  14.251  22.498  0.00  0.00    +0.000 A 
ATOM     14  C   UNL     1      -1.940  13.561  22.113  0.00  0.00    +0.000 A 
ATOM     15  C   UNL     1      -1.946  12.822  20.959  0.00  0.00    +0.000 A 
ATOM     16  C   UNL     1      -3.079  12.708  20.139  0.00  0.00    +0.000 A 
ATOM     17  C   UNL     1      -2.985  11.828  18.957  0.00  0.00    +0.000 A 
ATOM     18  C   UNL     1      -1.821  11.084  18.640  0.00  0.00    +0.000 A 
ATOM     19  C   UNL     1      -1.721  10.262  17.522  0.00  0.00    +0.000 A 
ATOM     20  O   UNL     1      -3.847  16.449  25.303  0.00  0.00    +0.000 OA
ATOM     21  C   UNL     1      -5.077  17.180  25.175  0.00  0.00    +0.000 C 
ATOM     22  O   UNL     1      -5.911  16.698  24.092  0.00  0.00    +0.000 OA
ENDROOT
BRANCH   1  24
ATOM     23  C   UNL     1      -3.110  10.080  14.310  0.00  0.00    +0.000 C 
ATOM     24  O   UNL     1      -2.849   9.375  15.523  0.00  0.00    +0.000 OA
ENDBRANCH   1  24
BRANCH  19  25
ATOM     25  O   UNL     1      -0.526   9.636  17.296  0.00  0.00    +0.000 OA
ATOM     26  H   UNL     1      -0.407   9.470  16.346  0.00  0.00    +0.000 HD
ENDBRANCH  19  25
BRANCH   6  27
ATOM     27  C   UNL     1      -6.723  13.806  19.793  0.00  0.00    +0.000 C 
BRANCH  27  28
ATOM     28  C   UNL     1      -7.754  12.792  20.353  0.00  0.00    +0.000 C 
BRANCH  28  29
ATOM     29  N   UNL     1      -7.184  11.786  21.283  0.00  0.00    +0.000 NA
ATOM     30  C   UNL     1      -7.626  12.059  22.657  0.00  0.00    +0.000 C 
ATOM     31  C   UNL     1      -7.581  10.422  20.919  0.00  0.00    +0.000 C 
ENDBRANCH  28  29
ENDBRANCH  27  28
ENDBRANCH   6  27
TORSDOF 5
ENDMDL
