MODEL 1
REMARK VINA RESULT:      -8.1      0.000      0.000
REMARK  Name = 
REMARK  12 active torsions:
REMARK  status: ('A' for Active; 'I' for Inactive)
REMARK    1  A    between atoms: C_1  and  O_2
REMARK    2  A    between atoms: O_2  and  C_3
REMARK    3  A    between atoms: C_5  and  C_6
REMARK    4  A    between atoms: C_7  and  C_8
REMARK    5  A    between atoms: C_8  and  O_9
REMARK    6  A    between atoms: O_9  and  C_10
REMARK    7  A    between atoms: C_10  and  C_11
REMARK    8  A    between atoms: C_13  and  C_14
REMARK    9  A    between atoms: C_14  and  O_15
REMARK   10  A    between atoms: O_15  and  C_16
REMARK   11  A    between atoms: C_16  and  C_17
REMARK   12  A    between atoms: C_31  and  O_32
REMARK                            x       y       z     vdW  Elec       q    Type
REMARK                         _______ _______ _______ _____ _____    ______ ____
ROOT
ATOM      1  C   UNL     1       3.101   6.194  17.904  0.00  0.00    +0.000 A 
ATOM      2  C   UNL     1       2.842   5.116  18.751  0.00  0.00    +0.000 A 
ATOM      3  C   UNL     1       4.038   4.495  19.068  0.00  0.00    +0.000 A 
ATOM      4  C   UNL     1       4.295   3.677  18.013  0.00  0.00    +0.000 A 
ATOM      5  C   UNL     1       4.330   4.323  16.794  0.00  0.00    +0.000 A 
ATOM      6  C   UNL     1       4.800   3.492  15.757  0.00  0.00    +0.000 A 
ATOM      7  C   UNL     1       5.703   3.987  14.853  0.00  0.00    +0.000 A 
ATOM      8  C   UNL     1       6.102   5.268  15.129  0.00  0.00    +0.000 A 
ATOM      9  C   UNL     1       5.424   6.133  16.039  0.00  0.00    +0.000 A 
ATOM     10  C   UNL     1       4.229   5.753  16.845  0.00  0.00    +0.000 A 
ATOM     11  O   UNL     1       6.328   7.142  16.378  0.00  0.00    +0.000 OA
ATOM     12  C   UNL     1       7.582   6.610  15.841  0.00  0.00    +0.000 C 
ATOM     13  O   UNL     1       7.362   5.672  14.786  0.00  0.00    +0.000 OA
ENDROOT
BRANCH   1  16
ATOM     14  C   UNL     1       1.298   9.683  18.840  0.00  0.00    +0.000 A 
ATOM     15  C   UNL     1       2.063   8.727  18.056  0.00  0.00    +0.000 A 
ATOM     16  C   UNL     1       2.567   7.501  18.627  0.00  0.00    +0.000 A 
ATOM     17  C   UNL     1       2.075   7.303  19.956  0.00  0.00    +0.000 A 
ATOM     18  C   UNL     1       1.343   8.208  20.729  0.00  0.00    +0.000 A 
ATOM     19  C   UNL     1       0.998   9.414  20.186  0.00  0.00    +0.000 A 
BRANCH  14  21
ATOM     20  C   UNL     1       1.570  12.094  18.433  0.00  0.00    +0.000 C 
ATOM     21  O   UNL     1       0.805  10.912  18.489  0.00  0.00    +0.000 OA
ENDBRANCH  14  21
BRANCH  19  22
ATOM     22  O   UNL     1       0.300  10.307  20.961  0.00  0.00    +0.000 OA
ATOM     23  H   UNL     1      -0.475  10.637  20.469  0.00  0.00    +0.000 HD
ENDBRANCH  19  22
ENDBRANCH   1  16
BRANCH   2  24
ATOM     24  C   UNL     1       1.648   4.199  18.403  0.00  0.00    +0.000 C 
BRANCH  24  25
ATOM     25  O   UNL     1       0.911   3.749  19.534  0.00  0.00    +0.000 OA
BRANCH  25  26
ATOM     26  C   UNL     1       1.414   2.618  20.096  0.00  0.00    +0.000 C 
ATOM     27  C   UNL     1       1.472   2.747  21.584  0.00  0.00    +0.000 C 
ATOM     28  O   UNL     1       1.721   1.594  19.500  0.00  0.00    +0.000 OA
ENDBRANCH  25  26
ENDBRANCH  24  25
ENDBRANCH   2  24
BRANCH   3  29
ATOM     29  C   UNL     1       5.253   5.381  19.567  0.00  0.00    +0.000 C 
BRANCH  29  30
ATOM     30  O   UNL     1       6.474   4.667  19.804  0.00  0.00    +0.000 OA
BRANCH  30  31
ATOM     31  C   UNL     1       7.488   4.969  18.948  0.00  0.00    +0.000 C 
ATOM     32  C   UNL     1       8.029   6.314  19.254  0.00  0.00    +0.000 C 
ATOM     33  O   UNL     1       7.900   4.249  18.069  0.00  0.00    +0.000 OA
ENDBRANCH  30  31
ENDBRANCH  29  30
ENDBRANCH   3  29
TORSDOF 9
ENDMDL
MODEL 2
REMARK VINA RESULT:      -8.0      0.807      1.616
REMARK  Name = 
REMARK  12 active torsions:
REMARK  status: ('A' for Active; 'I' for Inactive)
REMARK    1  A    between atoms: C_1  and  O_2
REMARK    2  A    between atoms: O_2  and  C_3
REMARK    3  A    between atoms: C_5  and  C_6
REMARK    4  A    between atoms: C_7  and  C_8
REMARK    5  A    between atoms: C_8  and  O_9
REMARK    6  A    between atoms: O_9  and  C_10
REMARK    7  A    between atoms: C_10  and  C_11
REMARK    8  A    between atoms: C_13  and  C_14
REMARK    9  A    between atoms: C_14  and  O_15
REMARK   10  A    between atoms: O_15  and  C_16
REMARK   11  A    between atoms: C_16  and  C_17
REMARK   12  A    between atoms: C_31  and  O_32
REMARK                            x       y       z     vdW  Elec       q    Type
REMARK                         _______ _______ _______ _____ _____    ______ ____
ROOT
ATOM      1  C   UNL     1       3.115   5.617  17.714  0.00  0.00    +0.000 A 
ATOM      2  C   UNL     1       3.009   4.561  18.621  0.00  0.00    +0.000 A 
ATOM      3  C   UNL     1       4.279   4.179  19.017  0.00  0.00    +0.000 A 
ATOM      4  C   UNL     1       4.719   3.357  18.027  0.00  0.00    +0.000 A 
ATOM      5  C   UNL     1       4.696   3.926  16.770  0.00  0.00    +0.000 A 
ATOM      6  C   UNL     1       5.346   3.132  15.805  0.00  0.00    +0.000 A 
ATOM      7  C   UNL     1       6.189   3.723  14.901  0.00  0.00    +0.000 A 
ATOM      8  C   UNL     1       6.349   5.067  15.106  0.00  0.00    +0.000 A 
ATOM      9  C   UNL     1       5.493   5.852  15.934  0.00  0.00    +0.000 A 
ATOM     10  C   UNL     1       4.347   5.318  16.724  0.00  0.00    +0.000 A 
ATOM     11  O   UNL     1       6.194   7.022  16.236  0.00  0.00    +0.000 OA
ATOM     12  C   UNL     1       7.543   6.688  15.776  0.00  0.00    +0.000 C 
ATOM     13  O   UNL     1       7.534   5.665  14.778  0.00  0.00    +0.000 OA
ENDROOT
BRANCH   1  16
ATOM     14  C   UNL     1       1.593   8.458  20.145  0.00  0.00    +0.000 A 
ATOM     15  C   UNL     1       2.002   7.132  19.708  0.00  0.00    +0.000 A 
ATOM     16  C   UNL     1       2.333   6.850  18.332  0.00  0.00    +0.000 A 
ATOM     17  C   UNL     1       2.364   8.046  17.547  0.00  0.00    +0.000 A 
ATOM     18  C   UNL     1       1.973   9.327  17.943  0.00  0.00    +0.000 A 
ATOM     19  C   UNL     1       1.543   9.520  19.226  0.00  0.00    +0.000 A 
BRANCH  14  21
ATOM     20  C   UNL     1      -0.109   8.689  21.905  0.00  0.00    +0.000 C 
ATOM     21  O   UNL     1       1.182   8.889  21.379  0.00  0.00    +0.000 OA
ENDBRANCH  14  21
BRANCH  19  22
ATOM     22  O   UNL     1       1.136  10.777  19.600  0.00  0.00    +0.000 OA
ATOM     23  H   UNL     1       1.719  11.118  20.305  0.00  0.00    +0.000 HD
ENDBRANCH  19  22
ENDBRANCH   1  16
BRANCH   2  24
ATOM     24  C   UNL     1       2.007   3.430  18.295  0.00  0.00    +0.000 C 
BRANCH  24  25
ATOM     25  O   UNL     1       1.722   2.572  19.393  0.00  0.00    +0.000 OA
BRANCH  25  26
ATOM     26  C   UNL     1       1.227   3.224  20.479  0.00  0.00    +0.000 C 
ATOM     27  C   UNL     1       1.830   2.690  21.738  0.00  0.00    +0.000 C 
ATOM     28  O   UNL     1       0.447   4.167  20.458  0.00  0.00    +0.000 OA
ENDBRANCH  25  26
ENDBRANCH  24  25
ENDBRANCH   2  24
BRANCH   3  29
ATOM     29  C   UNL     1       5.301   5.291  19.497  0.00  0.00    +0.000 C 
BRANCH  29  30
ATOM     30  O   UNL     1       6.605   4.812  19.851  0.00  0.00    +0.000 OA
BRANCH  30  31
ATOM     31  C   UNL     1       7.582   5.092  18.946  0.00  0.00    +0.000 C 
ATOM     32  C   UNL     1       8.048   6.488  19.116  0.00  0.00    +0.000 C 
ATOM     33  O   UNL     1       8.018   4.319  18.125  0.00  0.00    +0.000 OA
ENDBRANCH  30  31
ENDBRANCH  29  30
ENDBRANCH   3  29
TORSDOF 9
ENDMDL
MODEL 3
REMARK VINA RESULT:      -7.0      2.790      7.177
REMARK  Name = 
REMARK  12 active torsions:
REMARK  status: ('A' for Active; 'I' for Inactive)
REMARK    1  A    between atoms: C_1  and  O_2
REMARK    2  A    between atoms: O_2  and  C_3
REMARK    3  A    between atoms: C_5  and  C_6
REMARK    4  A    between atoms: C_7  and  C_8
REMARK    5  A    between atoms: C_8  and  O_9
REMARK    6  A    between atoms: O_9  and  C_10
REMARK    7  A    between atoms: C_10  and  C_11
REMARK    8  A    between atoms: C_13  and  C_14
REMARK    9  A    between atoms: C_14  and  O_15
REMARK   10  A    between atoms: O_15  and  C_16
REMARK   11  A    between atoms: C_16  and  C_17
REMARK   12  A    between atoms: C_31  and  O_32
REMARK                            x       y       z     vdW  Elec       q    Type
REMARK                         _______ _______ _______ _____ _____    ______ ____
ROOT
ATOM      1  C   UNL     1       4.692   5.128  16.581  0.00  0.00    +0.000 A 
ATOM      2  C   UNL     1       5.696   5.669  17.385  0.00  0.00    +0.000 A 
ATOM      3  C   UNL     1       5.675   5.039  18.617  0.00  0.00    +0.000 A 
ATOM      4  C   UNL     1       4.696   5.673  19.316  0.00  0.00    +0.000 A 
ATOM      5  C   UNL     1       3.466   5.673  18.690  0.00  0.00    +0.000 A 
ATOM      6  C   UNL     1       2.436   6.151  19.525  0.00  0.00    +0.000 A 
ATOM      7  C   UNL     1       1.236   5.490  19.561  0.00  0.00    +0.000 A 
ATOM      8  C   UNL     1       1.217   4.357  18.793  0.00  0.00    +0.000 A 
ATOM      9  C   UNL     1       2.191   4.056  17.795  0.00  0.00    +0.000 A 
ATOM     10  C   UNL     1       3.381   4.898  17.486  0.00  0.00    +0.000 A 
ATOM     11  O   UNL     1       2.098   2.684  17.548  0.00  0.00    +0.000 OA
ATOM     12  C   UNL     1       1.246   2.240  18.653  0.00  0.00    +0.000 C 
ATOM     13  O   UNL     1       0.437   3.299  19.169  0.00  0.00    +0.000 OA
ENDROOT
BRANCH   1  16
ATOM     14  C   UNL     1       5.533   3.653  12.919  0.00  0.00    +0.000 A 
ATOM     15  C   UNL     1       4.810   3.835  14.168  0.00  0.00    +0.000 A 
ATOM     16  C   UNL     1       5.393   4.524  15.294  0.00  0.00    +0.000 A 
ATOM     17  C   UNL     1       6.649   5.118  14.949  0.00  0.00    +0.000 A 
ATOM     18  C   UNL     1       7.362   4.954  13.760  0.00  0.00    +0.000 A 
ATOM     19  C   UNL     1       6.825   4.183  12.766  0.00  0.00    +0.000 A 
BRANCH  14  21
ATOM     20  C   UNL     1       3.952   3.158  11.100  0.00  0.00    +0.000 C 
ATOM     21  O   UNL     1       5.170   2.976  11.784  0.00  0.00    +0.000 OA
ENDBRANCH  14  21
BRANCH  19  22
ATOM     22  O   UNL     1       7.545   4.007  11.611  0.00  0.00    +0.000 OA
ATOM     23  H   UNL     1       8.391   3.564  11.812  0.00  0.00    +0.000 HD
ENDBRANCH  19  22
ENDBRANCH   1  16
BRANCH   2  24
ATOM     24  C   UNL     1       5.866   7.206  17.388  0.00  0.00    +0.000 C 
BRANCH  24  25
ATOM     25  O   UNL     1       7.148   7.649  16.961  0.00  0.00    +0.000 OA
BRANCH  25  26
ATOM     26  C   UNL     1       8.002   7.910  17.986  0.00  0.00    +0.000 C 
ATOM     27  C   UNL     1       8.349   9.364  18.030  0.00  0.00    +0.000 C 
ATOM     28  O   UNL     1       8.397   7.102  18.816  0.00  0.00    +0.000 OA
ENDBRANCH  25  26
ENDBRANCH  24  25
ENDBRANCH   2  24
BRANCH   3  29
ATOM     29  C   UNL     1       5.644   3.455  18.668  0.00  0.00    +0.000 C 
BRANCH  29  30
ATOM     30  O   UNL     1       5.421   2.888  19.966  0.00  0.00    +0.000 OA
BRANCH  30  31
ATOM     31  C   UNL     1       4.387   2.007  20.036  0.00  0.00    +0.000 C 
ATOM     32  C   UNL     1       3.403   2.457  21.048  0.00  0.00    +0.000 C 
ATOM     33  O   UNL     1       4.275   1.004  19.370  0.00  0.00    +0.000 OA
ENDBRANCH  30  31
ENDBRANCH  29  30
ENDBRANCH   3  29
TORSDOF 9
ENDMDL
MODEL 4
REMARK VINA RESULT:      -6.7      4.131      9.083
REMARK  Name = 
REMARK  12 active torsions:
REMARK  status: ('A' for Active; 'I' for Inactive)
REMARK    1  A    between atoms: C_1  and  O_2
REMARK    2  A    between atoms: O_2  and  C_3
REMARK    3  A    between atoms: C_5  and  C_6
REMARK    4  A    between atoms: C_7  and  C_8
REMARK    5  A    between atoms: C_8  and  O_9
REMARK    6  A    between atoms: O_9  and  C_10
REMARK    7  A    between atoms: C_10  and  C_11
REMARK    8  A    between atoms: C_13  and  C_14
REMARK    9  A    between atoms: C_14  and  O_15
REMARK   10  A    between atoms: O_15  and  C_16
REMARK   11  A    between atoms: C_16  and  C_17
REMARK   12  A    between atoms: C_31  and  O_32
REMARK                            x       y       z     vdW  Elec       q    Type
REMARK                         _______ _______ _______ _____ _____    ______ ____
ROOT
ATOM      1  C   UNL     1       1.008  12.278  19.521  0.00  0.00    +0.000 A 
ATOM      2  C   UNL     1       0.990  11.281  18.544  0.00  0.00    +0.000 A 
ATOM      3  C   UNL     1      -0.268  10.706  18.512  0.00  0.00    +0.000 A 
ATOM      4  C   UNL     1      -0.260   9.795  19.521  0.00  0.00    +0.000 A 
ATOM      5  C   UNL     1       0.058  10.324  20.755  0.00  0.00    +0.000 A 
ATOM      6  C   UNL     1      -0.143   9.405  21.805  0.00  0.00    +0.000 A 
ATOM      7  C   UNL     1      -0.750   9.822  22.960  0.00  0.00    +0.000 A 
ATOM      8  C   UNL     1      -1.163  11.127  22.915  0.00  0.00    +0.000 A 
ATOM      9  C   UNL     1      -0.726  12.066  21.935  0.00  0.00    +0.000 A 
ATOM     10  C   UNL     1       0.193  11.751  20.804  0.00  0.00    +0.000 A 
ATOM     11  O   UNL     1      -1.652  13.112  21.943  0.00  0.00    +0.000 OA
ATOM     12  C   UNL     1      -2.733  12.546  22.753  0.00  0.00    +0.000 C 
ATOM     13  O   UNL     1      -2.269  11.510  23.622  0.00  0.00    +0.000 OA
ENDROOT
BRANCH   1  16
ATOM     14  C   UNL     1       1.380  16.148  18.435  0.00  0.00    +0.000 A 
ATOM     15  C   UNL     1       0.727  14.929  18.883  0.00  0.00    +0.000 A 
ATOM     16  C   UNL     1       1.373  13.641  18.797  0.00  0.00    +0.000 A 
ATOM     17  C   UNL     1       2.739  13.768  18.391  0.00  0.00    +0.000 A 
ATOM     18  C   UNL     1       3.385  14.926  17.953  0.00  0.00    +0.000 A 
ATOM     19  C   UNL     1       2.692  16.104  17.931  0.00  0.00    +0.000 A 
BRANCH  14  21
ATOM     20  C   UNL     1       0.752  18.278  19.494  0.00  0.00    +0.000 C 
ATOM     21  O   UNL     1       0.903  17.431  18.378  0.00  0.00    +0.000 OA
ENDBRANCH  14  21
BRANCH  19  22
ATOM     22  O   UNL     1       3.327  17.232  17.475  0.00  0.00    +0.000 OA
ATOM     23  H   UNL     1       2.974  18.018  17.933  0.00  0.00    +0.000 HD
ENDBRANCH  19  22
ENDBRANCH   1  16
BRANCH   2  24
ATOM     24  C   UNL     1       2.201  10.323  18.472  0.00  0.00    +0.000 C 
BRANCH  24  25
ATOM     25  O   UNL     1       2.075   9.299  17.494  0.00  0.00    +0.000 OA
BRANCH  25  26
ATOM     26  C   UNL     1       2.748   8.161  17.807  0.00  0.00    +0.000 C 
ATOM     27  C   UNL     1       2.262   7.599  19.105  0.00  0.00    +0.000 C 
ATOM     28  O   UNL     1       3.591   7.609  17.113  0.00  0.00    +0.000 OA
ENDBRANCH  25  26
ENDBRANCH  24  25
ENDBRANCH   2  24
BRANCH   3  29
ATOM     29  C   UNL     1      -1.541  11.647  18.442  0.00  0.00    +0.000 C 
BRANCH  29  30
ATOM     30  O   UNL     1      -2.244  11.632  17.192  0.00  0.00    +0.000 OA
BRANCH  30  31
ATOM     31  C   UNL     1      -2.886  10.465  16.911  0.00  0.00    +0.000 C 
ATOM     32  C   UNL     1      -2.771  10.158  15.466  0.00  0.00    +0.000 C 
ATOM     33  O   UNL     1      -3.462   9.771  17.715  0.00  0.00    +0.000 OA
ENDBRANCH  30  31
ENDBRANCH  29  30
ENDBRANCH   3  29
TORSDOF 9
ENDMDL
MODEL 5
REMARK VINA RESULT:      -6.7      6.718      8.954
REMARK  Name = 
REMARK  12 active torsions:
REMARK  status: ('A' for Active; 'I' for Inactive)
REMARK    1  A    between atoms: C_1  and  O_2
REMARK    2  A    between atoms: O_2  and  C_3
REMARK    3  A    between atoms: C_5  and  C_6
REMARK    4  A    between atoms: C_7  and  C_8
REMARK    5  A    between atoms: C_8  and  O_9
REMARK    6  A    between atoms: O_9  and  C_10
REMARK    7  A    between atoms: C_10  and  C_11
REMARK    8  A    between atoms: C_13  and  C_14
REMARK    9  A    between atoms: C_14  and  O_15
REMARK   10  A    between atoms: O_15  and  C_16
REMARK   11  A    between atoms: C_16  and  C_17
REMARK   12  A    between atoms: C_31  and  O_32
REMARK                            x       y       z     vdW  Elec       q    Type
REMARK                         _______ _______ _______ _____ _____    ______ ____
ROOT
ATOM      1  C   UNL     1      -0.699  13.093  20.088  0.00  0.00    +0.000 A 
ATOM      2  C   UNL     1      -0.823  11.924  19.337  0.00  0.00    +0.000 A 
ATOM      3  C   UNL     1       0.319  11.160  19.501  0.00  0.00    +0.000 A 
ATOM      4  C   UNL     1       1.220  11.689  18.632  0.00  0.00    +0.000 A 
ATOM      5  C   UNL     1       1.447  13.039  18.807  0.00  0.00    +0.000 A 
ATOM      6  C   UNL     1       2.528  13.509  18.036  0.00  0.00    +0.000 A 
ATOM      7  C   UNL     1       3.442  14.359  18.603  0.00  0.00    +0.000 A 
ATOM      8  C   UNL     1       3.209  14.600  19.931  0.00  0.00    +0.000 A 
ATOM      9  C   UNL     1       1.981  14.294  20.591  0.00  0.00    +0.000 A 
ATOM     10  C   UNL     1       0.810  13.633  19.948  0.00  0.00    +0.000 A 
ATOM     11  O   UNL     1       2.260  14.270  21.959  0.00  0.00    +0.000 OA
ATOM     12  C   UNL     1       3.724  14.287  21.965  0.00  0.00    +0.000 C 
ATOM     13  O   UNL     1       4.261  14.851  20.767  0.00  0.00    +0.000 OA
ENDROOT
BRANCH   1  16
ATOM     14  C   UNL     1      -4.200  12.558  22.026  0.00  0.00    +0.000 A 
ATOM     15  C   UNL     1      -3.298  12.826  20.917  0.00  0.00    +0.000 A 
ATOM     16  C   UNL     1      -1.900  13.118  21.123  0.00  0.00    +0.000 A 
ATOM     17  C   UNL     1      -1.526  12.941  22.493  0.00  0.00    +0.000 A 
ATOM     18  C   UNL     1      -2.374  12.689  23.574  0.00  0.00    +0.000 A 
ATOM     19  C   UNL     1      -3.714  12.545  23.345  0.00  0.00    +0.000 A 
BRANCH  14  21
ATOM     20  C   UNL     1      -6.484  13.068  21.267  0.00  0.00    +0.000 C 
ATOM     21  O   UNL     1      -5.551  12.332  22.024  0.00  0.00    +0.000 OA
ENDBRANCH  14  21
BRANCH  19  22
ATOM     22  O   UNL     1      -4.544  12.322  24.415  0.00  0.00    +0.000 OA
ATOM     23  H   UNL     1      -4.869  11.402  24.396  0.00  0.00    +0.000 HD
ENDBRANCH  19  22
ENDBRANCH   1  16
BRANCH   2  24
ATOM     24  C   UNL     1      -1.381  12.048  17.901  0.00  0.00    +0.000 C 
BRANCH  24  25
ATOM     25  O   UNL     1      -1.905  10.835  17.374  0.00  0.00    +0.000 OA
BRANCH  25  26
ATOM     26  C   UNL     1      -3.014  11.009  16.608  0.00  0.00    +0.000 C 
ATOM     27  C   UNL     1      -2.892  10.257  15.321  0.00  0.00    +0.000 C 
ATOM     28  O   UNL     1      -4.019  11.631  16.927  0.00  0.00    +0.000 OA
ENDBRANCH  25  26
ENDBRANCH  24  25
ENDBRANCH   2  24
BRANCH   3  29
ATOM     29  C   UNL     1       0.853  10.885  20.968  0.00  0.00    +0.000 C 
BRANCH  29  30
ATOM     30  O   UNL     1       1.011   9.502  21.312  0.00  0.00    +0.000 OA
BRANCH  30  31
ATOM     31  C   UNL     1      -0.029   8.962  22.006  0.00  0.00    +0.000 C 
ATOM     32  C   UNL     1      -0.181   9.649  23.310  0.00  0.00    +0.000 C 
ATOM     33  O   UNL     1      -0.735   8.060  21.620  0.00  0.00    +0.000 OA
ENDBRANCH  30  31
ENDBRANCH  29  30
ENDBRANCH   3  29
TORSDOF 9
ENDMDL
MODEL 6
REMARK VINA RESULT:      -6.7      4.392      9.317
REMARK  Name = 
REMARK  12 active torsions:
REMARK  status: ('A' for Active; 'I' for Inactive)
REMARK    1  A    between atoms: C_1  and  O_2
REMARK    2  A    between atoms: O_2  and  C_3
REMARK    3  A    between atoms: C_5  and  C_6
REMARK    4  A    between atoms: C_7  and  C_8
REMARK    5  A    between atoms: C_8  and  O_9
REMARK    6  A    between atoms: O_9  and  C_10
REMARK    7  A    between atoms: C_10  and  C_11
REMARK    8  A    between atoms: C_13  and  C_14
REMARK    9  A    between atoms: C_14  and  O_15
REMARK   10  A    between atoms: O_15  and  C_16
REMARK   11  A    between atoms: C_16  and  C_17
REMARK   12  A    between atoms: C_31  and  O_32
REMARK                            x       y       z     vdW  Elec       q    Type
REMARK                         _______ _______ _______ _____ _____    ______ ____
ROOT
ATOM      1  C   UNL     1      -0.906  12.325  18.691  0.00  0.00    +0.000 A 
ATOM      2  C   UNL     1      -0.182  11.306  19.313  0.00  0.00    +0.000 A 
ATOM      3  C   UNL     1       0.480  11.830  20.409  0.00  0.00    +0.000 A 
ATOM      4  C   UNL     1       1.607  12.395  19.899  0.00  0.00    +0.000 A 
ATOM      5  C   UNL     1       1.370  13.333  18.915  0.00  0.00    +0.000 A 
ATOM      6  C   UNL     1       2.533  14.044  18.556  0.00  0.00    +0.000 A 
ATOM      7  C   UNL     1       2.469  15.402  18.390  0.00  0.00    +0.000 A 
ATOM      8  C   UNL     1       1.236  15.927  18.674  0.00  0.00    +0.000 A 
ATOM      9  C   UNL     1       0.049  15.145  18.798  0.00  0.00    +0.000 A 
ATOM     10  C   UNL     1      -0.008  13.660  18.686  0.00  0.00    +0.000 A 
ATOM     11  O   UNL     1      -0.874  15.930  19.494  0.00  0.00    +0.000 OA
ATOM     12  C   UNL     1      -0.030  17.026  19.974  0.00  0.00    +0.000 C 
ATOM     13  O   UNL     1       1.140  17.197  19.172  0.00  0.00    +0.000 OA
ENDROOT
BRANCH   1  16
ATOM     14  C   UNL     1      -4.910  12.142  19.175  0.00  0.00    +0.000 A 
ATOM     15  C   UNL     1      -3.519  12.388  19.519  0.00  0.00    +0.000 A 
ATOM     16  C   UNL     1      -2.432  11.895  18.706  0.00  0.00    +0.000 A 
ATOM     17  C   UNL     1      -2.913  11.314  17.490  0.00  0.00    +0.000 A 
ATOM     18  C   UNL     1      -4.242  11.064  17.141  0.00  0.00    +0.000 A 
ATOM     19  C   UNL     1      -5.234  11.434  18.005  0.00  0.00    +0.000 A 
BRANCH  14  21
ATOM     20  C   UNL     1      -6.286  12.180  21.214  0.00  0.00    +0.000 C 
ATOM     21  O   UNL     1      -6.054  12.469  19.855  0.00  0.00    +0.000 OA
ENDBRANCH  14  21
BRANCH  19  22
ATOM     22  O   UNL     1      -6.536  11.162  17.665  0.00  0.00    +0.000 OA
ATOM     23  H   UNL     1      -6.947  10.602  18.351  0.00  0.00    +0.000 HD
ENDBRANCH  19  22
ENDBRANCH   1  16
BRANCH   2  24
ATOM     24  C   UNL     1       0.615  10.337  18.411  0.00  0.00    +0.000 C 
BRANCH  24  25
ATOM     25  O   UNL     1       1.124   9.196  19.090  0.00  0.00    +0.000 OA
BRANCH  25  26
ATOM     26  C   UNL     1       2.037   8.495  18.367  0.00  0.00    +0.000 C 
ATOM     27  C   UNL     1       2.438   7.248  19.088  0.00  0.00    +0.000 C 
ATOM     28  O   UNL     1       2.442   8.781  17.249  0.00  0.00    +0.000 OA
ENDBRANCH  25  26
ENDBRANCH  24  25
ENDBRANCH   2  24
BRANCH   3  29
ATOM     29  C   UNL     1      -0.329  12.717  21.443  0.00  0.00    +0.000 C 
BRANCH  29  30
ATOM     30  O   UNL     1      -0.322  12.240  22.796  0.00  0.00    +0.000 OA
BRANCH  30  31
ATOM     31  C   UNL     1      -1.305  11.347  23.093  0.00  0.00    +0.000 C 
ATOM     32  C   UNL     1      -0.746   9.977  23.152  0.00  0.00    +0.000 C 
ATOM     33  O   UNL     1      -2.465  11.623  23.289  0.00  0.00    +0.000 OA
ENDBRANCH  30  31
ENDBRANCH  29  30
ENDBRANCH   3  29
TORSDOF 9
ENDMDL
MODEL 7
REMARK VINA RESULT:      -6.7      0.947      1.036
REMARK  Name = 
REMARK  12 active torsions:
REMARK  status: ('A' for Active; 'I' for Inactive)
REMARK    1  A    between atoms: C_1  and  O_2
REMARK    2  A    between atoms: O_2  and  C_3
REMARK    3  A    between atoms: C_5  and  C_6
REMARK    4  A    between atoms: C_7  and  C_8
REMARK    5  A    between atoms: C_8  and  O_9
REMARK    6  A    between atoms: O_9  and  C_10
REMARK    7  A    between atoms: C_10  and  C_11
REMARK    8  A    between atoms: C_13  and  C_14
REMARK    9  A    between atoms: C_14  and  O_15
REMARK   10  A    between atoms: O_15  and  C_16
REMARK   11  A    between atoms: C_16  and  C_17
REMARK   12  A    between atoms: C_31  and  O_32
REMARK                            x       y       z     vdW  Elec       q    Type
REMARK                         _______ _______ _______ _____ _____    ______ ____
ROOT
ATOM      1  C   UNL     1       3.094   5.930  18.580  0.00  0.00    +0.000 A 
ATOM      2  C   UNL     1       3.256   5.076  19.672  0.00  0.00    +0.000 A 
ATOM      3  C   UNL     1       4.587   4.706  19.762  0.00  0.00    +0.000 A 
ATOM      4  C   UNL     1       4.725   3.687  18.873  0.00  0.00    +0.000 A 
ATOM      5  C   UNL     1       4.340   4.004  17.587  0.00  0.00    +0.000 A 
ATOM      6  C   UNL     1       4.687   3.004  16.657  0.00  0.00    +0.000 A 
ATOM      7  C   UNL     1       5.233   3.362  15.452  0.00  0.00    +0.000 A 
ATOM      8  C   UNL     1       5.442   4.710  15.330  0.00  0.00    +0.000 A 
ATOM      9  C   UNL     1       4.859   5.686  16.192  0.00  0.00    +0.000 A 
ATOM     10  C   UNL     1       3.990   5.378  17.363  0.00  0.00    +0.000 A 
ATOM     11  O   UNL     1       5.616   6.851  16.044  0.00  0.00    +0.000 OA
ATOM     12  C   UNL     1       6.776   6.359  15.298  0.00  0.00    +0.000 C 
ATOM     13  O   UNL     1       6.483   5.166  14.569  0.00  0.00    +0.000 OA
ENDROOT
BRANCH   1  16
ATOM     14  C   UNL     1       1.287   9.511  19.035  0.00  0.00    +0.000 A 
ATOM     15  C   UNL     1       2.105   8.481  18.415  0.00  0.00    +0.000 A 
ATOM     16  C   UNL     1       2.521   7.301  19.134  0.00  0.00    +0.000 A 
ATOM     17  C   UNL     1       1.894   7.224  20.418  0.00  0.00    +0.000 A 
ATOM     18  C   UNL     1       1.110   8.201  21.035  0.00  0.00    +0.000 A 
ATOM     19  C   UNL     1       0.848   9.362  20.362  0.00  0.00    +0.000 A 
BRANCH  14  21
ATOM     20  C   UNL     1       1.654  11.874  18.458  0.00  0.00    +0.000 C 
ATOM     21  O   UNL     1       0.860  10.713  18.535  0.00  0.00    +0.000 OA
ENDBRANCH  14  21
BRANCH  19  22
ATOM     22  O   UNL     1       0.097  10.327  20.985  0.00  0.00    +0.000 OA
ATOM     23  H   UNL     1      -0.692  10.531  20.447  0.00  0.00    +0.000 HD
ENDBRANCH  19  22
ENDBRANCH   1  16
BRANCH   2  24
ATOM     24  C   UNL     1       2.204   3.961  19.876  0.00  0.00    +0.000 C 
BRANCH  24  25
ATOM     25  O   UNL     1       1.359   3.748  18.752  0.00  0.00    +0.000 OA
BRANCH  25  26
ATOM     26  C   UNL     1       1.004   2.448  18.577  0.00  0.00    +0.000 C 
ATOM     27  C   UNL     1       2.124   1.537  18.963  0.00  0.00    +0.000 C 
ATOM     28  O   UNL     1      -0.094   2.044  18.219  0.00  0.00    +0.000 OA
ENDBRANCH  25  26
ENDBRANCH  24  25
ENDBRANCH   2  24
BRANCH   3  29
ATOM     29  C   UNL     1       5.701   5.831  19.701  0.00  0.00    +0.000 C 
BRANCH  29  30
ATOM     30  O   UNL     1       7.050   5.364  19.839  0.00  0.00    +0.000 OA
BRANCH  30  31
ATOM     31  C   UNL     1       7.813   5.482  18.718  0.00  0.00    +0.000 C 
ATOM     32  C   UNL     1       8.162   6.904  18.488  0.00  0.00    +0.000 C 
ATOM     33  O   UNL     1       8.166   4.567  18.012  0.00  0.00    +0.000 OA
ENDBRANCH  30  31
ENDBRANCH  29  30
ENDBRANCH   3  29
TORSDOF 9
ENDMDL
MODEL 8
REMARK VINA RESULT:      -6.7      1.547      5.325
REMARK  Name = 
REMARK  12 active torsions:
REMARK  status: ('A' for Active; 'I' for Inactive)
REMARK    1  A    between atoms: C_1  and  O_2
REMARK    2  A    between atoms: O_2  and  C_3
REMARK    3  A    between atoms: C_5  and  C_6
REMARK    4  A    between atoms: C_7  and  C_8
REMARK    5  A    between atoms: C_8  and  O_9
REMARK    6  A    between atoms: O_9  and  C_10
REMARK    7  A    between atoms: C_10  and  C_11
REMARK    8  A    between atoms: C_13  and  C_14
REMARK    9  A    between atoms: C_14  and  O_15
REMARK   10  A    between atoms: O_15  and  C_16
REMARK   11  A    between atoms: C_16  and  C_17
REMARK   12  A    between atoms: C_31  and  O_32
REMARK                            x       y       z     vdW  Elec       q    Type
REMARK                         _______ _______ _______ _____ _____    ______ ____
ROOT
ATOM      1  C   UNL     1       3.113   6.421  18.940  0.00  0.00    +0.000 A 
ATOM      2  C   UNL     1       3.362   6.192  17.586  0.00  0.00    +0.000 A 
ATOM      3  C   UNL     1       2.875   4.942  17.244  0.00  0.00    +0.000 A 
ATOM      4  C   UNL     1       3.847   4.073  17.627  0.00  0.00    +0.000 A 
ATOM      5  C   UNL     1       4.196   4.168  18.959  0.00  0.00    +0.000 A 
ATOM      6  C   UNL     1       5.048   3.124  19.370  0.00  0.00    +0.000 A 
ATOM      7  C   UNL     1       4.818   2.497  20.566  0.00  0.00    +0.000 A 
ATOM      8  C   UNL     1       3.694   2.945  21.207  0.00  0.00    +0.000 A 
ATOM      9  C   UNL     1       3.013   4.152  20.868  0.00  0.00    +0.000 A 
ATOM     10  C   UNL     1       3.395   5.059  19.749  0.00  0.00    +0.000 A 
ATOM     11  O   UNL     1       1.731   4.053  21.413  0.00  0.00    +0.000 OA
ATOM     12  C   UNL     1       1.678   2.640  21.795  0.00  0.00    +0.000 C 
ATOM     13  O   UNL     1       2.980   2.088  21.999  0.00  0.00    +0.000 OA
ENDROOT
BRANCH   1  16
ATOM     14  C   UNL     1       1.129   9.715  20.167  0.00  0.00    +0.000 A 
ATOM     15  C   UNL     1       1.632   8.352  20.202  0.00  0.00    +0.000 A 
ATOM     16  C   UNL     1       2.212   7.722  19.040  0.00  0.00    +0.000 A 
ATOM     17  C   UNL     1       2.365   8.653  17.963  0.00  0.00    +0.000 A 
ATOM     18  C   UNL     1       1.886   9.963  17.906  0.00  0.00    +0.000 A 
ATOM     19  C   UNL     1       1.228  10.476  18.989  0.00  0.00    +0.000 A 
BRANCH  14  21
ATOM     20  C   UNL     1      -0.090   9.891  22.296  0.00  0.00    +0.000 C 
ATOM     21  O   UNL     1       0.494  10.443  21.139  0.00  0.00    +0.000 OA
ENDBRANCH  14  21
BRANCH  19  22
ATOM     22  O   UNL     1       0.739  11.756  18.915  0.00  0.00    +0.000 OA
ATOM     23  H   UNL     1       0.837  12.199  19.779  0.00  0.00    +0.000 HD
ENDBRANCH  19  22
ENDBRANCH   1  16
BRANCH   2  24
ATOM     24  C   UNL     1       4.755   6.575  17.036  0.00  0.00    +0.000 C 
BRANCH  24  25
ATOM     25  O   UNL     1       5.709   6.895  18.041  0.00  0.00    +0.000 OA
BRANCH  25  26
ATOM     26  C   UNL     1       6.973   6.497  17.738  0.00  0.00    +0.000 C 
ATOM     27  C   UNL     1       7.632   5.878  18.929  0.00  0.00    +0.000 C 
ATOM     28  O   UNL     1       7.502   6.558  16.637  0.00  0.00    +0.000 OA
ENDBRANCH  25  26
ENDBRANCH  24  25
ENDBRANCH   2  24
BRANCH   3  29
ATOM     29  C   UNL     1       1.397   4.555  17.663  0.00  0.00    +0.000 C 
BRANCH  29  30
ATOM     30  O   UNL     1       1.009   3.208  17.362  0.00  0.00    +0.000 OA
BRANCH  30  31
ATOM     31  C   UNL     1       0.809   2.413  18.449  0.00  0.00    +0.000 C 
ATOM     32  C   UNL     1       1.883   1.397  18.541  0.00  0.00    +0.000 C 
ATOM     33  O   UNL     1      -0.105   2.517  19.234  0.00  0.00    +0.000 OA
ENDBRANCH  30  31
ENDBRANCH  29  30
ENDBRANCH   3  29
TORSDOF 9
ENDMDL
MODEL 9
REMARK VINA RESULT:      -6.6      3.877      9.800
REMARK  Name = 
REMARK  12 active torsions:
REMARK  status: ('A' for Active; 'I' for Inactive)
REMARK    1  A    between atoms: C_1  and  O_2
REMARK    2  A    between atoms: O_2  and  C_3
REMARK    3  A    between atoms: C_5  and  C_6
REMARK    4  A    between atoms: C_7  and  C_8
REMARK    5  A    between atoms: C_8  and  O_9
REMARK    6  A    between atoms: O_9  and  C_10
REMARK    7  A    between atoms: C_10  and  C_11
REMARK    8  A    between atoms: C_13  and  C_14
REMARK    9  A    between atoms: C_14  and  O_15
REMARK   10  A    between atoms: O_15  and  C_16
REMARK   11  A    between atoms: C_16  and  C_17
REMARK   12  A    between atoms: C_31  and  O_32
REMARK                            x       y       z     vdW  Elec       q    Type
REMARK                         _______ _______ _______ _____ _____    ______ ____
ROOT
ATOM      1  C   UNL     1      -0.779  10.524  19.594  0.00  0.00    +0.000 A 
ATOM      2  C   UNL     1      -1.219  10.848  18.310  0.00  0.00    +0.000 A 
ATOM      3  C   UNL     1      -1.248  12.225  18.178  0.00  0.00    +0.000 A 
ATOM      4  C   UNL     1      -2.427  12.604  18.738  0.00  0.00    +0.000 A 
ATOM      5  C   UNL     1      -2.592  12.185  20.042  0.00  0.00    +0.000 A 
ATOM      6  C   UNL     1      -3.720  12.764  20.657  0.00  0.00    +0.000 A 
ATOM      7  C   UNL     1      -3.621  13.242  21.937  0.00  0.00    +0.000 A 
ATOM      8  C   UNL     1      -2.356  13.151  22.454  0.00  0.00    +0.000 A 
ATOM      9  C   UNL     1      -1.321  12.349  21.887  0.00  0.00    +0.000 A 
ATOM     10  C   UNL     1      -1.454  11.545  20.639  0.00  0.00    +0.000 A 
ATOM     11  O   UNL     1      -0.116  12.832  22.401  0.00  0.00    +0.000 OA
ATOM     12  C   UNL     1      -0.540  14.088  23.024  0.00  0.00    +0.000 C 
ATOM     13  O   UNL     1      -1.928  14.080  23.361  0.00  0.00    +0.000 OA
ENDROOT
BRANCH   1  16
ATOM     14  C   UNL     1       2.020   7.618  19.719  0.00  0.00    +0.000 A 
ATOM     15  C   UNL     1       0.979   8.510  20.202  0.00  0.00    +0.000 A 
ATOM     16  C   UNL     1       0.536   9.651  19.437  0.00  0.00    +0.000 A 
ATOM     17  C   UNL     1       1.122   9.664  18.131  0.00  0.00    +0.000 A 
ATOM     18  C   UNL     1       2.125   8.821  17.648  0.00  0.00    +0.000 A 
ATOM     19  C   UNL     1       2.606   7.831  18.459  0.00  0.00    +0.000 A 
BRANCH  14  21
ATOM     20  C   UNL     1       1.956   5.320  20.594  0.00  0.00    +0.000 C 
ATOM     21  O   UNL     1       2.607   6.541  20.329  0.00  0.00    +0.000 OA
ENDBRANCH  14  21
BRANCH  19  22
ATOM     22  O   UNL     1       3.609   7.023  17.984  0.00  0.00    +0.000 OA
ATOM     23  H   UNL     1       3.651   7.084  17.011  0.00  0.00    +0.000 HD
ENDBRANCH  19  22
ENDBRANCH   1  16
BRANCH   2  24
ATOM     24  C   UNL     1      -2.425  10.065  17.745  0.00  0.00    +0.000 C 
BRANCH  24  25
ATOM     25  O   UNL     1      -2.220   9.545  16.437  0.00  0.00    +0.000 OA
BRANCH  25  26
ATOM     26  C   UNL     1      -2.955  10.172  15.481  0.00  0.00    +0.000 C 
ATOM     27  C   UNL     1      -4.117  10.888  16.090  0.00  0.00    +0.000 C 
ATOM     28  O   UNL     1      -2.690  10.220  14.287  0.00  0.00    +0.000 OA
ENDBRANCH  25  26
ENDBRANCH  24  25
ENDBRANCH   2  24
BRANCH   3  29
ATOM     29  C   UNL     1       0.024  13.065  18.613  0.00  0.00    +0.000 C 
BRANCH  29  30
ATOM     30  O   UNL     1      -0.068  14.477  18.386  0.00  0.00    +0.000 OA
BRANCH  30  31
ATOM     31  C   UNL     1      -0.169  15.233  19.513  0.00  0.00    +0.000 C 
ATOM     32  C   UNL     1       1.180  15.533  20.047  0.00  0.00    +0.000 C 
ATOM     33  O   UNL     1      -1.203  15.613  20.010  0.00  0.00    +0.000 OA
ENDBRANCH  30  31
ENDBRANCH  29  30
ENDBRANCH   3  29
TORSDOF 9
ENDMDL
