MODEL 1
REMARK VINA RESULT:      -7.2      0.000      0.000
REMARK  Name = 
REMARK  3 active torsions:
REMARK  status: ('A' for Active; 'I' for Inactive)
REMARK    1  A    between atoms: C_5  and  C_6
REMARK    2  A    between atoms: C_9  and  C_10
REMARK    3  A    between atoms: C_10  and  N_11
REMARK                            x       y       z     vdW  Elec       q    Type
REMARK                         _______ _______ _______ _____ _____    ______ ____
ROOT
ATOM      1  C   UNL     1       5.929   4.351  16.472  0.00  0.00    +0.000 A 
ATOM      2  C   UNL     1       6.440   4.840  17.656  0.00  0.00    +0.000 A 
ATOM      3  C   UNL     1       5.585   4.375  18.688  0.00  0.00    +0.000 A 
ATOM      4  C   UNL     1       4.606   3.622  18.074  0.00  0.00    +0.000 A 
ATOM      5  O   UNL     1       4.796   3.633  16.721  0.00  0.00    +0.000 OA
ENDROOT
BRANCH   1  10
ATOM      6  F   UNL     1       7.402   4.597  11.085  0.00  0.00    +0.000 F 
ATOM      7  C   UNL     1       7.077   4.486  12.381  0.00  0.00    +0.000 A 
ATOM      8  C   UNL     1       7.800   5.216  13.318  0.00  0.00    +0.000 A 
ATOM      9  C   UNL     1       7.447   5.146  14.668  0.00  0.00    +0.000 A 
ATOM     10  C   UNL     1       6.373   4.344  15.087  0.00  0.00    +0.000 A 
ATOM     11  C   UNL     1       5.679   3.584  14.134  0.00  0.00    +0.000 A 
ATOM     12  C   UNL     1       6.023   3.667  12.783  0.00  0.00    +0.000 A 
ATOM     13 CL   UNL     1       5.111   2.777  11.626  0.00  0.00    +0.000 Cl
ENDBRANCH   1  10
BRANCH   4  14
ATOM     14  C   UNL     1       3.480   2.784  18.570  0.00  0.00    +0.000 C 
BRANCH  14  15
ATOM     15  N   UNL     1       2.148   3.287  18.196  0.00  0.00    +0.000 NA
ATOM     16  C   UNL     1       2.052   4.743  18.462  0.00  0.00    +0.000 C 
ATOM     17  C   UNL     1       1.958   5.105  19.956  0.00  0.00    +0.000 C 
ATOM     18  O   UNL     1       0.870   4.427  20.596  0.00  0.00    +0.000 OA
ATOM     19  C   UNL     1       0.973   3.008  20.425  0.00  0.00    +0.000 C 
ATOM     20  C   UNL     1       1.049   2.626  18.937  0.00  0.00    +0.000 C 
ENDBRANCH  14  15
ENDBRANCH   4  14
TORSDOF 3
ENDMDL
MODEL 2
REMARK VINA RESULT:      -7.2      1.281      1.389
REMARK  Name = 
REMARK  3 active torsions:
REMARK  status: ('A' for Active; 'I' for Inactive)
REMARK    1  A    between atoms: C_5  and  C_6
REMARK    2  A    between atoms: C_9  and  C_10
REMARK    3  A    between atoms: C_10  and  N_11
REMARK                            x       y       z     vdW  Elec       q    Type
REMARK                         _______ _______ _______ _____ _____    ______ ____
ROOT
ATOM      1  C   UNL     1       5.245   5.394  15.893  0.00  0.00    +0.000 A 
ATOM      2  C   UNL     1       5.168   6.619  16.523  0.00  0.00    +0.000 A 
ATOM      3  C   UNL     1       4.460   6.407  17.733  0.00  0.00    +0.000 A 
ATOM      4  C   UNL     1       4.153   5.063  17.775  0.00  0.00    +0.000 A 
ATOM      5  O   UNL     1       4.602   4.451  16.640  0.00  0.00    +0.000 OA
ENDROOT
BRANCH   1  10
ATOM      6  F   UNL     1       7.700   3.724  11.157  0.00  0.00    +0.000 F 
ATOM      7  C   UNL     1       7.126   4.073  12.318  0.00  0.00    +0.000 A 
ATOM      8  C   UNL     1       7.806   4.940  13.166  0.00  0.00    +0.000 A 
ATOM      9  C   UNL     1       7.203   5.348  14.359  0.00  0.00    +0.000 A 
ATOM     10  C   UNL     1       5.924   4.889  14.710  0.00  0.00    +0.000 A 
ATOM     11  C   UNL     1       5.270   3.985  13.861  0.00  0.00    +0.000 A 
ATOM     12  C   UNL     1       5.865   3.589  12.661  0.00  0.00    +0.000 A 
ATOM     13 CL   UNL     1       5.011   2.533  11.605  0.00  0.00    +0.000 Cl
ENDBRANCH   1  10
BRANCH   4  14
ATOM     14  C   UNL     1       3.521   4.176  18.791  0.00  0.00    +0.000 C 
BRANCH  14  15
ATOM     15  N   UNL     1       2.152   4.569  19.163  0.00  0.00    +0.000 NA
ATOM     16  C   UNL     1       2.090   4.925  20.601  0.00  0.00    +0.000 C 
ATOM     17  C   UNL     1       2.186   3.718  21.553  0.00  0.00    +0.000 C 
ATOM     18  O   UNL     1       1.188   2.733  21.258  0.00  0.00    +0.000 OA
ATOM     19  C   UNL     1       1.269   2.307  19.892  0.00  0.00    +0.000 C 
ATOM     20  C   UNL     1       1.157   3.498  18.926  0.00  0.00    +0.000 C 
ENDBRANCH  14  15
ENDBRANCH   4  14
TORSDOF 3
ENDMDL
MODEL 3
REMARK VINA RESULT:      -7.1      6.245      8.921
REMARK  Name = 
REMARK  3 active torsions:
REMARK  status: ('A' for Active; 'I' for Inactive)
REMARK    1  A    between atoms: C_5  and  C_6
REMARK    2  A    between atoms: C_9  and  C_10
REMARK    3  A    between atoms: C_10  and  N_11
REMARK                            x       y       z     vdW  Elec       q    Type
REMARK                         _______ _______ _______ _____ _____    ______ ____
ROOT
ATOM      1  C   UNL     1       1.551   8.703  19.707  0.00  0.00    +0.000 A 
ATOM      2  C   UNL     1       1.821   8.938  18.376  0.00  0.00    +0.000 A 
ATOM      3  C   UNL     1       2.497   7.789  17.892  0.00  0.00    +0.000 A 
ATOM      4  C   UNL     1       2.592   6.916  18.955  0.00  0.00    +0.000 A 
ATOM      5  O   UNL     1       2.044   7.485  20.070  0.00  0.00    +0.000 OA
ENDROOT
BRANCH   1  10
ATOM      6  F   UNL     1      -1.643  11.144  23.592  0.00  0.00    +0.000 F 
ATOM      7  C   UNL     1      -0.839  10.604  22.666  0.00  0.00    +0.000 A 
ATOM      8  C   UNL     1      -0.019   9.541  23.029  0.00  0.00    +0.000 A 
ATOM      9  C   UNL     1       0.794   8.937  22.066  0.00  0.00    +0.000 A 
ATOM     10  C   UNL     1       0.793   9.395  20.738  0.00  0.00    +0.000 A 
ATOM     11  C   UNL     1      -0.011  10.492  20.399  0.00  0.00    +0.000 A 
ATOM     12  C   UNL     1      -0.835  11.085  21.358  0.00  0.00    +0.000 A 
ATOM     13 CL   UNL     1      -1.863  12.386  20.897  0.00  0.00    +0.000 Cl
ENDBRANCH   1  10
BRANCH   4  14
ATOM     14  C   UNL     1       3.085   5.519  19.108  0.00  0.00    +0.000 C 
BRANCH  14  15
ATOM     15  N   UNL     1       2.945   4.697  17.896  0.00  0.00    +0.000 NA
ATOM     16  C   UNL     1       1.565   4.165  17.788  0.00  0.00    +0.000 C 
ATOM     17  C   UNL     1       1.244   3.042  18.794  0.00  0.00    +0.000 C 
ATOM     18  O   UNL     1       2.183   1.965  18.699  0.00  0.00    +0.000 OA
ATOM     19  C   UNL     1       3.526   2.433  18.877  0.00  0.00    +0.000 C 
ATOM     20  C   UNL     1       3.871   3.541  17.869  0.00  0.00    +0.000 C 
ENDBRANCH  14  15
ENDBRANCH   4  14
TORSDOF 3
ENDMDL
MODEL 4
REMARK VINA RESULT:      -7.1      0.851      1.174
REMARK  Name = 
REMARK  3 active torsions:
REMARK  status: ('A' for Active; 'I' for Inactive)
REMARK    1  A    between atoms: C_5  and  C_6
REMARK    2  A    between atoms: C_9  and  C_10
REMARK    3  A    between atoms: C_10  and  N_11
REMARK                            x       y       z     vdW  Elec       q    Type
REMARK                         _______ _______ _______ _____ _____    ______ ____
ROOT
ATOM      1  C   UNL     1       6.129   4.678  16.446  0.00  0.00    +0.000 A 
ATOM      2  C   UNL     1       6.802   4.730  17.649  0.00  0.00    +0.000 A 
ATOM      3  C   UNL     1       5.815   4.703  18.666  0.00  0.00    +0.000 A 
ATOM      4  C   UNL     1       4.596   4.627  18.025  0.00  0.00    +0.000 A 
ATOM      5  O   UNL     1       4.784   4.644  16.672  0.00  0.00    +0.000 OA
ENDROOT
BRANCH   1  10
ATOM      6  F   UNL     1       7.415   4.449  11.011  0.00  0.00    +0.000 F 
ATOM      7  C   UNL     1       7.135   4.452  12.322  0.00  0.00    +0.000 A 
ATOM      8  C   UNL     1       7.889   5.261  13.166  0.00  0.00    +0.000 A 
ATOM      9  C   UNL     1       7.582   5.310  14.528  0.00  0.00    +0.000 A 
ATOM     10  C   UNL     1       6.525   4.549  15.053  0.00  0.00    +0.000 A 
ATOM     11  C   UNL     1       5.800   3.710  14.194  0.00  0.00    +0.000 A 
ATOM     12  C   UNL     1       6.097   3.673  12.830  0.00  0.00    +0.000 A 
ATOM     13 CL   UNL     1       5.147   2.687  11.788  0.00  0.00    +0.000 Cl
ENDBRANCH   1  10
BRANCH   4  14
ATOM     14  C   UNL     1       3.190   4.469  18.488  0.00  0.00    +0.000 C 
BRANCH  14  15
ATOM     15  N   UNL     1       2.736   3.071  18.563  0.00  0.00    +0.000 NA
ATOM     16  C   UNL     1       1.262   3.014  18.715  0.00  0.00    +0.000 C 
ATOM     17  C   UNL     1       0.757   3.432  20.110  0.00  0.00    +0.000 C 
ATOM     18  O   UNL     1       1.378   2.665  21.148  0.00  0.00    +0.000 OA
ATOM     19  C   UNL     1       2.807   2.760  21.078  0.00  0.00    +0.000 C 
ATOM     20  C   UNL     1       3.330   2.328  19.698  0.00  0.00    +0.000 C 
ENDBRANCH  14  15
ENDBRANCH   4  14
TORSDOF 3
ENDMDL
MODEL 5
REMARK VINA RESULT:      -7.1      1.003      1.571
REMARK  Name = 
REMARK  3 active torsions:
REMARK  status: ('A' for Active; 'I' for Inactive)
REMARK    1  A    between atoms: C_5  and  C_6
REMARK    2  A    between atoms: C_9  and  C_10
REMARK    3  A    between atoms: C_10  and  N_11
REMARK                            x       y       z     vdW  Elec       q    Type
REMARK                         _______ _______ _______ _____ _____    ______ ____
ROOT
ATOM      1  C   UNL     1       6.289   4.817  16.571  0.00  0.00    +0.000 A 
ATOM      2  C   UNL     1       6.777   5.592  17.601  0.00  0.00    +0.000 A 
ATOM      3  C   UNL     1       6.118   5.159  18.780  0.00  0.00    +0.000 A 
ATOM      4  C   UNL     1       5.272   4.137  18.401  0.00  0.00    +0.000 A 
ATOM      5  O   UNL     1       5.351   3.950  17.050  0.00  0.00    +0.000 OA
ENDROOT
BRANCH   1  10
ATOM      6  F   UNL     1       7.336   4.480  11.090  0.00  0.00    +0.000 F 
ATOM      7  C   UNL     1       7.110   4.507  12.411  0.00  0.00    +0.000 A 
ATOM      8  C   UNL     1       7.959   5.253  13.221  0.00  0.00    +0.000 A 
ATOM      9  C   UNL     1       7.711   5.328  14.594  0.00  0.00    +0.000 A 
ATOM     10  C   UNL     1       6.618   4.655  15.163  0.00  0.00    +0.000 A 
ATOM     11  C   UNL     1       5.795   3.876  14.337  0.00  0.00    +0.000 A 
ATOM     12  C   UNL     1       6.033   3.814  12.963  0.00  0.00    +0.000 A 
ATOM     13 CL   UNL     1       4.966   2.907  11.962  0.00  0.00    +0.000 Cl
ENDBRANCH   1  10
BRANCH   4  14
ATOM     14  C   UNL     1       4.384   3.199  19.141  0.00  0.00    +0.000 C 
BRANCH  14  15
ATOM     15  N   UNL     1       3.208   3.840  19.750  0.00  0.00    +0.000 NA
ATOM     16  C   UNL     1       2.219   2.816  20.167  0.00  0.00    +0.000 C 
ATOM     17  C   UNL     1       1.466   2.157  18.996  0.00  0.00    +0.000 C 
ATOM     18  O   UNL     1       0.827   3.132  18.163  0.00  0.00    +0.000 OA
ATOM     19  C   UNL     1       1.770   4.096  17.678  0.00  0.00    +0.000 C 
ATOM     20  C   UNL     1       2.519   4.779  18.835  0.00  0.00    +0.000 C 
ENDBRANCH  14  15
ENDBRANCH   4  14
TORSDOF 3
ENDMDL
MODEL 6
REMARK VINA RESULT:      -7.0      1.188      1.615
REMARK  Name = 
REMARK  3 active torsions:
REMARK  status: ('A' for Active; 'I' for Inactive)
REMARK    1  A    between atoms: C_5  and  C_6
REMARK    2  A    between atoms: C_9  and  C_10
REMARK    3  A    between atoms: C_10  and  N_11
REMARK                            x       y       z     vdW  Elec       q    Type
REMARK                         _______ _______ _______ _____ _____    ______ ____
ROOT
ATOM      1  C   UNL     1       6.579   4.797  16.379  0.00  0.00    +0.000 A 
ATOM      2  C   UNL     1       7.360   4.801  17.515  0.00  0.00    +0.000 A 
ATOM      3  C   UNL     1       6.469   4.821  18.619  0.00  0.00    +0.000 A 
ATOM      4  C   UNL     1       5.195   4.820  18.091  0.00  0.00    +0.000 A 
ATOM      5  O   UNL     1       5.260   4.837  16.726  0.00  0.00    +0.000 OA
ENDROOT
BRANCH   1  10
ATOM      6  F   UNL     1       7.326   4.519  10.846  0.00  0.00    +0.000 F 
ATOM      7  C   UNL     1       7.177   4.535  12.179  0.00  0.00    +0.000 A 
ATOM      8  C   UNL     1       7.987   5.378  12.932  0.00  0.00    +0.000 A 
ATOM      9  C   UNL     1       7.815   5.440  14.318  0.00  0.00    +0.000 A 
ATOM     10  C   UNL     1       6.838   4.657  14.955  0.00  0.00    +0.000 A 
ATOM     11  C   UNL     1       6.057   3.784  14.183  0.00  0.00    +0.000 A 
ATOM     12  C   UNL     1       6.219   3.735  12.797  0.00  0.00    +0.000 A 
ATOM     13 CL   UNL     1       5.200   2.705  11.867  0.00  0.00    +0.000 Cl
ENDBRANCH   1  10
BRANCH   4  14
ATOM     14  C   UNL     1       3.830   4.737  18.679  0.00  0.00    +0.000 C 
BRANCH  14  15
ATOM     15  N   UNL     1       3.617   3.561  19.539  0.00  0.00    +0.000 NA
ATOM     16  C   UNL     1       3.650   2.318  18.731  0.00  0.00    +0.000 C 
ATOM     17  C   UNL     1       2.407   2.110  17.846  0.00  0.00    +0.000 C 
ATOM     18  O   UNL     1       1.199   2.151  18.615  0.00  0.00    +0.000 OA
ATOM     19  C   UNL     1       1.095   3.377  19.350  0.00  0.00    +0.000 C 
ATOM     20  C   UNL     1       2.320   3.593  20.254  0.00  0.00    +0.000 C 
ENDBRANCH  14  15
ENDBRANCH   4  14
TORSDOF 3
ENDMDL
MODEL 7
REMARK VINA RESULT:      -7.0      6.312      9.019
REMARK  Name = 
REMARK  3 active torsions:
REMARK  status: ('A' for Active; 'I' for Inactive)
REMARK    1  A    between atoms: C_5  and  C_6
REMARK    2  A    between atoms: C_9  and  C_10
REMARK    3  A    between atoms: C_10  and  N_11
REMARK                            x       y       z     vdW  Elec       q    Type
REMARK                         _______ _______ _______ _____ _____    ______ ____
ROOT
ATOM      1  C   UNL     1       1.489   8.793  19.720  0.00  0.00    +0.000 A 
ATOM      2  C   UNL     1       1.712   9.002  18.376  0.00  0.00    +0.000 A 
ATOM      3  C   UNL     1       2.429   7.873  17.905  0.00  0.00    +0.000 A 
ATOM      4  C   UNL     1       2.594   7.036  18.989  0.00  0.00    +0.000 A 
ATOM      5  O   UNL     1       2.050   7.610  20.102  0.00  0.00    +0.000 OA
ENDROOT
BRANCH   1  10
ATOM      6  F   UNL     1      -1.728  11.213  23.599  0.00  0.00    +0.000 F 
ATOM      7  C   UNL     1      -0.917  10.676  22.677  0.00  0.00    +0.000 A 
ATOM      8  C   UNL     1      -0.133   9.583  23.029  0.00  0.00    +0.000 A 
ATOM      9  C   UNL     1       0.685   8.983  22.068  0.00  0.00    +0.000 A 
ATOM     10  C   UNL     1       0.726   9.477  20.753  0.00  0.00    +0.000 A 
ATOM     11  C   UNL     1      -0.042  10.604  20.426  0.00  0.00    +0.000 A 
ATOM     12  C   UNL     1      -0.871  11.192  21.383  0.00  0.00    +0.000 A 
ATOM     13 CL   UNL     1      -1.854  12.532  20.935  0.00  0.00    +0.000 Cl
ENDBRANCH   1  10
BRANCH   4  14
ATOM     14  C   UNL     1       3.158   5.669  19.166  0.00  0.00    +0.000 C 
BRANCH  14  15
ATOM     15  N   UNL     1       2.143   4.620  19.353  0.00  0.00    +0.000 NA
ATOM     16  C   UNL     1       2.713   3.477  20.105  0.00  0.00    +0.000 C 
ATOM     17  C   UNL     1       3.699   2.617  19.290  0.00  0.00    +0.000 C 
ATOM     18  O   UNL     1       3.107   2.145  18.074  0.00  0.00    +0.000 OA
ATOM     19  C   UNL     1       2.612   3.233  17.283  0.00  0.00    +0.000 C 
ATOM     20  C   UNL     1       1.612   4.092  18.075  0.00  0.00    +0.000 C 
ENDBRANCH  14  15
ENDBRANCH   4  14
TORSDOF 3
ENDMDL
MODEL 8
REMARK VINA RESULT:      -7.0      5.343      7.133
REMARK  Name = 
REMARK  3 active torsions:
REMARK  status: ('A' for Active; 'I' for Inactive)
REMARK    1  A    between atoms: C_5  and  C_6
REMARK    2  A    between atoms: C_9  and  C_10
REMARK    3  A    between atoms: C_10  and  N_11
REMARK                            x       y       z     vdW  Elec       q    Type
REMARK                         _______ _______ _______ _____ _____    ______ ____
ROOT
ATOM      1  C   UNL     1       2.512   7.183  18.721  0.00  0.00    +0.000 A 
ATOM      2  C   UNL     1       2.513   7.971  17.590  0.00  0.00    +0.000 A 
ATOM      3  C   UNL     1       1.919   9.206  17.955  0.00  0.00    +0.000 A 
ATOM      4  C   UNL     1       1.596   9.102  19.293  0.00  0.00    +0.000 A 
ATOM      5  O   UNL     1       1.928   7.859  19.752  0.00  0.00    +0.000 OA
ENDROOT
BRANCH   1  10
ATOM      6  F   UNL     1       4.405   2.043  19.834  0.00  0.00    +0.000 F 
ATOM      7  C   UNL     1       3.982   3.296  19.614  0.00  0.00    +0.000 A 
ATOM      8  C   UNL     1       4.577   4.034  18.596  0.00  0.00    +0.000 A 
ATOM      9  C   UNL     1       4.118   5.325  18.323  0.00  0.00    +0.000 A 
ATOM     10  C   UNL     1       3.068   5.885  19.069  0.00  0.00    +0.000 A 
ATOM     11  C   UNL     1       2.506   5.141  20.117  0.00  0.00    +0.000 A 
ATOM     12  C   UNL     1       2.954   3.845  20.378  0.00  0.00    +0.000 A 
ATOM     13 CL   UNL     1       2.200   2.929  21.625  0.00  0.00    +0.000 Cl
ENDBRANCH   1  10
BRANCH   4  14
ATOM     14  C   UNL     1       1.050  10.049  20.303  0.00  0.00    +0.000 C 
BRANCH  14  15
ATOM     15  N   UNL     1      -0.351   9.788  20.674  0.00  0.00    +0.000 NA
ATOM     16  C   UNL     1      -1.051  11.061  20.974  0.00  0.00    +0.000 C 
ATOM     17  C   UNL     1      -0.638  11.707  22.310  0.00  0.00    +0.000 C 
ATOM     18  O   UNL     1      -0.799  10.800  23.407  0.00  0.00    +0.000 OA
ATOM     19  C   UNL     1      -0.070   9.586  23.186  0.00  0.00    +0.000 C 
ATOM     20  C   UNL     1      -0.483   8.917  21.865  0.00  0.00    +0.000 C 
ENDBRANCH  14  15
ENDBRANCH   4  14
TORSDOF 3
ENDMDL
MODEL 9
REMARK VINA RESULT:      -7.0      5.991      8.247
REMARK  Name = 
REMARK  3 active torsions:
REMARK  status: ('A' for Active; 'I' for Inactive)
REMARK    1  A    between atoms: C_5  and  C_6
REMARK    2  A    between atoms: C_9  and  C_10
REMARK    3  A    between atoms: C_10  and  N_11
REMARK                            x       y       z     vdW  Elec       q    Type
REMARK                         _______ _______ _______ _____ _____    ______ ____
ROOT
ATOM      1  C   UNL     1       2.077   8.212  19.057  0.00  0.00    +0.000 A 
ATOM      2  C   UNL     1       2.707   8.178  17.831  0.00  0.00    +0.000 A 
ATOM      3  C   UNL     1       3.457   6.975  17.796  0.00  0.00    +0.000 A 
ATOM      4  C   UNL     1       3.235   6.341  19.001  0.00  0.00    +0.000 A 
ATOM      5  O   UNL     1       2.419   7.110  19.783  0.00  0.00    +0.000 OA
ENDROOT
BRANCH   1  10
ATOM      6  F   UNL     1      -1.461  11.763  21.533  0.00  0.00    +0.000 F 
ATOM      7  C   UNL     1      -0.656  10.871  20.939  0.00  0.00    +0.000 A 
ATOM      8  C   UNL     1      -0.414  10.992  19.574  0.00  0.00    +0.000 A 
ATOM      9  C   UNL     1       0.457  10.098  18.947  0.00  0.00    +0.000 A 
ATOM     10  C   UNL     1       1.085   9.077  19.678  0.00  0.00    +0.000 A 
ATOM     11  C   UNL     1       0.800   8.946  21.045  0.00  0.00    +0.000 A 
ATOM     12  C   UNL     1      -0.058   9.850  21.675  0.00  0.00    +0.000 A 
ATOM     13 CL   UNL     1      -0.337   9.707  23.367  0.00  0.00    +0.000 Cl
ENDBRANCH   1  10
BRANCH   4  14
ATOM     14  C   UNL     1       3.629   5.022  19.566  0.00  0.00    +0.000 C 
BRANCH  14  15
ATOM     15  N   UNL     1       2.513   4.075  19.717  0.00  0.00    +0.000 NA
ATOM     16  C   UNL     1       3.014   2.752  20.161  0.00  0.00    +0.000 C 
ATOM     17  C   UNL     1       3.760   1.963  19.068  0.00  0.00    +0.000 C 
ATOM     18  O   UNL     1       2.959   1.803  17.892  0.00  0.00    +0.000 OA
ATOM     19  C   UNL     1       2.520   3.072  17.389  0.00  0.00    +0.000 C 
ATOM     20  C   UNL     1       1.756   3.866  18.461  0.00  0.00    +0.000 C 
ENDBRANCH  14  15
ENDBRANCH   4  14
TORSDOF 3
ENDMDL
