MODEL 1
REMARK VINA RESULT:      -8.0      0.000      0.000
REMARK  Name = 
REMARK  4 active torsions:
REMARK  status: ('A' for Active; 'I' for Inactive)
REMARK    1  A    between atoms: C_1  and  C_2
REMARK    2  A    between atoms: C_5  and  C_6
REMARK    3  A    between atoms: C_7  and  C_8
REMARK    4  A    between atoms: C_13  and  C_14
REMARK                            x       y       z     vdW  Elec       q    Type
REMARK                         _______ _______ _______ _____ _____    ______ ____
ROOT
ATOM      1  C   UNL     1       4.014   3.515  18.932  0.00  0.00    +0.000 C 
ATOM      2  O   UNL     1       3.277   3.669  17.965  0.00  0.00    +0.000 OA
ATOM      3  N   UNL     1       5.385   3.706  18.920  0.00  0.00    +0.000 N 
ATOM      4  C   UNL     1       6.042   4.065  17.763  0.00  0.00    +0.000 A 
ATOM      5  N   UNL     1       5.555   4.260  16.564  0.00  0.00    +0.000 NA
ATOM      6  C   UNL     1       6.647   4.603  15.804  0.00  0.00    +0.000 A 
ATOM      7  N   UNL     1       7.798   4.655  16.491  0.00  0.00    +0.000 NA
ATOM      8  N   UNL     1       7.392   4.289  17.718  0.00  0.00    +0.000 N 
ATOM      9  H   UNL     1       5.926   3.572  19.752  0.00  0.00    +0.000 HD
ATOM     10  H   UNL     1       8.072   4.238  18.463  0.00  0.00    +0.000 HD
ENDROOT
BRANCH   1  17
ATOM     11  C   UNL     1       1.405   4.768  20.302  0.00  0.00    +0.000 C 
ATOM     12  C   UNL     1       2.271   3.675  20.814  0.00  0.00    +0.000 A 
ATOM     13  N   UNL     1       1.982   3.093  21.983  0.00  0.00    +0.000 NA
ATOM     14  O   UNL     1       2.950   2.140  22.174  0.00  0.00    +0.000 OA
ATOM     15  C   UNL     1       3.822   2.142  21.129  0.00  0.00    +0.000 A 
ATOM     16  C   UNL     1       4.911   1.153  21.258  0.00  0.00    +0.000 C 
ATOM     17  C   UNL     1       3.438   3.104  20.211  0.00  0.00    +0.000 A 
ENDBRANCH   1  17
BRANCH   6  18
ATOM     18  C   UNL     1       6.528   4.997  14.362  0.00  0.00    +0.000 C 
ATOM     19  C   UNL     1       6.221   3.800  13.468  0.00  0.00    +0.000 C 
ATOM     20  C   UNL     1       6.868   4.177  12.163  0.00  0.00    +0.000 C 
ATOM     21  C   UNL     1       8.089   4.941  12.620  0.00  0.00    +0.000 C 
ATOM     22  O   UNL     1       7.730   5.611  13.833  0.00  0.00    +0.000 OA
ENDBRANCH   6  18
TORSDOF 2
ENDMDL
MODEL 2
REMARK VINA RESULT:      -7.9      0.493      1.824
REMARK  Name = 
REMARK  4 active torsions:
REMARK  status: ('A' for Active; 'I' for Inactive)
REMARK    1  A    between atoms: C_1  and  C_2
REMARK    2  A    between atoms: C_5  and  C_6
REMARK    3  A    between atoms: C_7  and  C_8
REMARK    4  A    between atoms: C_13  and  C_14
REMARK                            x       y       z     vdW  Elec       q    Type
REMARK                         _______ _______ _______ _____ _____    ______ ____
ROOT
ATOM      1  C   UNL     1       3.846   3.737  18.881  0.00  0.00    +0.000 C 
ATOM      2  O   UNL     1       3.141   3.916  17.895  0.00  0.00    +0.000 OA
ATOM      3  N   UNL     1       5.226   3.845  18.897  0.00  0.00    +0.000 N 
ATOM      4  C   UNL     1       5.928   4.141  17.750  0.00  0.00    +0.000 A 
ATOM      5  N   UNL     1       5.481   4.342  16.537  0.00  0.00    +0.000 NA
ATOM      6  C   UNL     1       6.607   4.605  15.796  0.00  0.00    +0.000 A 
ATOM      7  N   UNL     1       7.745   4.601  16.508  0.00  0.00    +0.000 NA
ATOM      8  N   UNL     1       7.290   4.283  17.732  0.00  0.00    +0.000 N 
ATOM      9  H   UNL     1       5.739   3.695  19.744  0.00  0.00    +0.000 HD
ATOM     10  H   UNL     1       7.950   4.207  18.493  0.00  0.00    +0.000 HD
ENDROOT
BRANCH   1  17
ATOM     11  C   UNL     1       4.745   1.350  20.819  0.00  0.00    +0.000 C 
ATOM     12  C   UNL     1       3.629   2.313  21.010  0.00  0.00    +0.000 A 
ATOM     13  N   UNL     1       2.868   2.234  22.106  0.00  0.00    +0.000 NA
ATOM     14  O   UNL     1       1.943   3.242  21.990  0.00  0.00    +0.000 OA
ATOM     15  C   UNL     1       2.140   3.927  20.832  0.00  0.00    +0.000 A 
ATOM     16  C   UNL     1       1.177   5.026  20.616  0.00  0.00    +0.000 C 
ATOM     17  C   UNL     1       3.218   3.385  20.154  0.00  0.00    +0.000 A 
ENDBRANCH   1  17
BRANCH   6  18
ATOM     18  C   UNL     1       6.544   4.978  14.345  0.00  0.00    +0.000 C 
ATOM     19  C   UNL     1       6.294   3.764  13.456  0.00  0.00    +0.000 C 
ATOM     20  C   UNL     1       6.991   4.134  12.174  0.00  0.00    +0.000 C 
ATOM     21  C   UNL     1       8.180   4.924  12.672  0.00  0.00    +0.000 C 
ATOM     22  O   UNL     1       7.758   5.604  13.859  0.00  0.00    +0.000 OA
ENDBRANCH   6  18
TORSDOF 2
ENDMDL
MODEL 3
REMARK VINA RESULT:      -7.6      6.201      8.054
REMARK  Name = 
REMARK  4 active torsions:
REMARK  status: ('A' for Active; 'I' for Inactive)
REMARK    1  A    between atoms: C_1  and  C_2
REMARK    2  A    between atoms: C_5  and  C_6
REMARK    3  A    between atoms: C_7  and  C_8
REMARK    4  A    between atoms: C_13  and  C_14
REMARK                            x       y       z     vdW  Elec       q    Type
REMARK                         _______ _______ _______ _____ _____    ______ ____
ROOT
ATOM      1  C   UNL     1       9.043  10.241  18.748  0.00  0.00    +0.000 C 
ATOM      2  O   UNL     1       8.533  10.575  17.685  0.00  0.00    +0.000 OA
ATOM      3  N   UNL     1       9.015   8.960  19.271  0.00  0.00    +0.000 N 
ATOM      4  C   UNL     1       8.356   7.942  18.620  0.00  0.00    +0.000 A 
ATOM      5  N   UNL     1       7.678   7.980  17.501  0.00  0.00    +0.000 NA
ATOM      6  C   UNL     1       7.245   6.689  17.318  0.00  0.00    +0.000 A 
ATOM      7  N   UNL     1       7.650   5.836  18.272  0.00  0.00    +0.000 NA
ATOM      8  N   UNL     1       8.328   6.657  19.092  0.00  0.00    +0.000 N 
ATOM      9  H   UNL     1       9.464   8.756  20.143  0.00  0.00    +0.000 HD
ATOM     10  H   UNL     1       8.756   6.273  19.923  0.00  0.00    +0.000 HD
ENDROOT
BRANCH   1  17
ATOM     11  C   UNL     1      11.662  11.854  17.855  0.00  0.00    +0.000 C 
ATOM     12  C   UNL     1      10.919  11.956  19.137  0.00  0.00    +0.000 A 
ATOM     13  N   UNL     1      11.337  12.808  20.079  0.00  0.00    +0.000 NA
ATOM     14  O   UNL     1      10.458  12.669  21.123  0.00  0.00    +0.000 OA
ATOM     15  C   UNL     1       9.513  11.738  20.819  0.00  0.00    +0.000 A 
ATOM     16  C   UNL     1       8.529  11.512  21.897  0.00  0.00    +0.000 C 
ATOM     17  C   UNL     1       9.747  11.243  19.548  0.00  0.00    +0.000 A 
ENDBRANCH   1  17
BRANCH   6  18
ATOM     18  C   UNL     1       6.490   6.261  16.096  0.00  0.00    +0.000 C 
ATOM     19  C   UNL     1       5.363   5.290  16.434  0.00  0.00    +0.000 C 
ATOM     20  C   UNL     1       5.263   4.443  15.194  0.00  0.00    +0.000 C 
ATOM     21  C   UNL     1       6.703   4.365  14.743  0.00  0.00    +0.000 C 
ATOM     22  O   UNL     1       7.321   5.604  15.107  0.00  0.00    +0.000 OA
ENDBRANCH   6  18
TORSDOF 2
ENDMDL
MODEL 4
REMARK VINA RESULT:      -7.4      4.760      7.524
REMARK  Name = 
REMARK  4 active torsions:
REMARK  status: ('A' for Active; 'I' for Inactive)
REMARK    1  A    between atoms: C_1  and  C_2
REMARK    2  A    between atoms: C_5  and  C_6
REMARK    3  A    between atoms: C_7  and  C_8
REMARK    4  A    between atoms: C_13  and  C_14
REMARK                            x       y       z     vdW  Elec       q    Type
REMARK                         _______ _______ _______ _____ _____    ______ ____
ROOT
ATOM      1  C   UNL     1       2.755   6.029  19.337  0.00  0.00    +0.000 C 
ATOM      2  O   UNL     1       2.466   6.439  18.218  0.00  0.00    +0.000 OA
ATOM      3  N   UNL     1       2.433   6.669  20.521  0.00  0.00    +0.000 N 
ATOM      4  C   UNL     1       1.768   7.875  20.519  0.00  0.00    +0.000 A 
ATOM      5  N   UNL     1       1.364   8.593  19.502  0.00  0.00    +0.000 NA
ATOM      6  C   UNL     1       0.758   9.685  20.073  0.00  0.00    +0.000 A 
ATOM      7  N   UNL     1       0.746   9.665  21.415  0.00  0.00    +0.000 NA
ATOM      8  N   UNL     1       1.410   8.524  21.669  0.00  0.00    +0.000 N 
ATOM      9  H   UNL     1       2.693   6.270  21.403  0.00  0.00    +0.000 HD
ATOM     10  H   UNL     1       1.555   8.249  22.630  0.00  0.00    +0.000 HD
ENDROOT
BRANCH   1  17
ATOM     11  C   UNL     1       1.493   3.192  20.125  0.00  0.00    +0.000 C 
ATOM     12  C   UNL     1       2.913   3.510  19.825  0.00  0.00    +0.000 A 
ATOM     13  N   UNL     1       3.832   2.539  19.866  0.00  0.00    +0.000 NA
ATOM     14  O   UNL     1       5.023   3.141  19.547  0.00  0.00    +0.000 OA
ATOM     15  C   UNL     1       4.831   4.467  19.315  0.00  0.00    +0.000 A 
ATOM     16  C   UNL     1       6.069   5.200  18.978  0.00  0.00    +0.000 C 
ATOM     17  C   UNL     1       3.490   4.772  19.469  0.00  0.00    +0.000 A 
ENDBRANCH   1  17
BRANCH   6  18
ATOM     18  C   UNL     1       0.072  10.740  19.258  0.00  0.00    +0.000 C 
ATOM     19  C   UNL     1      -1.060  11.409  20.029  0.00  0.00    +0.000 C 
ATOM     20  C   UNL     1      -2.031  11.790  18.944  0.00  0.00    +0.000 C 
ATOM     21  C   UNL     1      -1.873  10.654  17.959  0.00  0.00    +0.000 C 
ATOM     22  O   UNL     1      -0.507  10.230  18.030  0.00  0.00    +0.000 OA
ENDBRANCH   6  18
TORSDOF 2
ENDMDL
MODEL 5
REMARK VINA RESULT:      -7.3      4.619      7.361
REMARK  Name = 
REMARK  4 active torsions:
REMARK  status: ('A' for Active; 'I' for Inactive)
REMARK    1  A    between atoms: C_1  and  C_2
REMARK    2  A    between atoms: C_5  and  C_6
REMARK    3  A    between atoms: C_7  and  C_8
REMARK    4  A    between atoms: C_13  and  C_14
REMARK                            x       y       z     vdW  Elec       q    Type
REMARK                         _______ _______ _______ _____ _____    ______ ____
ROOT
ATOM      1  C   UNL     1       2.590   5.711  19.537  0.00  0.00    +0.000 C 
ATOM      2  O   UNL     1       2.316   6.030  18.386  0.00  0.00    +0.000 OA
ATOM      3  N   UNL     1       2.335   6.487  20.654  0.00  0.00    +0.000 N 
ATOM      4  C   UNL     1       1.763   7.734  20.538  0.00  0.00    +0.000 A 
ATOM      5  N   UNL     1       1.398   8.377  19.458  0.00  0.00    +0.000 NA
ATOM      6  C   UNL     1       0.885   9.564  19.923  0.00  0.00    +0.000 A 
ATOM      7  N   UNL     1       0.891   9.676  21.260  0.00  0.00    +0.000 NA
ATOM      8  N   UNL     1       1.471   8.518  21.621  0.00  0.00    +0.000 N 
ATOM      9  H   UNL     1       2.577   6.157  21.569  0.00  0.00    +0.000 HD
ATOM     10  H   UNL     1       1.609   8.327  22.603  0.00  0.00    +0.000 HD
ENDROOT
BRANCH   1  17
ATOM     11  C   UNL     1       5.539   4.872  18.613  0.00  0.00    +0.000 C 
ATOM     12  C   UNL     1       4.551   4.058  19.366  0.00  0.00    +0.000 A 
ATOM     13  N   UNL     1       4.866   2.813  19.741  0.00  0.00    +0.000 NA
ATOM     14  O   UNL     1       3.765   2.335  20.405  0.00  0.00    +0.000 OA
ATOM     15  C   UNL     1       2.787   3.280  20.433  0.00  0.00    +0.000 A 
ATOM     16  C   UNL     1       1.554   2.844  21.119  0.00  0.00    +0.000 C 
ATOM     17  C   UNL     1       3.231   4.421  19.787  0.00  0.00    +0.000 A 
ENDBRANCH   1  17
BRANCH   6  18
ATOM     18  C   UNL     1       0.268  10.582  19.012  0.00  0.00    +0.000 C 
ATOM     19  C   UNL     1      -0.802  11.405  19.721  0.00  0.00    +0.000 C 
ATOM     20  C   UNL     1      -1.756  11.751  18.609  0.00  0.00    +0.000 C 
ATOM     21  C   UNL     1      -1.694  10.517  17.739  0.00  0.00    +0.000 C 
ATOM     22  O   UNL     1      -0.362  10.001  17.843  0.00  0.00    +0.000 OA
ENDBRANCH   6  18
TORSDOF 2
ENDMDL
MODEL 6
REMARK VINA RESULT:      -7.3      2.625      3.216
REMARK  Name = 
REMARK  4 active torsions:
REMARK  status: ('A' for Active; 'I' for Inactive)
REMARK    1  A    between atoms: C_1  and  C_2
REMARK    2  A    between atoms: C_5  and  C_6
REMARK    3  A    between atoms: C_7  and  C_8
REMARK    4  A    between atoms: C_13  and  C_14
REMARK                            x       y       z     vdW  Elec       q    Type
REMARK                         _______ _______ _______ _____ _____    ______ ____
ROOT
ATOM      1  C   UNL     1       3.417   5.923  18.015  0.00  0.00    +0.000 C 
ATOM      2  O   UNL     1       2.972   4.989  17.358  0.00  0.00    +0.000 OA
ATOM      3  N   UNL     1       4.664   6.494  17.834  0.00  0.00    +0.000 N 
ATOM      4  C   UNL     1       5.536   6.008  16.885  0.00  0.00    +0.000 A 
ATOM      5  N   UNL     1       5.385   5.003  16.062  0.00  0.00    +0.000 NA
ATOM      6  C   UNL     1       6.554   4.970  15.341  0.00  0.00    +0.000 A 
ATOM      7  N   UNL     1       7.424   5.938  15.667  0.00  0.00    +0.000 NA
ATOM      8  N   UNL     1       6.767   6.564  16.659  0.00  0.00    +0.000 N 
ATOM      9  H   UNL     1       4.959   7.264  18.402  0.00  0.00    +0.000 HD
ATOM     10  H   UNL     1       7.202   7.358  17.107  0.00  0.00    +0.000 HD
ENDROOT
BRANCH   1  17
ATOM     11  C   UNL     1       2.283   8.918  18.076  0.00  0.00    +0.000 C 
ATOM     12  C   UNL     1       2.096   7.849  19.091  0.00  0.00    +0.000 A 
ATOM     13  N   UNL     1       1.374   8.096  20.188  0.00  0.00    +0.000 NA
ATOM     14  O   UNL     1       1.389   6.932  20.914  0.00  0.00    +0.000 OA
ATOM     15  C   UNL     1       2.115   5.983  20.263  0.00  0.00    +0.000 A 
ATOM     16  C   UNL     1       2.197   4.696  20.982  0.00  0.00    +0.000 C 
ATOM     17  C   UNL     1       2.595   6.506  19.075  0.00  0.00    +0.000 A 
ENDBRANCH   1  17
BRANCH   6  18
ATOM     18  C   UNL     1       6.774   4.008  14.213  0.00  0.00    +0.000 C 
ATOM     19  C   UNL     1       7.434   4.678  13.013  0.00  0.00    +0.000 C 
ATOM     20  C   UNL     1       6.897   3.891  11.848  0.00  0.00    +0.000 C 
ATOM     21  C   UNL     1       5.496   3.557  12.306  0.00  0.00    +0.000 C 
ATOM     22  O   UNL     1       5.550   3.401  13.728  0.00  0.00    +0.000 OA
ENDBRANCH   6  18
TORSDOF 2
ENDMDL
MODEL 7
REMARK VINA RESULT:      -7.2      2.029      2.484
REMARK  Name = 
REMARK  4 active torsions:
REMARK  status: ('A' for Active; 'I' for Inactive)
REMARK    1  A    between atoms: C_1  and  C_2
REMARK    2  A    between atoms: C_5  and  C_6
REMARK    3  A    between atoms: C_7  and  C_8
REMARK    4  A    between atoms: C_13  and  C_14
REMARK                            x       y       z     vdW  Elec       q    Type
REMARK                         _______ _______ _______ _____ _____    ______ ____
ROOT
ATOM      1  C   UNL     1       4.018   4.393  17.331  0.00  0.00    +0.000 C 
ATOM      2  O   UNL     1       3.324   3.803  16.511  0.00  0.00    +0.000 OA
ATOM      3  N   UNL     1       5.270   4.923  17.073  0.00  0.00    +0.000 N 
ATOM      4  C   UNL     1       5.857   4.786  15.835  0.00  0.00    +0.000 A 
ATOM      5  N   UNL     1       5.404   4.177  14.769  0.00  0.00    +0.000 NA
ATOM      6  C   UNL     1       6.387   4.358  13.827  0.00  0.00    +0.000 A 
ATOM      7  N   UNL     1       7.431   5.082  14.257  0.00  0.00    +0.000 NA
ATOM      8  N   UNL     1       7.082   5.319  15.533  0.00  0.00    +0.000 N 
ATOM      9  H   UNL     1       5.778   5.403  17.790  0.00  0.00    +0.000 HD
ATOM     10  H   UNL     1       7.704   5.860  16.117  0.00  0.00    +0.000 HD
ENDROOT
BRANCH   1  17
ATOM     11  C   UNL     1       2.561   7.013  18.461  0.00  0.00    +0.000 C 
ATOM     12  C   UNL     1       2.868   5.753  19.186  0.00  0.00    +0.000 A 
ATOM     13  N   UNL     1       2.518   5.626  20.470  0.00  0.00    +0.000 NA
ATOM     14  O   UNL     1       2.932   4.373  20.846  0.00  0.00    +0.000 OA
ATOM     15  C   UNL     1       3.530   3.742  19.799  0.00  0.00    +0.000 A 
ATOM     16  C   UNL     1       4.022   2.387  20.119  0.00  0.00    +0.000 C 
ATOM     17  C   UNL     1       3.516   4.574  18.693  0.00  0.00    +0.000 A 
ENDBRANCH   1  17
BRANCH   6  18
ATOM     18  C   UNL     1       6.240   3.884  12.412  0.00  0.00    +0.000 C 
ATOM     19  C   UNL     1       4.784   3.610  12.053  0.00  0.00    +0.000 C 
ATOM     20  C   UNL     1       4.888   2.511  11.029  0.00  0.00    +0.000 C 
ATOM     21  C   UNL     1       6.080   1.725  11.524  0.00  0.00    +0.000 C 
ATOM     22  O   UNL     1       6.972   2.663  12.136  0.00  0.00    +0.000 OA
ENDBRANCH   6  18
TORSDOF 2
ENDMDL
MODEL 8
REMARK VINA RESULT:      -7.2      5.445      8.590
REMARK  Name = 
REMARK  4 active torsions:
REMARK  status: ('A' for Active; 'I' for Inactive)
REMARK    1  A    between atoms: C_1  and  C_2
REMARK    2  A    between atoms: C_5  and  C_6
REMARK    3  A    between atoms: C_7  and  C_8
REMARK    4  A    between atoms: C_13  and  C_14
REMARK                            x       y       z     vdW  Elec       q    Type
REMARK                         _______ _______ _______ _____ _____    ______ ____
ROOT
ATOM      1  C   UNL     1       2.642   6.800  18.659  0.00  0.00    +0.000 C 
ATOM      2  O   UNL     1       2.608   6.701  19.880  0.00  0.00    +0.000 OA
ATOM      3  N   UNL     1       2.177   7.888  17.940  0.00  0.00    +0.000 N 
ATOM      4  C   UNL     1       1.591   8.960  18.576  0.00  0.00    +0.000 A 
ATOM      5  N   UNL     1       1.365   9.141  19.852  0.00  0.00    +0.000 NA
ATOM      6  C   UNL     1       0.770  10.377  19.923  0.00  0.00    +0.000 A 
ATOM      7  N   UNL     1       0.639  10.991  18.737  0.00  0.00    +0.000 NA
ATOM      8  N   UNL     1       1.144  10.066  17.903  0.00  0.00    +0.000 N 
ATOM      9  H   UNL     1       2.246   7.906  16.941  0.00  0.00    +0.000 HD
ATOM     10  H   UNL     1       1.171  10.264  16.913  0.00  0.00    +0.000 HD
ENDROOT
BRANCH   1  17
ATOM     11  C   UNL     1       1.413   3.858  18.362  0.00  0.00    +0.000 C 
ATOM     12  C   UNL     1       2.653   4.397  17.746  0.00  0.00    +0.000 A 
ATOM     13  N   UNL     1       3.394   3.614  16.955  0.00  0.00    +0.000 NA
ATOM     14  O   UNL     1       4.451   4.389  16.550  0.00  0.00    +0.000 OA
ATOM     15  C   UNL     1       4.355   5.633  17.091  0.00  0.00    +0.000 A 
ATOM     16  C   UNL     1       5.464   6.535  16.719  0.00  0.00    +0.000 C 
ATOM     17  C   UNL     1       3.212   5.710  17.868  0.00  0.00    +0.000 A 
ENDBRANCH   1  17
BRANCH   6  18
ATOM     18  C   UNL     1       0.413  11.022  21.229  0.00  0.00    +0.000 C 
ATOM     19  C   UNL     1      -0.238  10.035  22.191  0.00  0.00    +0.000 C 
ATOM     20  C   UNL     1      -1.154  10.909  23.006  0.00  0.00    +0.000 C 
ATOM     21  C   UNL     1      -1.602  11.936  21.991  0.00  0.00    +0.000 C 
ATOM     22  O   UNL     1      -0.508  12.133  21.089  0.00  0.00    +0.000 OA
ENDBRANCH   6  18
TORSDOF 2
ENDMDL
MODEL 9
REMARK VINA RESULT:      -7.1      5.459      8.614
REMARK  Name = 
REMARK  4 active torsions:
REMARK  status: ('A' for Active; 'I' for Inactive)
REMARK    1  A    between atoms: C_1  and  C_2
REMARK    2  A    between atoms: C_5  and  C_6
REMARK    3  A    between atoms: C_7  and  C_8
REMARK    4  A    between atoms: C_13  and  C_14
REMARK                            x       y       z     vdW  Elec       q    Type
REMARK                         _______ _______ _______ _____ _____    ______ ____
ROOT
ATOM      1  C   UNL     1       2.579   6.796  18.703  0.00  0.00    +0.000 C 
ATOM      2  O   UNL     1       2.528   6.719  19.925  0.00  0.00    +0.000 OA
ATOM      3  N   UNL     1       2.148   7.881  17.960  0.00  0.00    +0.000 N 
ATOM      4  C   UNL     1       1.580   8.977  18.569  0.00  0.00    +0.000 A 
ATOM      5  N   UNL     1       1.341   9.186  19.839  0.00  0.00    +0.000 NA
ATOM      6  C   UNL     1       0.775  10.437  19.880  0.00  0.00    +0.000 A 
ATOM      7  N   UNL     1       0.673  11.032  18.681  0.00  0.00    +0.000 NA
ATOM      8  N   UNL     1       1.167  10.080  17.870  0.00  0.00    +0.000 N 
ATOM      9  H   UNL     1       2.231   7.880  16.962  0.00  0.00    +0.000 HD
ATOM     10  H   UNL     1       1.211  10.261  16.877  0.00  0.00    +0.000 HD
ENDROOT
BRANCH   1  17
ATOM     11  C   UNL     1       5.375   6.798  17.141  0.00  0.00    +0.000 C 
ATOM     12  C   UNL     1       4.386   5.694  17.244  0.00  0.00    +0.000 A 
ATOM     13  N   UNL     1       4.630   4.528  16.637  0.00  0.00    +0.000 NA
ATOM     14  O   UNL     1       3.549   3.731  16.915  0.00  0.00    +0.000 OA
ATOM     15  C   UNL     1       2.653   4.407  17.684  0.00  0.00    +0.000 A 
ATOM     16  C   UNL     1       1.445   3.626  18.021  0.00  0.00    +0.000 C 
ATOM     17  C   UNL     1       3.134   5.679  17.940  0.00  0.00    +0.000 A 
ENDBRANCH   1  17
BRANCH   6  18
ATOM     18  C   UNL     1       0.416  11.113  21.169  0.00  0.00    +0.000 C 
ATOM     19  C   UNL     1      -0.192  10.138  22.172  0.00  0.00    +0.000 C 
ATOM     20  C   UNL     1      -1.123  11.011  22.971  0.00  0.00    +0.000 C 
ATOM     21  C   UNL     1      -1.615  11.990  21.930  0.00  0.00    +0.000 C 
ATOM     22  O   UNL     1      -0.540  12.190  21.006  0.00  0.00    +0.000 OA
ENDBRANCH   6  18
TORSDOF 2
ENDMDL
