MODEL 1
REMARK VINA RESULT:      -8.2      0.000      0.000
REMARK  Name = 
REMARK  8 active torsions:
REMARK  status: ('A' for Active; 'I' for Inactive)
REMARK    1  A    between atoms: C_1  and  C_2
REMARK    2  A    between atoms: C_6  and  C_7
REMARK    3  A    between atoms: C_8  and  N_9
REMARK    4  A    between atoms: N_12  and  C_13
REMARK    5  A    between atoms: C_13  and  C_14
REMARK    6  A    between atoms: C_14  and  C_15
REMARK    7  A    between atoms: N_18  and  C_19
REMARK    8  A    between atoms: C_19  and  C_20
REMARK                            x       y       z     vdW  Elec       q    Type
REMARK                         _______ _______ _______ _____ _____    ______ ____
ROOT
ATOM      1  C   UNL     1       0.035  10.505  19.901  0.00  0.00    +0.000 C 
ATOM      2  C   UNL     1      -0.095   9.343  20.900  0.00  0.00    +0.000 C 
ATOM      3  C   UNL     1       1.101   8.377  20.874  0.00  0.00    +0.000 C 
ATOM      4  N   UNL     1       1.469   7.929  19.516  0.00  0.00    +0.000 NA
ATOM      5  C   UNL     1       1.669   9.069  18.613  0.00  0.00    +0.000 C 
ATOM      6  C   UNL     1       0.399   9.912  18.537  0.00  0.00    +0.000 C 
ENDROOT
BRANCH   1   7
ATOM      7  C   UNL     1       1.032  11.579  20.392  0.00  0.00    +0.000 C 
BRANCH   7   8
ATOM      8  C   UNL     1       0.345  12.737  21.127  0.00  0.00    +0.000 C 
BRANCH   8  12
ATOM      9  N   UNL     1       0.945  15.937  19.538  0.00  0.00    +0.000 N 
ATOM     10  C   UNL     1       1.431  16.302  20.842  0.00  0.00    +0.000 C 
ATOM     11  C   UNL     1       0.978  15.132  21.703  0.00  0.00    +0.000 C 
ATOM     12  N   UNL     1       0.862  14.040  20.758  0.00  0.00    +0.000 N 
ATOM     13  C   UNL     1       0.634  14.572  19.468  0.00  0.00    +0.000 C 
ATOM     14  O   UNL     1       0.226  13.948  18.502  0.00  0.00    +0.000 OA
BRANCH   9  22
ATOM     15  C   UNL     1      -1.618  17.271  19.252  0.00  0.00    +0.000 C 
ATOM     16  C   UNL     1      -0.465  17.495  18.314  0.00  0.00    +0.000 A 
ATOM     17  C   UNL     1      -0.626  18.372  17.232  0.00  0.00    +0.000 A 
ATOM     18  C   UNL     1       0.430  18.629  16.361  0.00  0.00    +0.000 A 
ATOM     19  C   UNL     1       1.663  18.009  16.555  0.00  0.00    +0.000 A 
ATOM     20  C   UNL     1       1.853  17.118  17.620  0.00  0.00    +0.000 A 
ATOM     21  C   UNL     1       3.189  16.440  17.779  0.00  0.00    +0.000 C 
ATOM     22  C   UNL     1       0.780  16.861  18.499  0.00  0.00    +0.000 A 
ENDBRANCH   9  22
ENDBRANCH   8  12
ENDBRANCH   7   8
ENDBRANCH   1   7
BRANCH   4  23
ATOM     23  C   UNL     1       2.658   7.048  19.586  0.00  0.00    +0.000 C 
BRANCH  23  24
ATOM     24  C   UNL     1       2.814   5.981  18.467  0.00  0.00    +0.000 C 
ATOM     25  C   UNL     1       3.227   4.599  18.967  0.00  0.00    +0.000 C 
ATOM     26  O   UNL     1       4.554   4.571  19.504  0.00  0.00    +0.000 OA
ATOM     27  C   UNL     1       5.425   5.362  18.805  0.00  0.00    +0.000 A 
ATOM     28  C   UNL     1       6.765   5.293  19.177  0.00  0.00    +0.000 A 
ATOM     29  C   UNL     1       7.708   6.109  18.550  0.00  0.00    +0.000 A 
ATOM     30  C   UNL     1       7.315   6.970  17.524  0.00  0.00    +0.000 A 
ATOM     31  C   UNL     1       5.975   7.032  17.142  0.00  0.00    +0.000 A 
ATOM     32  C   UNL     1       5.030   6.253  17.805  0.00  0.00    +0.000 A 
ATOM     33  O   UNL     1       3.722   6.450  17.453  0.00  0.00    +0.000 OA
ENDBRANCH  23  24
ENDBRANCH   4  23
TORSDOF 6
ENDMDL
MODEL 2
REMARK VINA RESULT:      -8.1      1.189      1.251
REMARK  Name = 
REMARK  8 active torsions:
REMARK  status: ('A' for Active; 'I' for Inactive)
REMARK    1  A    between atoms: C_1  and  C_2
REMARK    2  A    between atoms: C_6  and  C_7
REMARK    3  A    between atoms: C_8  and  N_9
REMARK    4  A    between atoms: N_12  and  C_13
REMARK    5  A    between atoms: C_13  and  C_14
REMARK    6  A    between atoms: C_14  and  C_15
REMARK    7  A    between atoms: N_18  and  C_19
REMARK    8  A    between atoms: C_19  and  C_20
REMARK                            x       y       z     vdW  Elec       q    Type
REMARK                         _______ _______ _______ _____ _____    ______ ____
ROOT
ATOM      1  C   UNL     1       0.496   9.980  19.517  0.00  0.00    +0.000 C 
ATOM      2  C   UNL     1       0.590   8.777  20.470  0.00  0.00    +0.000 C 
ATOM      3  C   UNL     1       1.855   7.928  20.262  0.00  0.00    +0.000 C 
ATOM      4  N   UNL     1       2.095   7.564  18.851  0.00  0.00    +0.000 NA
ATOM      5  C   UNL     1       2.084   8.748  17.984  0.00  0.00    +0.000 C 
ATOM      6  C   UNL     1       0.745   9.471  18.095  0.00  0.00    +0.000 C 
ENDROOT
BRANCH   1   7
ATOM      7  C   UNL     1       1.445  11.124  19.938  0.00  0.00    +0.000 C 
BRANCH   7   8
ATOM      8  C   UNL     1       0.726  12.246  20.698  0.00  0.00    +0.000 C 
BRANCH   8  12
ATOM      9  N   UNL     1       1.178  15.587  19.375  0.00  0.00    +0.000 N 
ATOM     10  C   UNL     1       1.900  15.792  20.601  0.00  0.00    +0.000 C 
ATOM     11  C   UNL     1       1.555  14.545  21.401  0.00  0.00    +0.000 C 
ATOM     12  N   UNL     1       1.227  13.569  20.383  0.00  0.00    +0.000 N 
ATOM     13  C   UNL     1       0.799  14.247  19.217  0.00  0.00    +0.000 C 
ATOM     14  O   UNL     1       0.201  13.745  18.281  0.00  0.00    +0.000 OA
BRANCH   9  22
ATOM     15  C   UNL     1      -1.444  16.827  19.522  0.00  0.00    +0.000 C 
ATOM     16  C   UNL     1      -0.405  17.219  18.510  0.00  0.00    +0.000 A 
ATOM     17  C   UNL     1      -0.708  18.217  17.572  0.00  0.00    +0.000 A 
ATOM     18  C   UNL     1       0.241  18.629  16.640  0.00  0.00    +0.000 A 
ATOM     19  C   UNL     1       1.508  18.048  16.629  0.00  0.00    +0.000 A 
ATOM     20  C   UNL     1       1.839  17.041  17.545  0.00  0.00    +0.000 A 
ATOM     21  C   UNL     1       3.206  16.411  17.480  0.00  0.00    +0.000 C 
ATOM     22  C   UNL     1       0.874  16.626  18.485  0.00  0.00    +0.000 A 
ENDBRANCH   9  22
ENDBRANCH   8  12
ENDBRANCH   7   8
ENDBRANCH   1   7
BRANCH   4  23
ATOM     23  C   UNL     1       3.358   6.796  18.742  0.00  0.00    +0.000 C 
BRANCH  23  24
ATOM     24  C   UNL     1       3.239   5.249  18.675  0.00  0.00    +0.000 C 
ATOM     25  C   UNL     1       4.164   4.503  19.635  0.00  0.00    +0.000 C 
ATOM     26  O   UNL     1       5.549   4.647  19.305  0.00  0.00    +0.000 OA
ATOM     27  C   UNL     1       5.775   4.640  17.955  0.00  0.00    +0.000 A 
ATOM     28  C   UNL     1       7.106   4.643  17.546  0.00  0.00    +0.000 A 
ATOM     29  C   UNL     1       7.420   4.692  16.187  0.00  0.00    +0.000 A 
ATOM     30  C   UNL     1       6.400   4.703  15.234  0.00  0.00    +0.000 A 
ATOM     31  C   UNL     1       5.067   4.689  15.641  0.00  0.00    +0.000 A 
ATOM     32  C   UNL     1       4.758   4.690  17.000  0.00  0.00    +0.000 A 
ATOM     33  O   UNL     1       3.431   4.791  17.323  0.00  0.00    +0.000 OA
ENDBRANCH  23  24
ENDBRANCH   4  23
TORSDOF 6
ENDMDL
MODEL 3
REMARK VINA RESULT:      -8.1      1.237      2.029
REMARK  Name = 
REMARK  8 active torsions:
REMARK  status: ('A' for Active; 'I' for Inactive)
REMARK    1  A    between atoms: C_1  and  C_2
REMARK    2  A    between atoms: C_6  and  C_7
REMARK    3  A    between atoms: C_8  and  N_9
REMARK    4  A    between atoms: N_12  and  C_13
REMARK    5  A    between atoms: C_13  and  C_14
REMARK    6  A    between atoms: C_14  and  C_15
REMARK    7  A    between atoms: N_18  and  C_19
REMARK    8  A    between atoms: C_19  and  C_20
REMARK                            x       y       z     vdW  Elec       q    Type
REMARK                         _______ _______ _______ _____ _____    ______ ____
ROOT
ATOM      1  C   UNL     1       0.378  10.032  19.801  0.00  0.00    +0.000 C 
ATOM      2  C   UNL     1       0.588   8.694  20.530  0.00  0.00    +0.000 C 
ATOM      3  C   UNL     1       1.851   7.942  20.080  0.00  0.00    +0.000 C 
ATOM      4  N   UNL     1       1.977   7.824  18.614  0.00  0.00    +0.000 NA
ATOM      5  C   UNL     1       1.858   9.132  17.960  0.00  0.00    +0.000 C 
ATOM      6  C   UNL     1       0.515   9.773  18.299  0.00  0.00    +0.000 C 
ENDROOT
BRANCH   1   7
ATOM      7  C   UNL     1       1.330  11.129  20.327  0.00  0.00    +0.000 C 
BRANCH   7   8
ATOM      8  C   UNL     1       0.584  12.317  20.949  0.00  0.00    +0.000 C 
BRANCH   8  12
ATOM      9  N   UNL     1       1.243  15.547  19.447  0.00  0.00    +0.000 N 
ATOM     10  C   UNL     1       1.862  15.821  20.716  0.00  0.00    +0.000 C 
ATOM     11  C   UNL     1       1.413  14.641  21.565  0.00  0.00    +0.000 C 
ATOM     12  N   UNL     1       1.147  13.603  20.590  0.00  0.00    +0.000 N 
ATOM     13  C   UNL     1       0.842  14.207  19.348  0.00  0.00    +0.000 C 
ATOM     14  O   UNL     1       0.313  13.654  18.398  0.00  0.00    +0.000 OA
BRANCH   9  22
ATOM     15  C   UNL     1       3.402  16.113  17.589  0.00  0.00    +0.000 C 
ATOM     16  C   UNL     1       2.091  16.848  17.576  0.00  0.00    +0.000 A 
ATOM     17  C   UNL     1       1.893  17.874  16.640  0.00  0.00    +0.000 A 
ATOM     18  C   UNL     1       0.681  18.556  16.577  0.00  0.00    +0.000 A 
ATOM     19  C   UNL     1      -0.353  18.225  17.452  0.00  0.00    +0.000 A 
ATOM     20  C   UNL     1      -0.184  17.213  18.406  0.00  0.00    +0.000 A 
ATOM     21  C   UNL     1      -1.310  16.907  19.358  0.00  0.00    +0.000 C 
ATOM     22  C   UNL     1       1.047  16.527  18.466  0.00  0.00    +0.000 A 
ENDBRANCH   9  22
ENDBRANCH   8  12
ENDBRANCH   7   8
ENDBRANCH   1   7
BRANCH   4  23
ATOM     23  C   UNL     1       3.245   7.136  18.276  0.00  0.00    +0.000 C 
BRANCH  23  24
ATOM     24  C   UNL     1       3.343   5.626  18.624  0.00  0.00    +0.000 C 
ATOM     25  C   UNL     1       4.471   5.274  19.591  0.00  0.00    +0.000 C 
ATOM     26  O   UNL     1       5.773   5.470  19.030  0.00  0.00    +0.000 OA
ATOM     27  C   UNL     1       5.838   5.120  17.708  0.00  0.00    +0.000 A 
ATOM     28  C   UNL     1       7.098   5.155  17.116  0.00  0.00    +0.000 A 
ATOM     29  C   UNL     1       7.240   4.865  15.758  0.00  0.00    +0.000 A 
ATOM     30  C   UNL     1       6.125   4.507  14.999  0.00  0.00    +0.000 A 
ATOM     31  C   UNL     1       4.864   4.461  15.593  0.00  0.00    +0.000 A 
ATOM     32  C   UNL     1       4.720   4.799  16.937  0.00  0.00    +0.000 A 
ATOM     33  O   UNL     1       3.440   4.841  17.420  0.00  0.00    +0.000 OA
ENDBRANCH  23  24
ENDBRANCH   4  23
TORSDOF 6
ENDMDL
MODEL 4
REMARK VINA RESULT:      -8.1      0.568      1.613
REMARK  Name = 
REMARK  8 active torsions:
REMARK  status: ('A' for Active; 'I' for Inactive)
REMARK    1  A    between atoms: C_1  and  C_2
REMARK    2  A    between atoms: C_6  and  C_7
REMARK    3  A    between atoms: C_8  and  N_9
REMARK    4  A    between atoms: N_12  and  C_13
REMARK    5  A    between atoms: C_13  and  C_14
REMARK    6  A    between atoms: C_14  and  C_15
REMARK    7  A    between atoms: N_18  and  C_19
REMARK    8  A    between atoms: C_19  and  C_20
REMARK                            x       y       z     vdW  Elec       q    Type
REMARK                         _______ _______ _______ _____ _____    ______ ____
ROOT
ATOM      1  C   UNL     1      -0.284  10.240  20.676  0.00  0.00    +0.000 C 
ATOM      2  C   UNL     1       0.132   8.897  21.299  0.00  0.00    +0.000 C 
ATOM      3  C   UNL     1       1.424   8.318  20.699  0.00  0.00    +0.000 C 
ATOM      4  N   UNL     1       1.430   8.293  19.223  0.00  0.00    +0.000 NA
ATOM      5  C   UNL     1       1.113   9.613  18.665  0.00  0.00    +0.000 C 
ATOM      6  C   UNL     1      -0.255  10.079  19.154  0.00  0.00    +0.000 C 
ENDROOT
BRANCH   1   7
ATOM      7  C   UNL     1       0.587  11.408  21.190  0.00  0.00    +0.000 C 
BRANCH   7   8
ATOM      8  C   UNL     1      -0.214  12.698  21.408  0.00  0.00    +0.000 C 
BRANCH   8  12
ATOM      9  N   UNL     1       0.857  15.714  19.712  0.00  0.00    +0.000 N 
ATOM     10  C   UNL     1       1.406  16.041  21.000  0.00  0.00    +0.000 C 
ATOM     11  C   UNL     1       0.786  14.983  21.902  0.00  0.00    +0.000 C 
ATOM     12  N   UNL     1       0.494  13.893  20.994  0.00  0.00    +0.000 N 
ATOM     13  C   UNL     1       0.338  14.412  19.687  0.00  0.00    +0.000 C 
ATOM     14  O   UNL     1      -0.171  13.828  18.745  0.00  0.00    +0.000 OA
BRANCH   9  22
ATOM     15  C   UNL     1       3.204  15.950  18.017  0.00  0.00    +0.000 C 
ATOM     16  C   UNL     1       1.966  16.781  17.828  0.00  0.00    +0.000 A 
ATOM     17  C   UNL     1       1.934  17.735  16.801  0.00  0.00    +0.000 A 
ATOM     18  C   UNL     1       0.793  18.501  16.575  0.00  0.00    +0.000 A 
ATOM     19  C   UNL     1      -0.334  18.327  17.376  0.00  0.00    +0.000 A 
ATOM     20  C   UNL     1      -0.332  17.391  18.418  0.00  0.00    +0.000 A 
ATOM     21  C   UNL     1      -1.556  17.255  19.286  0.00  0.00    +0.000 C 
ATOM     22  C   UNL     1       0.827  16.619  18.643  0.00  0.00    +0.000 A 
ENDBRANCH   9  22
ENDBRANCH   8  12
ENDBRANCH   7   8
ENDBRANCH   1   7
BRANCH   4  23
ATOM     23  C   UNL     1       2.729   7.772  18.738  0.00  0.00    +0.000 C 
BRANCH  23  24
ATOM     24  C   UNL     1       2.732   6.346  18.121  0.00  0.00    +0.000 C 
ATOM     25  C   UNL     1       2.914   5.220  19.136  0.00  0.00    +0.000 C 
ATOM     26  O   UNL     1       4.210   5.215  19.741  0.00  0.00    +0.000 OA
ATOM     27  C   UNL     1       5.207   5.546  18.863  0.00  0.00    +0.000 A 
ATOM     28  C   UNL     1       6.513   5.439  19.334  0.00  0.00    +0.000 A 
ATOM     29  C   UNL     1       7.583   5.810  18.517  0.00  0.00    +0.000 A 
ATOM     30  C   UNL     1       7.347   6.255  17.216  0.00  0.00    +0.000 A 
ATOM     31  C   UNL     1       6.040   6.352  16.739  0.00  0.00    +0.000 A 
ATOM     32  C   UNL     1       4.974   6.029  17.574  0.00  0.00    +0.000 A 
ATOM     33  O   UNL     1       3.719   6.256  17.076  0.00  0.00    +0.000 OA
ENDBRANCH  23  24
ENDBRANCH   4  23
TORSDOF 6
ENDMDL
MODEL 5
REMARK VINA RESULT:      -8.0      6.734      8.230
REMARK  Name = 
REMARK  8 active torsions:
REMARK  status: ('A' for Active; 'I' for Inactive)
REMARK    1  A    between atoms: C_1  and  C_2
REMARK    2  A    between atoms: C_6  and  C_7
REMARK    3  A    between atoms: C_8  and  N_9
REMARK    4  A    between atoms: N_12  and  C_13
REMARK    5  A    between atoms: C_13  and  C_14
REMARK    6  A    between atoms: C_14  and  C_15
REMARK    7  A    between atoms: N_18  and  C_19
REMARK    8  A    between atoms: C_19  and  C_20
REMARK                            x       y       z     vdW  Elec       q    Type
REMARK                         _______ _______ _______ _____ _____    ______ ____
ROOT
ATOM      1  C   UNL     1       8.091   7.127  17.781  0.00  0.00    +0.000 C 
ATOM      2  C   UNL     1       7.460   6.694  16.447  0.00  0.00    +0.000 C 
ATOM      3  C   UNL     1       5.958   6.384  16.552  0.00  0.00    +0.000 C 
ATOM      4  N   UNL     1       5.619   5.479  17.669  0.00  0.00    +0.000 NA
ATOM      5  C   UNL     1       6.165   5.970  18.939  0.00  0.00    +0.000 C 
ATOM      6  C   UNL     1       7.682   6.105  18.845  0.00  0.00    +0.000 C 
ENDROOT
BRANCH   1   7
ATOM      7  C   UNL     1       7.723   8.581  18.148  0.00  0.00    +0.000 C 
BRANCH   7   8
ATOM      8  C   UNL     1       8.884   9.345  18.798  0.00  0.00    +0.000 C 
BRANCH   8  12
ATOM      9  N   UNL     1       9.588  12.889  18.542  0.00  0.00    +0.000 N 
ATOM     10  C   UNL     1       8.406  12.892  17.723  0.00  0.00    +0.000 C 
ATOM     11  C   UNL     1       8.151  11.407  17.504  0.00  0.00    +0.000 C 
ATOM     12  N   UNL     1       8.784  10.783  18.647  0.00  0.00    +0.000 N 
ATOM     13  C   UNL     1       9.804  11.635  19.131  0.00  0.00    +0.000 C 
ATOM     14  O   UNL     1      10.699  11.312  19.894  0.00  0.00    +0.000 OA
BRANCH   9  22
ATOM     15  C   UNL     1       9.175  14.654  20.811  0.00  0.00    +0.000 C 
ATOM     16  C   UNL     1      10.216  14.900  19.756  0.00  0.00    +0.000 A 
ATOM     17  C   UNL     1      11.022  16.044  19.847  0.00  0.00    +0.000 A 
ATOM     18  C   UNL     1      12.020  16.289  18.907  0.00  0.00    +0.000 A 
ATOM     19  C   UNL     1      12.224  15.396  17.857  0.00  0.00    +0.000 A 
ATOM     20  C   UNL     1      11.429  14.249  17.730  0.00  0.00    +0.000 A 
ATOM     21  C   UNL     1      11.655  13.324  16.564  0.00  0.00    +0.000 C 
ATOM     22  C   UNL     1      10.420  14.007  18.686  0.00  0.00    +0.000 A 
ENDBRANCH   9  22
ENDBRANCH   8  12
ENDBRANCH   7   8
ENDBRANCH   1   7
BRANCH   4  23
ATOM     23  C   UNL     1       4.152   5.282  17.723  0.00  0.00    +0.000 C 
BRANCH  23  24
ATOM     24  C   UNL     1       3.612   3.884  17.315  0.00  0.00    +0.000 C 
ATOM     25  C   UNL     1       2.124   3.858  16.973  0.00  0.00    +0.000 C 
ATOM     26  O   UNL     1       1.284   4.112  18.103  0.00  0.00    +0.000 OA
ATOM     27  C   UNL     1       1.757   3.540  19.254  0.00  0.00    +0.000 A 
ATOM     28  C   UNL     1       0.935   3.626  20.375  0.00  0.00    +0.000 A 
ATOM     29  C   UNL     1       1.369   3.116  21.600  0.00  0.00    +0.000 A 
ATOM     30  C   UNL     1       2.612   2.489  21.695  0.00  0.00    +0.000 A 
ATOM     31  C   UNL     1       3.431   2.392  20.570  0.00  0.00    +0.000 A 
ATOM     32  C   UNL     1       3.015   2.946  19.362  0.00  0.00    +0.000 A 
ATOM     33  O   UNL     1       3.918   2.913  18.333  0.00  0.00    +0.000 OA
ENDBRANCH  23  24
ENDBRANCH   4  23
TORSDOF 6
ENDMDL
MODEL 6
REMARK VINA RESULT:      -8.0      4.222     11.136
REMARK  Name = 
REMARK  8 active torsions:
REMARK  status: ('A' for Active; 'I' for Inactive)
REMARK    1  A    between atoms: C_1  and  C_2
REMARK    2  A    between atoms: C_6  and  C_7
REMARK    3  A    between atoms: C_8  and  N_9
REMARK    4  A    between atoms: N_12  and  C_13
REMARK    5  A    between atoms: C_13  and  C_14
REMARK    6  A    between atoms: C_14  and  C_15
REMARK    7  A    between atoms: N_18  and  C_19
REMARK    8  A    between atoms: C_19  and  C_20
REMARK                            x       y       z     vdW  Elec       q    Type
REMARK                         _______ _______ _______ _____ _____    ______ ____
ROOT
ATOM      1  C   UNL     1       9.541  10.156  18.661  0.00  0.00    +0.000 C 
ATOM      2  C   UNL     1       9.463  10.704  20.096  0.00  0.00    +0.000 C 
ATOM      3  C   UNL     1       8.836  12.105  20.183  0.00  0.00    +0.000 C 
ATOM      4  N   UNL     1       9.416  13.072  19.229  0.00  0.00    +0.000 NA
ATOM      5  C   UNL     1       9.394  12.548  17.858  0.00  0.00    +0.000 C 
ATOM      6  C   UNL     1      10.171  11.238  17.780  0.00  0.00    +0.000 C 
ENDROOT
BRANCH   1   7
ATOM      7  C   UNL     1       8.164   9.672  18.154  0.00  0.00    +0.000 C 
BRANCH   7   8
ATOM      8  C   UNL     1       8.223   8.284  17.503  0.00  0.00    +0.000 C 
BRANCH   8  12
ATOM      9  N   UNL     1       5.723   5.751  18.176  0.00  0.00    +0.000 N 
ATOM     10  C   UNL     1       6.596   5.421  19.270  0.00  0.00    +0.000 C 
ATOM     11  C   UNL     1       7.847   6.226  18.949  0.00  0.00    +0.000 C 
ATOM     12  N   UNL     1       7.349   7.315  18.134  0.00  0.00    +0.000 N 
ATOM     13  C   UNL     1       6.147   6.908  17.509  0.00  0.00    +0.000 C 
ATOM     14  O   UNL     1       5.615   7.462  16.561  0.00  0.00    +0.000 OA
BRANCH   9  22
ATOM     15  C   UNL     1       3.207   6.199  19.556  0.00  0.00    +0.000 C 
ATOM     16  C   UNL     1       3.391   5.142  18.504  0.00  0.00    +0.000 A 
ATOM     17  C   UNL     1       2.310   4.311  18.175  0.00  0.00    +0.000 A 
ATOM     18  C   UNL     1       2.433   3.343  17.182  0.00  0.00    +0.000 A 
ATOM     19  C   UNL     1       3.641   3.187  16.504  0.00  0.00    +0.000 A 
ATOM     20  C   UNL     1       4.744   3.993  16.816  0.00  0.00    +0.000 A 
ATOM     21  C   UNL     1       6.043   3.773  16.087  0.00  0.00    +0.000 C 
ATOM     22  C   UNL     1       4.613   4.972  17.823  0.00  0.00    +0.000 A 
ENDBRANCH   9  22
ENDBRANCH   8  12
ENDBRANCH   7   8
ENDBRANCH   1   7
BRANCH   4  23
ATOM     23  C   UNL     1       8.715  14.372  19.349  0.00  0.00    +0.000 C 
BRANCH  23  24
ATOM     24  C   UNL     1       8.399  15.128  18.029  0.00  0.00    +0.000 C 
ATOM     25  C   UNL     1       8.491  16.648  18.135  0.00  0.00    +0.000 C 
ATOM     26  O   UNL     1       7.481  17.213  18.976  0.00  0.00    +0.000 OA
ATOM     27  C   UNL     1       6.272  16.584  18.849  0.00  0.00    +0.000 A 
ATOM     28  C   UNL     1       5.200  17.151  19.533  0.00  0.00    +0.000 A 
ATOM     29  C   UNL     1       3.946  16.538  19.499  0.00  0.00    +0.000 A 
ATOM     30  C   UNL     1       3.757  15.375  18.751  0.00  0.00    +0.000 A 
ATOM     31  C   UNL     1       4.828  14.812  18.057  0.00  0.00    +0.000 A 
ATOM     32  C   UNL     1       6.088  15.399  18.134  0.00  0.00    +0.000 A 
ATOM     33  O   UNL     1       7.112  14.728  17.521  0.00  0.00    +0.000 OA
ENDBRANCH  23  24
ENDBRANCH   4  23
TORSDOF 6
ENDMDL
MODEL 7
REMARK VINA RESULT:      -7.9      5.963      7.717
REMARK  Name = 
REMARK  8 active torsions:
REMARK  status: ('A' for Active; 'I' for Inactive)
REMARK    1  A    between atoms: C_1  and  C_2
REMARK    2  A    between atoms: C_6  and  C_7
REMARK    3  A    between atoms: C_8  and  N_9
REMARK    4  A    between atoms: N_12  and  C_13
REMARK    5  A    between atoms: C_13  and  C_14
REMARK    6  A    between atoms: C_14  and  C_15
REMARK    7  A    between atoms: N_18  and  C_19
REMARK    8  A    between atoms: C_19  and  C_20
REMARK                            x       y       z     vdW  Elec       q    Type
REMARK                         _______ _______ _______ _____ _____    ______ ____
ROOT
ATOM      1  C   UNL     1       7.822   6.994  17.401  0.00  0.00    +0.000 C 
ATOM      2  C   UNL     1       6.421   7.317  16.854  0.00  0.00    +0.000 C 
ATOM      3  C   UNL     1       5.299   7.118  17.887  0.00  0.00    +0.000 C 
ATOM      4  N   UNL     1       5.360   5.815  18.579  0.00  0.00    +0.000 NA
ATOM      5  C   UNL     1       6.686   5.580  19.162  0.00  0.00    +0.000 C 
ATOM      6  C   UNL     1       7.756   5.621  18.074  0.00  0.00    +0.000 C 
ENDROOT
BRANCH   1   7
ATOM      7  C   UNL     1       8.350   8.111  18.328  0.00  0.00    +0.000 C 
BRANCH   7   8
ATOM      8  C   UNL     1       7.987   9.517  17.834  0.00  0.00    +0.000 C 
BRANCH   8  12
ATOM      9  N   UNL     1       9.605  12.638  18.706  0.00  0.00    +0.000 N 
ATOM     10  C   UNL     1      10.420  11.789  19.533  0.00  0.00    +0.000 C 
ATOM     11  C   UNL     1       9.669  10.466  19.488  0.00  0.00    +0.000 C 
ATOM     12  N   UNL     1       8.936  10.534  18.241  0.00  0.00    +0.000 N 
ATOM     13  C   UNL     1       8.735  11.892  17.899  0.00  0.00    +0.000 C 
ATOM     14  O   UNL     1       7.938  12.308  17.075  0.00  0.00    +0.000 OA
BRANCH   9  22
ATOM     15  C   UNL     1       8.049  14.046  20.713  0.00  0.00    +0.000 C 
ATOM     16  C   UNL     1       8.897  14.747  19.689  0.00  0.00    +0.000 A 
ATOM     17  C   UNL     1       8.933  16.149  19.677  0.00  0.00    +0.000 A 
ATOM     18  C   UNL     1       9.732  16.832  18.764  0.00  0.00    +0.000 A 
ATOM     19  C   UNL     1      10.506  16.125  17.846  0.00  0.00    +0.000 A 
ATOM     20  C   UNL     1      10.484  14.724  17.824  0.00  0.00    +0.000 A 
ATOM     21  C   UNL     1      11.306  13.993  16.794  0.00  0.00    +0.000 C 
ATOM     22  C   UNL     1       9.672  14.037  18.750  0.00  0.00    +0.000 A 
ENDBRANCH   9  22
ENDBRANCH   8  12
ENDBRANCH   7   8
ENDBRANCH   1   7
BRANCH   4  23
ATOM     23  C   UNL     1       4.277   5.735  19.587  0.00  0.00    +0.000 C 
BRANCH  23  24
ATOM     24  C   UNL     1       2.886   6.291  19.175  0.00  0.00    +0.000 C 
ATOM     25  C   UNL     1       1.928   6.522  20.342  0.00  0.00    +0.000 C 
ATOM     26  O   UNL     1       1.516   5.307  20.977  0.00  0.00    +0.000 OA
ATOM     27  C   UNL     1       1.318   4.285  20.089  0.00  0.00    +0.000 A 
ATOM     28  C   UNL     1       0.789   3.105  20.605  0.00  0.00    +0.000 A 
ATOM     29  C   UNL     1       0.609   1.998  19.774  0.00  0.00    +0.000 A 
ATOM     30  C   UNL     1       0.924   2.084  18.417  0.00  0.00    +0.000 A 
ATOM     31  C   UNL     1       1.443   3.269  17.896  0.00  0.00    +0.000 A 
ATOM     32  C   UNL     1       1.668   4.354  18.739  0.00  0.00    +0.000 A 
ATOM     33  O   UNL     1       2.284   5.442  18.180  0.00  0.00    +0.000 OA
ENDBRANCH  23  24
ENDBRANCH   4  23
TORSDOF 6
ENDMDL
MODEL 8
REMARK VINA RESULT:      -7.9      2.619      4.121
REMARK  Name = 
REMARK  8 active torsions:
REMARK  status: ('A' for Active; 'I' for Inactive)
REMARK    1  A    between atoms: C_1  and  C_2
REMARK    2  A    between atoms: C_6  and  C_7
REMARK    3  A    between atoms: C_8  and  N_9
REMARK    4  A    between atoms: N_12  and  C_13
REMARK    5  A    between atoms: C_13  and  C_14
REMARK    6  A    between atoms: C_14  and  C_15
REMARK    7  A    between atoms: N_18  and  C_19
REMARK    8  A    between atoms: C_19  and  C_20
REMARK                            x       y       z     vdW  Elec       q    Type
REMARK                         _______ _______ _______ _____ _____    ______ ____
ROOT
ATOM      1  C   UNL     1       0.705  10.112  18.662  0.00  0.00    +0.000 C 
ATOM      2  C   UNL     1       0.505   9.360  19.988  0.00  0.00    +0.000 C 
ATOM      3  C   UNL     1       1.614   8.336  20.284  0.00  0.00    +0.000 C 
ATOM      4  N   UNL     1       1.903   7.436  19.151  0.00  0.00    +0.000 NA
ATOM      5  C   UNL     1       2.173   8.192  17.922  0.00  0.00    +0.000 C 
ATOM      6  C   UNL     1       0.978   9.073  17.571  0.00  0.00    +0.000 C 
ENDROOT
BRANCH   1   7
ATOM      7  C   UNL     1       1.802  11.194  18.772  0.00  0.00    +0.000 C 
BRANCH   7   8
ATOM      8  C   UNL     1       1.271  12.610  18.511  0.00  0.00    +0.000 C 
BRANCH   8  12
ATOM      9  N   UNL     1      -0.732  13.537  21.383  0.00  0.00    +0.000 N 
ATOM     10  C   UNL     1       0.523  14.029  21.886  0.00  0.00    +0.000 C 
ATOM     11  C   UNL     1       1.525  13.451  20.897  0.00  0.00    +0.000 C 
ATOM     12  N   UNL     1       0.740  13.253  19.696  0.00  0.00    +0.000 N 
ATOM     13  C   UNL     1      -0.620  13.101  20.056  0.00  0.00    +0.000 C 
ATOM     14  O   UNL     1      -1.500  12.656  19.338  0.00  0.00    +0.000 OA
BRANCH   9  22
ATOM     15  C   UNL     1      -1.209  11.179  23.009  0.00  0.00    +0.000 C 
ATOM     16  C   UNL     1      -2.171  12.331  22.929  0.00  0.00    +0.000 A 
ATOM     17  C   UNL     1      -3.371  12.271  23.653  0.00  0.00    +0.000 A 
ATOM     18  C   UNL     1      -4.271  13.333  23.628  0.00  0.00    +0.000 A 
ATOM     19  C   UNL     1      -3.988  14.472  22.876  0.00  0.00    +0.000 A 
ATOM     20  C   UNL     1      -2.804  14.559  22.132  0.00  0.00    +0.000 A 
ATOM     21  C   UNL     1      -2.548  15.791  21.304  0.00  0.00    +0.000 C 
ATOM     22  C   UNL     1      -1.896  13.480  22.160  0.00  0.00    +0.000 A 
ENDBRANCH   9  22
ENDBRANCH   8  12
ENDBRANCH   7   8
ENDBRANCH   1   7
BRANCH   4  23
ATOM     23  C   UNL     1       3.015   6.525  19.509  0.00  0.00    +0.000 C 
BRANCH  23  24
ATOM     24  C   UNL     1       3.434   5.471  18.447  0.00  0.00    +0.000 C 
ATOM     25  C   UNL     1       4.111   4.229  19.024  0.00  0.00    +0.000 C 
ATOM     26  O   UNL     1       5.392   4.505  19.598  0.00  0.00    +0.000 OA
ATOM     27  C   UNL     1       6.103   5.434  18.887  0.00  0.00    +0.000 A 
ATOM     28  C   UNL     1       7.413   5.666  19.301  0.00  0.00    +0.000 A 
ATOM     29  C   UNL     1       8.185   6.637  18.662  0.00  0.00    +0.000 A 
ATOM     30  C   UNL     1       7.659   7.353  17.586  0.00  0.00    +0.000 A 
ATOM     31  C   UNL     1       6.351   7.114  17.164  0.00  0.00    +0.000 A 
ATOM     32  C   UNL     1       5.567   6.179  17.836  0.00  0.00    +0.000 A 
ATOM     33  O   UNL     1       4.261   6.080  17.438  0.00  0.00    +0.000 OA
ENDBRANCH  23  24
ENDBRANCH   4  23
TORSDOF 6
ENDMDL
MODEL 9
REMARK VINA RESULT:      -7.9      1.751      3.396
REMARK  Name = 
REMARK  8 active torsions:
REMARK  status: ('A' for Active; 'I' for Inactive)
REMARK    1  A    between atoms: C_1  and  C_2
REMARK    2  A    between atoms: C_6  and  C_7
REMARK    3  A    between atoms: C_8  and  N_9
REMARK    4  A    between atoms: N_12  and  C_13
REMARK    5  A    between atoms: C_13  and  C_14
REMARK    6  A    between atoms: C_14  and  C_15
REMARK    7  A    between atoms: N_18  and  C_19
REMARK    8  A    between atoms: C_19  and  C_20
REMARK                            x       y       z     vdW  Elec       q    Type
REMARK                         _______ _______ _______ _____ _____    ______ ____
ROOT
ATOM      1  C   UNL     1       0.721  10.616  19.997  0.00  0.00    +0.000 C 
ATOM      2  C   UNL     1       1.542  10.778  18.706  0.00  0.00    +0.000 C 
ATOM      3  C   UNL     1       1.779   9.454  17.961  0.00  0.00    +0.000 C 
ATOM      4  N   UNL     1       2.281   8.370  18.829  0.00  0.00    +0.000 NA
ATOM      5  C   UNL     1       1.423   8.187  20.006  0.00  0.00    +0.000 C 
ATOM      6  C   UNL     1       1.349   9.481  20.811  0.00  0.00    +0.000 C 
ENDROOT
BRANCH   1   7
ATOM      7  C   UNL     1      -0.781  10.405  19.702  0.00  0.00    +0.000 C 
BRANCH   7   8
ATOM      8  C   UNL     1      -1.618  11.668  19.943  0.00  0.00    +0.000 C 
BRANCH   8  12
ATOM      9  N   UNL     1      -0.034  14.910  19.622  0.00  0.00    +0.000 N 
ATOM     10  C   UNL     1       0.014  14.840  21.057  0.00  0.00    +0.000 C 
ATOM     11  C   UNL     1      -0.879  13.646  21.360  0.00  0.00    +0.000 C 
ATOM     12  N   UNL     1      -0.818  12.860  20.145  0.00  0.00    +0.000 N 
ATOM     13  C   UNL     1      -0.500  13.712  19.062  0.00  0.00    +0.000 C 
ATOM     14  O   UNL     1      -0.633  13.442  17.880  0.00  0.00    +0.000 OA
BRANCH   9  22
ATOM     15  C   UNL     1       2.593  15.046  18.391  0.00  0.00    +0.000 C 
ATOM     16  C   UNL     1       1.595  16.168  18.327  0.00  0.00    +0.000 A 
ATOM     17  C   UNL     1       1.943  17.353  17.661  0.00  0.00    +0.000 A 
ATOM     18  C   UNL     1       1.033  18.402  17.553  0.00  0.00    +0.000 A 
ATOM     19  C   UNL     1      -0.238  18.285  18.113  0.00  0.00    +0.000 A 
ATOM     20  C   UNL     1      -0.613  17.119  18.795  0.00  0.00    +0.000 A 
ATOM     21  C   UNL     1      -1.982  17.042  19.417  0.00  0.00    +0.000 C 
ATOM     22  C   UNL     1       0.313  16.061  18.902  0.00  0.00    +0.000 A 
ENDBRANCH   9  22
ENDBRANCH   8  12
ENDBRANCH   7   8
ENDBRANCH   1   7
BRANCH   4  23
ATOM     23  C   UNL     1       2.427   7.126  18.038  0.00  0.00    +0.000 C 
BRANCH  23  24
ATOM     24  C   UNL     1       3.665   6.237  18.344  0.00  0.00    +0.000 C 
ATOM     25  C   UNL     1       3.891   5.105  17.344  0.00  0.00    +0.000 C 
ATOM     26  O   UNL     1       2.868   4.106  17.388  0.00  0.00    +0.000 OA
ATOM     27  C   UNL     1       2.430   3.850  18.659  0.00  0.00    +0.000 A 
ATOM     28  C   UNL     1       1.529   2.799  18.809  0.00  0.00    +0.000 A 
ATOM     29  C   UNL     1       0.994   2.511  20.065  0.00  0.00    +0.000 A 
ATOM     30  C   UNL     1       1.387   3.253  21.179  0.00  0.00    +0.000 A 
ATOM     31  C   UNL     1       2.298   4.299  21.033  0.00  0.00    +0.000 A 
ATOM     32  C   UNL     1       2.791   4.615  19.770  0.00  0.00    +0.000 A 
ATOM     33  O   UNL     1       3.591   5.723  19.687  0.00  0.00    +0.000 OA
ENDBRANCH  23  24
ENDBRANCH   4  23
TORSDOF 6
ENDMDL
