MODEL 1
REMARK VINA RESULT:      -7.3      0.000      0.000
REMARK  Name = 
REMARK  1 active torsions:
REMARK  status: ('A' for Active; 'I' for Inactive)
REMARK    1  A    between atoms: C_1  and  N_2
REMARK                            x       y       z     vdW  Elec       q    Type
REMARK                         _______ _______ _______ _____ _____    ______ ____
ROOT
ATOM      1  C   UNL     1      -0.556  11.045  19.656  0.00  0.00    +0.000 C 
ATOM      2  N   UNL     1       0.673  10.262  19.565  0.00  0.00    +0.000 NA
ATOM      3  C   UNL     1       0.900   9.792  18.180  0.00  0.00    +0.000 C 
ATOM      4  C   UNL     1       2.174   8.923  18.043  0.00  0.00    +0.000 C 
ATOM      5  N   UNL     1       2.106   7.808  18.987  0.00  0.00    +0.000 N 
ATOM      6  C   UNL     1       2.572   6.541  18.692  0.00  0.00    +0.000 A 
ATOM      7  N   UNL     1       1.990   5.529  19.296  0.00  0.00    +0.000 NA
ATOM      8  C   UNL     1       2.369   4.206  18.981  0.00  0.00    +0.000 A 
ATOM      9  C   UNL     1       1.673   3.151  19.561  0.00  0.00    +0.000 A 
ATOM     10  C   UNL     1       2.018   1.836  19.250  0.00  0.00    +0.000 A 
ATOM     11  C   UNL     1       3.066   1.616  18.365  0.00  0.00    +0.000 A 
ATOM     12  N   UNL     1       3.775   2.603  17.775  0.00  0.00    +0.000 NA
ATOM     13  C   UNL     1       3.397   3.868  18.095  0.00  0.00    +0.000 A 
ATOM     14  N   UNL     1       4.038   4.963  17.503  0.00  0.00    +0.000 N 
ATOM     15  C   UNL     1       5.090   5.006  16.627  0.00  0.00    +0.000 A 
ATOM     16  C   UNL     1       5.302   6.346  16.397  0.00  0.00    +0.000 A 
ATOM     17  N   UNL     1       4.401   7.119  17.093  0.00  0.00    +0.000 NA
ATOM     18  C   UNL     1       3.652   6.251  17.754  0.00  0.00    +0.000 A 
ATOM     19  C   UNL     1       1.870   8.213  20.376  0.00  0.00    +0.000 C 
ATOM     20  C   UNL     1       0.609   9.092  20.471  0.00  0.00    +0.000 C 
ENDROOT
TORSDOF 0
ENDMDL
MODEL 2
REMARK VINA RESULT:      -7.2      1.261      1.308
REMARK  Name = 
REMARK  1 active torsions:
REMARK  status: ('A' for Active; 'I' for Inactive)
REMARK    1  A    between atoms: C_1  and  N_2
REMARK                            x       y       z     vdW  Elec       q    Type
REMARK                         _______ _______ _______ _____ _____    ______ ____
ROOT
ATOM      1  C   UNL     1      -1.430  11.282  19.376  0.00  0.00    +0.000 C 
ATOM      2  N   UNL     1      -0.102  10.674  19.367  0.00  0.00    +0.000 NA
ATOM      3  C   UNL     1       0.094   9.850  18.153  0.00  0.00    +0.000 C 
ATOM      4  C   UNL     1       1.476   9.153  18.120  0.00  0.00    +0.000 C 
ATOM      5  N   UNL     1       1.656   8.368  19.341  0.00  0.00    +0.000 N 
ATOM      6  C   UNL     1       2.294   7.142  19.362  0.00  0.00    +0.000 A 
ATOM      7  N   UNL     1       1.925   6.287  20.290  0.00  0.00    +0.000 NA
ATOM      8  C   UNL     1       2.485   4.992  20.318  0.00  0.00    +0.000 A 
ATOM      9  C   UNL     1       2.009   4.073  21.248  0.00  0.00    +0.000 A 
ATOM     10  C   UNL     1       2.535   2.782  21.281  0.00  0.00    +0.000 A 
ATOM     11  C   UNL     1       3.537   2.449  20.379  0.00  0.00    +0.000 A 
ATOM     12  N   UNL     1       4.035   3.301  19.457  0.00  0.00    +0.000 NA
ATOM     13  C   UNL     1       3.486   4.544  19.450  0.00  0.00    +0.000 A 
ATOM     14  N   UNL     1       3.900   5.489  18.503  0.00  0.00    +0.000 N 
ATOM     15  C   UNL     1       4.866   5.408  17.535  0.00  0.00    +0.000 A 
ATOM     16  C   UNL     1       4.844   6.636  16.914  0.00  0.00    +0.000 A 
ATOM     17  N   UNL     1       3.886   7.455  17.464  0.00  0.00    +0.000 NA
ATOM     18  C   UNL     1       3.334   6.732  18.424  0.00  0.00    +0.000 A 
ATOM     19  C   UNL     1       1.461   9.131  20.577  0.00  0.00    +0.000 C 
ATOM     20  C   UNL     1       0.086   9.826  20.567  0.00  0.00    +0.000 C 
ENDROOT
TORSDOF 0
ENDMDL
MODEL 3
REMARK VINA RESULT:      -7.2      3.565      5.758
REMARK  Name = 
REMARK  1 active torsions:
REMARK  status: ('A' for Active; 'I' for Inactive)
REMARK    1  A    between atoms: C_1  and  N_2
REMARK                            x       y       z     vdW  Elec       q    Type
REMARK                         _______ _______ _______ _____ _____    ______ ____
ROOT
ATOM      1  C   UNL     1       0.293   2.703  19.452  0.00  0.00    +0.000 C 
ATOM      2  N   UNL     1       1.731   2.926  19.334  0.00  0.00    +0.000 NA
ATOM      3  C   UNL     1       2.026   4.358  19.098  0.00  0.00    +0.000 C 
ATOM      4  C   UNL     1       3.540   4.636  18.928  0.00  0.00    +0.000 C 
ATOM      5  N   UNL     1       4.074   3.792  17.859  0.00  0.00    +0.000 N 
ATOM      6  C   UNL     1       5.041   4.222  16.971  0.00  0.00    +0.000 A 
ATOM      7  N   UNL     1       5.043   3.679  15.774  0.00  0.00    +0.000 NA
ATOM      8  C   UNL     1       5.957   4.129  14.797  0.00  0.00    +0.000 A 
ATOM      9  C   UNL     1       5.876   3.608  13.509  0.00  0.00    +0.000 A 
ATOM     10  C   UNL     1       6.757   4.052  12.524  0.00  0.00    +0.000 A 
ATOM     11  C   UNL     1       7.709   5.006  12.863  0.00  0.00    +0.000 A 
ATOM     12  N   UNL     1       7.831   5.543  14.096  0.00  0.00    +0.000 NA
ATOM     13  C   UNL     1       6.945   5.093  15.022  0.00  0.00    +0.000 A 
ATOM     14  N   UNL     1       6.958   5.620  16.320  0.00  0.00    +0.000 N 
ATOM     15  C   UNL     1       7.793   6.542  16.893  0.00  0.00    +0.000 A 
ATOM     16  C   UNL     1       7.345   6.664  18.189  0.00  0.00    +0.000 A 
ATOM     17  N   UNL     1       6.254   5.856  18.417  0.00  0.00    +0.000 NA
ATOM     18  C   UNL     1       6.047   5.236  17.267  0.00  0.00    +0.000 A 
ATOM     19  C   UNL     1       3.800   2.362  18.034  0.00  0.00    +0.000 C 
ATOM     20  C   UNL     1       2.290   2.125  18.220  0.00  0.00    +0.000 C 
ENDROOT
TORSDOF 0
ENDMDL
MODEL 4
REMARK VINA RESULT:      -7.0      1.353      3.405
REMARK  Name = 
REMARK  1 active torsions:
REMARK  status: ('A' for Active; 'I' for Inactive)
REMARK    1  A    between atoms: C_1  and  N_2
REMARK                            x       y       z     vdW  Elec       q    Type
REMARK                         _______ _______ _______ _____ _____    ______ ____
ROOT
ATOM      1  C   UNL     1       0.716  12.224  20.918  0.00  0.00    +0.000 C 
ATOM      2  N   UNL     1       0.578  10.834  20.495  0.00  0.00    +0.000 NA
ATOM      3  C   UNL     1       1.345   9.932  21.385  0.00  0.00    +0.000 C 
ATOM      4  C   UNL     1       1.259   8.448  20.950  0.00  0.00    +0.000 C 
ATOM      5  N   UNL     1       1.685   8.323  19.556  0.00  0.00    +0.000 N 
ATOM      6  C   UNL     1       2.416   7.249  19.085  0.00  0.00    +0.000 A 
ATOM      7  N   UNL     1       3.212   7.465  18.062  0.00  0.00    +0.000 NA
ATOM      8  C   UNL     1       4.041   6.428  17.582  0.00  0.00    +0.000 A 
ATOM      9  C   UNL     1       4.945   6.707  16.562  0.00  0.00    +0.000 A 
ATOM     10  C   UNL     1       5.787   5.703  16.085  0.00  0.00    +0.000 A 
ATOM     11  C   UNL     1       5.690   4.434  16.643  0.00  0.00    +0.000 A 
ATOM     12  N   UNL     1       4.831   4.110  17.634  0.00  0.00    +0.000 NA
ATOM     13  C   UNL     1       4.040   5.120  18.078  0.00  0.00    +0.000 A 
ATOM     14  N   UNL     1       3.146   4.900  19.133  0.00  0.00    +0.000 N 
ATOM     15  C   UNL     1       2.860   3.754  19.827  0.00  0.00    +0.000 A 
ATOM     16  C   UNL     1       1.898   4.126  20.738  0.00  0.00    +0.000 A 
ATOM     17  N   UNL     1       1.601   5.465  20.630  0.00  0.00    +0.000 NA
ATOM     18  C   UNL     1       2.371   5.904  19.649  0.00  0.00    +0.000 A 
ATOM     19  C   UNL     1       0.967   9.204  18.630  0.00  0.00    +0.000 C 
ATOM     20  C   UNL     1       1.056  10.666  19.104  0.00  0.00    +0.000 C 
ENDROOT
TORSDOF 0
ENDMDL
MODEL 5
REMARK VINA RESULT:      -6.7      1.418      3.547
REMARK  Name = 
REMARK  1 active torsions:
REMARK  status: ('A' for Active; 'I' for Inactive)
REMARK    1  A    between atoms: C_1  and  N_2
REMARK                            x       y       z     vdW  Elec       q    Type
REMARK                         _______ _______ _______ _____ _____    ______ ____
ROOT
ATOM      1  C   UNL     1       0.243  11.307  20.332  0.00  0.00    +0.000 C 
ATOM      2  N   UNL     1       0.440   9.929  19.893  0.00  0.00    +0.000 NA
ATOM      3  C   UNL     1       1.137   9.137  20.931  0.00  0.00    +0.000 C 
ATOM      4  C   UNL     1       1.402   7.676  20.492  0.00  0.00    +0.000 C 
ATOM      5  N   UNL     1       2.136   7.673  19.227  0.00  0.00    +0.000 N 
ATOM      6  C   UNL     1       3.125   6.754  18.930  0.00  0.00    +0.000 A 
ATOM      7  N   UNL     1       4.075   7.136  18.107  0.00  0.00    +0.000 NA
ATOM      8  C   UNL     1       5.153   6.270  17.824  0.00  0.00    +0.000 A 
ATOM      9  C   UNL     1       6.196   6.732  17.027  0.00  0.00    +0.000 A 
ATOM     10  C   UNL     1       7.280   5.899  16.750  0.00  0.00    +0.000 A 
ATOM     11  C   UNL     1       7.283   4.614  17.276  0.00  0.00    +0.000 A 
ATOM     12  N   UNL     1       6.297   4.116  18.054  0.00  0.00    +0.000 NA
ATOM     13  C   UNL     1       5.268   4.963  18.310  0.00  0.00    +0.000 A 
ATOM     14  N   UNL     1       4.217   4.559  19.144  0.00  0.00    +0.000 N 
ATOM     15  C   UNL     1       3.987   3.358  19.760  0.00  0.00    +0.000 A 
ATOM     16  C   UNL     1       2.801   3.531  20.437  0.00  0.00    +0.000 A 
ATOM     17  N   UNL     1       2.310   4.805  20.262  0.00  0.00    +0.000 NA
ATOM     18  C   UNL     1       3.189   5.401  19.473  0.00  0.00    +0.000 A 
ATOM     19  C   UNL     1       1.497   8.453  18.162  0.00  0.00    +0.000 C 
ATOM     20  C   UNL     1       1.230   9.893  18.641  0.00  0.00    +0.000 C 
ENDROOT
TORSDOF 0
ENDMDL
MODEL 6
REMARK VINA RESULT:      -6.5      1.714      6.333
REMARK  Name = 
REMARK  1 active torsions:
REMARK  status: ('A' for Active; 'I' for Inactive)
REMARK    1  A    between atoms: C_1  and  N_2
REMARK                            x       y       z     vdW  Elec       q    Type
REMARK                         _______ _______ _______ _____ _____    ______ ____
ROOT
ATOM      1  C   UNL     1       6.531   4.010  13.768  0.00  0.00    +0.000 C 
ATOM      2  N   UNL     1       6.266   4.380  15.155  0.00  0.00    +0.000 NA
ATOM      3  C   UNL     1       4.989   3.794  15.624  0.00  0.00    +0.000 C 
ATOM      4  C   UNL     1       4.647   4.191  17.081  0.00  0.00    +0.000 C 
ATOM      5  N   UNL     1       4.649   5.649  17.201  0.00  0.00    +0.000 N 
ATOM      6  C   UNL     1       3.752   6.341  17.993  0.00  0.00    +0.000 A 
ATOM      7  N   UNL     1       3.443   7.564  17.624  0.00  0.00    +0.000 NA
ATOM      8  C   UNL     1       2.477   8.296  18.348  0.00  0.00    +0.000 A 
ATOM      9  C   UNL     1       2.096   9.551  17.883  0.00  0.00    +0.000 A 
ATOM     10  C   UNL     1       1.129  10.283  18.572  0.00  0.00    +0.000 A 
ATOM     11  C   UNL     1       0.575   9.736  19.722  0.00  0.00    +0.000 A 
ATOM     12  N   UNL     1       0.909   8.523  20.217  0.00  0.00    +0.000 NA
ATOM     13  C   UNL     1       1.844   7.838  19.508  0.00  0.00    +0.000 A 
ATOM     14  N   UNL     1       2.228   6.553  19.912  0.00  0.00    +0.000 N 
ATOM     15  C   UNL     1       1.844   5.815  21.000  0.00  0.00    +0.000 A 
ATOM     16  C   UNL     1       2.550   4.639  20.894  0.00  0.00    +0.000 A 
ATOM     17  N   UNL     1       3.340   4.633  19.767  0.00  0.00    +0.000 NA
ATOM     18  C   UNL     1       3.123   5.806  19.196  0.00  0.00    +0.000 A 
ATOM     19  C   UNL     1       5.886   6.286  16.739  0.00  0.00    +0.000 C 
ATOM     20  C   UNL     1       6.206   5.853  15.296  0.00  0.00    +0.000 C 
ENDROOT
TORSDOF 0
ENDMDL
MODEL 7
REMARK VINA RESULT:      -6.4      1.257      3.484
REMARK  Name = 
REMARK  1 active torsions:
REMARK  status: ('A' for Active; 'I' for Inactive)
REMARK    1  A    between atoms: C_1  and  N_2
REMARK                            x       y       z     vdW  Elec       q    Type
REMARK                         _______ _______ _______ _____ _____    ______ ____
ROOT
ATOM      1  C   UNL     1       0.939  10.562  21.162  0.00  0.00    +0.000 C 
ATOM      2  N   UNL     1       0.873   9.388  20.296  0.00  0.00    +0.000 NA
ATOM      3  C   UNL     1       1.419   8.195  20.981  0.00  0.00    +0.000 C 
ATOM      4  C   UNL     1       1.404   6.932  20.085  0.00  0.00    +0.000 C 
ATOM      5  N   UNL     1       2.115   7.211  18.838  0.00  0.00    +0.000 N 
ATOM      6  C   UNL     1       2.913   6.281  18.200  0.00  0.00    +0.000 A 
ATOM      7  N   UNL     1       3.912   6.738  17.478  0.00  0.00    +0.000 NA
ATOM      8  C   UNL     1       4.808   5.837  16.863  0.00  0.00    +0.000 A 
ATOM      9  C   UNL     1       5.912   6.344  16.185  0.00  0.00    +0.000 A 
ATOM     10  C   UNL     1       6.820   5.471  15.586  0.00  0.00    +0.000 A 
ATOM     11  C   UNL     1       6.588   4.104  15.676  0.00  0.00    +0.000 A 
ATOM     12  N   UNL     1       5.533   3.560  16.322  0.00  0.00    +0.000 NA
ATOM     13  C   UNL     1       4.681   4.444  16.902  0.00  0.00    +0.000 A 
ATOM     14  N   UNL     1       3.580   3.981  17.633  0.00  0.00    +0.000 N 
ATOM     15  C   UNL     1       3.136   2.704  17.852  0.00  0.00    +0.000 A 
ATOM     16  C   UNL     1       2.008   2.852  18.627  0.00  0.00    +0.000 A 
ATOM     17  N   UNL     1       1.761   4.178  18.898  0.00  0.00    +0.000 NA
ATOM     18  C   UNL     1       2.729   4.835  18.281  0.00  0.00    +0.000 A 
ATOM     19  C   UNL     1       1.624   8.392  18.121  0.00  0.00    +0.000 C 
ATOM     20  C   UNL     1       1.633   9.623  19.047  0.00  0.00    +0.000 C 
ENDROOT
TORSDOF 0
ENDMDL
MODEL 8
REMARK VINA RESULT:      -6.4      1.912      6.416
REMARK  Name = 
REMARK  1 active torsions:
REMARK  status: ('A' for Active; 'I' for Inactive)
REMARK    1  A    between atoms: C_1  and  N_2
REMARK                            x       y       z     vdW  Elec       q    Type
REMARK                         _______ _______ _______ _____ _____    ______ ____
ROOT
ATOM      1  C   UNL     1       4.373   2.490  20.360  0.00  0.00    +0.000 C 
ATOM      2  N   UNL     1       3.537   3.528  19.763  0.00  0.00    +0.000 NA
ATOM      3  C   UNL     1       4.292   4.792  19.613  0.00  0.00    +0.000 C 
ATOM      4  C   UNL     1       3.432   5.935  19.018  0.00  0.00    +0.000 C 
ATOM      5  N   UNL     1       2.231   6.116  19.833  0.00  0.00    +0.000 N 
ATOM      6  C   UNL     1       1.676   7.354  20.095  0.00  0.00    +0.000 A 
ATOM      7  N   UNL     1       1.015   7.491  21.223  0.00  0.00    +0.000 NA
ATOM      8  C   UNL     1       0.490   8.751  21.583  0.00  0.00    +0.000 A 
ATOM      9  C   UNL     1      -0.122   8.895  22.825  0.00  0.00    +0.000 A 
ATOM     10  C   UNL     1      -0.631  10.135  23.209  0.00  0.00    +0.000 A 
ATOM     11  C   UNL     1      -0.519  11.202  22.327  0.00  0.00    +0.000 A 
ATOM     12  N   UNL     1       0.064  11.117  21.111  0.00  0.00    +0.000 NA
ATOM     13  C   UNL     1       0.558   9.896  20.782  0.00  0.00    +0.000 A 
ATOM     14  N   UNL     1       1.222   9.713  19.562  0.00  0.00    +0.000 N 
ATOM     15  C   UNL     1       1.444  10.590  18.534  0.00  0.00    +0.000 A 
ATOM     16  C   UNL     1       2.132   9.861  17.592  0.00  0.00    +0.000 A 
ATOM     17  N   UNL     1       2.349   8.571  18.021  0.00  0.00    +0.000 NA
ATOM     18  C   UNL     1       1.784   8.514  19.216  0.00  0.00    +0.000 A 
ATOM     19  C   UNL     1       1.449   4.890  20.027  0.00  0.00    +0.000 C 
ATOM     20  C   UNL     1       2.339   3.772  20.599  0.00  0.00    +0.000 C 
ENDROOT
TORSDOF 0
ENDMDL
MODEL 9
REMARK VINA RESULT:      -6.1      2.172      6.041
REMARK  Name = 
REMARK  1 active torsions:
REMARK  status: ('A' for Active; 'I' for Inactive)
REMARK    1  A    between atoms: C_1  and  N_2
REMARK                            x       y       z     vdW  Elec       q    Type
REMARK                         _______ _______ _______ _____ _____    ______ ____
ROOT
ATOM      1  C   UNL     1       7.866   5.481  13.275  0.00  0.00    +0.000 C 
ATOM      2  N   UNL     1       7.438   4.886  14.538  0.00  0.00    +0.000 NA
ATOM      3  C   UNL     1       6.141   4.190  14.381  0.00  0.00    +0.000 C 
ATOM      4  C   UNL     1       5.628   3.574  15.706  0.00  0.00    +0.000 C 
ATOM      5  N   UNL     1       5.562   4.614  16.733  0.00  0.00    +0.000 N 
ATOM      6  C   UNL     1       4.560   4.675  17.682  0.00  0.00    +0.000 A 
ATOM      7  N   UNL     1       4.248   5.861  18.153  0.00  0.00    +0.000 NA
ATOM      8  C   UNL     1       3.182   5.998  19.069  0.00  0.00    +0.000 A 
ATOM      9  C   UNL     1       2.807   7.274  19.479  0.00  0.00    +0.000 A 
ATOM     10  C   UNL     1       1.745   7.434  20.369  0.00  0.00    +0.000 A 
ATOM     11  C   UNL     1       1.090   6.300  20.832  0.00  0.00    +0.000 A 
ATOM     12  N   UNL     1       1.413   5.040  20.467  0.00  0.00    +0.000 NA
ATOM     13  C   UNL     1       2.443   4.930  19.589  0.00  0.00    +0.000 A 
ATOM     14  N   UNL     1       2.828   3.671  19.113  0.00  0.00    +0.000 N 
ATOM     15  C   UNL     1       2.356   2.424  19.425  0.00  0.00    +0.000 A 
ATOM     16  C   UNL     1       3.112   1.561  18.665  0.00  0.00    +0.000 A 
ATOM     17  N   UNL     1       4.020   2.246  17.890  0.00  0.00    +0.000 NA
ATOM     18  C   UNL     1       3.823   3.520  18.185  0.00  0.00    +0.000 A 
ATOM     19  C   UNL     1       6.818   5.347  16.923  0.00  0.00    +0.000 C 
ATOM     20  C   UNL     1       7.308   5.927  15.583  0.00  0.00    +0.000 C 
ENDROOT
TORSDOF 0
ENDMDL
