MODEL 1
REMARK VINA RESULT:      -8.4      0.000      0.000
REMARK  Name = 
REMARK  6 active torsions:
REMARK  status: ('A' for Active; 'I' for Inactive)
REMARK    1  A    between atoms: S_2  and  N_4
REMARK    2  A    between atoms: S_2  and  C_12
REMARK    3  A    between atoms: N_4  and  C_5
REMARK    4  A    between atoms: C_5  and  C_6
REMARK    5  A    between atoms: C_15  and  C_16
REMARK    6  A    between atoms: C_17  and  C_18
REMARK                            x       y       z     vdW  Elec       q    Type
REMARK                         _______ _______ _______ _____ _____    ______ ____
ROOT
ATOM      1  C   UNL     1       4.226   5.825  18.165  0.00  0.00    +0.000 A 
ATOM      2  C   UNL     1       4.051   6.921  17.313  0.00  0.00    +0.000 A 
ATOM      3  C   UNL     1       3.121   7.919  17.645  0.00  0.00    +0.000 A 
ATOM      4  C   UNL     1       2.371   7.834  18.826  0.00  0.00    +0.000 A 
ATOM      5  C   UNL     1       2.601   6.754  19.687  0.00  0.00    +0.000 A 
ATOM      6  C   UNL     1       3.490   5.739  19.343  0.00  0.00    +0.000 A 
ENDROOT
BRANCH   1   8
ATOM      7  O   UNL     1       5.976   4.063  18.945  0.00  0.00    +0.000 OA
ATOM      8  S   UNL     1       5.335   4.501  17.723  0.00  0.00    +0.000 S 
ATOM      9  O   UNL     1       6.091   4.943  16.574  0.00  0.00    +0.000 OA
BRANCH   8  10
ATOM     10  N   UNL     1       4.300   3.247  17.251  0.00  0.00    +0.000 NA
ATOM     11  H   UNL     1       4.472   2.941  16.294  0.00  0.00    +0.000 HD
BRANCH  10  12
ATOM     12  C   UNL     1       4.136   2.142  18.209  0.00  0.00    +0.000 C 
BRANCH  12  13
ATOM     13  C   UNL     1       3.053   2.403  19.228  0.00  0.00    +0.000 A 
ATOM     14  C   UNL     1       3.355   2.448  20.598  0.00  0.00    +0.000 A 
ATOM     15  C   UNL     1       2.366   2.757  21.533  0.00  0.00    +0.000 A 
ATOM     16  C   UNL     1       1.065   3.018  21.110  0.00  0.00    +0.000 A 
ATOM     17  C   UNL     1       0.750   2.966  19.753  0.00  0.00    +0.000 A 
ATOM     18  C   UNL     1       1.739   2.657  18.816  0.00  0.00    +0.000 A 
ENDBRANCH  12  13
ENDBRANCH  10  12
ENDBRANCH   8  10
ENDBRANCH   1   8
BRANCH   4  19
ATOM     19  C   UNL     1       1.377   8.869  19.164  0.00  0.00    +0.000 C 
ATOM     20  C   UNL     1       0.979   9.097  20.427  0.00  0.00    +0.000 C 
BRANCH  20  21
ATOM     21  C   UNL     1       0.066  10.138  20.760  0.00  0.00    +0.000 A 
ATOM     22  N   UNL     1      -0.279  10.539  21.967  0.00  0.00    +0.000 NA
ATOM     23  C   UNL     1      -1.229  11.546  21.895  0.00  0.00    +0.000 A 
ATOM     24  C   UNL     1      -1.825  12.198  22.992  0.00  0.00    +0.000 A 
ATOM     25  C   UNL     1      -2.791  13.186  22.775  0.00  0.00    +0.000 A 
ATOM     26  C   UNL     1      -3.165  13.533  21.480  0.00  0.00    +0.000 A 
ATOM     27  C   UNL     1      -2.582  12.906  20.374  0.00  0.00    +0.000 A 
ATOM     28  C   UNL     1      -1.613  11.916  20.608  0.00  0.00    +0.000 A 
ATOM     29  S   UNL     1      -0.730  10.981  19.473  0.00  0.00    +0.000 S 
ENDBRANCH  20  21
ENDBRANCH   4  19
TORSDOF 6
ENDMDL
MODEL 2
REMARK VINA RESULT:      -8.2      0.742      1.742
REMARK  Name = 
REMARK  6 active torsions:
REMARK  status: ('A' for Active; 'I' for Inactive)
REMARK    1  A    between atoms: S_2  and  N_4
REMARK    2  A    between atoms: S_2  and  C_12
REMARK    3  A    between atoms: N_4  and  C_5
REMARK    4  A    between atoms: C_5  and  C_6
REMARK    5  A    between atoms: C_15  and  C_16
REMARK    6  A    between atoms: C_17  and  C_18
REMARK                            x       y       z     vdW  Elec       q    Type
REMARK                         _______ _______ _______ _____ _____    ______ ____
ROOT
ATOM      1  C   UNL     1       4.120   5.848  18.209  0.00  0.00    +0.000 A 
ATOM      2  C   UNL     1       3.437   5.771  19.428  0.00  0.00    +0.000 A 
ATOM      3  C   UNL     1       2.547   6.794  19.792  0.00  0.00    +0.000 A 
ATOM      4  C   UNL     1       2.327   7.888  18.944  0.00  0.00    +0.000 A 
ATOM      5  C   UNL     1       2.984   7.916  17.707  0.00  0.00    +0.000 A 
ATOM      6  C   UNL     1       3.901   6.928  17.359  0.00  0.00    +0.000 A 
ENDROOT
BRANCH   1   8
ATOM      7  O   UNL     1       5.962   4.182  18.988  0.00  0.00    +0.000 OA
ATOM      8  S   UNL     1       5.320   4.608  17.763  0.00  0.00    +0.000 S 
ATOM      9  O   UNL     1       6.070   5.124  16.641  0.00  0.00    +0.000 OA
BRANCH   8  10
ATOM     10  N   UNL     1       4.378   3.302  17.240  0.00  0.00    +0.000 NA
ATOM     11  H   UNL     1       4.639   2.983  16.308  0.00  0.00    +0.000 HD
BRANCH  10  12
ATOM     12  C   UNL     1       4.180   2.212  18.209  0.00  0.00    +0.000 C 
BRANCH  12  13
ATOM     13  C   UNL     1       3.094   2.508  19.215  0.00  0.00    +0.000 A 
ATOM     14  C   UNL     1       1.778   2.752  18.794  0.00  0.00    +0.000 A 
ATOM     15  C   UNL     1       0.761   2.958  19.728  0.00  0.00    +0.000 A 
ATOM     16  C   UNL     1       1.050   2.925  21.091  0.00  0.00    +0.000 A 
ATOM     17  C   UNL     1       2.356   2.694  21.520  0.00  0.00    +0.000 A 
ATOM     18  C   UNL     1       3.375   2.489  20.586  0.00  0.00    +0.000 A 
ENDBRANCH  12  13
ENDBRANCH  10  12
ENDBRANCH   8  10
ENDBRANCH   1   8
BRANCH   4  19
ATOM     19  C   UNL     1       1.412   8.975  19.336  0.00  0.00    +0.000 C 
ATOM     20  C   UNL     1       0.675   8.923  20.457  0.00  0.00    +0.000 C 
BRANCH  20  21
ATOM     21  C   UNL     1      -0.162   9.999  20.868  0.00  0.00    +0.000 A 
ATOM     22  N   UNL     1      -0.799  10.854  20.094  0.00  0.00    +0.000 NA
ATOM     23  C   UNL     1      -1.478  11.793  20.855  0.00  0.00    +0.000 A 
ATOM     24  C   UNL     1      -2.253  12.857  20.355  0.00  0.00    +0.000 A 
ATOM     25  C   UNL     1      -2.870  13.746  21.241  0.00  0.00    +0.000 A 
ATOM     26  C   UNL     1      -2.725  13.586  22.616  0.00  0.00    +0.000 A 
ATOM     27  C   UNL     1      -1.968  12.532  23.138  0.00  0.00    +0.000 A 
ATOM     28  C   UNL     1      -1.354  11.646  22.236  0.00  0.00    +0.000 A 
ATOM     29  S   UNL     1      -0.377  10.276  22.565  0.00  0.00    +0.000 S 
ENDBRANCH  20  21
ENDBRANCH   4  19
TORSDOF 6
ENDMDL
MODEL 3
REMARK VINA RESULT:      -8.1      0.415      1.000
REMARK  Name = 
REMARK  6 active torsions:
REMARK  status: ('A' for Active; 'I' for Inactive)
REMARK    1  A    between atoms: S_2  and  N_4
REMARK    2  A    between atoms: S_2  and  C_12
REMARK    3  A    between atoms: N_4  and  C_5
REMARK    4  A    between atoms: C_5  and  C_6
REMARK    5  A    between atoms: C_15  and  C_16
REMARK    6  A    between atoms: C_17  and  C_18
REMARK                            x       y       z     vdW  Elec       q    Type
REMARK                         _______ _______ _______ _____ _____    ______ ____
ROOT
ATOM      1  C   UNL     1       4.043   6.057  18.160  0.00  0.00    +0.000 A 
ATOM      2  C   UNL     1       3.794   7.170  17.350  0.00  0.00    +0.000 A 
ATOM      3  C   UNL     1       2.848   8.126  17.754  0.00  0.00    +0.000 A 
ATOM      4  C   UNL     1       2.157   7.983  18.965  0.00  0.00    +0.000 A 
ATOM      5  C   UNL     1       2.463   6.887  19.782  0.00  0.00    +0.000 A 
ATOM      6  C   UNL     1       3.366   5.913  19.367  0.00  0.00    +0.000 A 
ENDROOT
BRANCH   1   8
ATOM      7  O   UNL     1       5.826   4.278  18.816  0.00  0.00    +0.000 OA
ATOM      8  S   UNL     1       5.173   4.784  17.629  0.00  0.00    +0.000 S 
ATOM      9  O   UNL     1       5.917   5.314  16.508  0.00  0.00    +0.000 OA
BRANCH   8  10
ATOM     10  N   UNL     1       4.158   3.546  17.077  0.00  0.00    +0.000 NA
ATOM     11  H   UNL     1       4.346   3.292  16.109  0.00  0.00    +0.000 HD
BRANCH  10  12
ATOM     12  C   UNL     1       3.991   2.393  17.976  0.00  0.00    +0.000 C 
BRANCH  12  13
ATOM     13  C   UNL     1       2.994   2.645  19.081  0.00  0.00    +0.000 A 
ATOM     14  C   UNL     1       1.652   2.924  18.782  0.00  0.00    +0.000 A 
ATOM     15  C   UNL     1       0.717   3.089  19.806  0.00  0.00    +0.000 A 
ATOM     16  C   UNL     1       1.116   2.983  21.136  0.00  0.00    +0.000 A 
ATOM     17  C   UNL     1       2.448   2.718  21.445  0.00  0.00    +0.000 A 
ATOM     18  C   UNL     1       3.385   2.552  20.422  0.00  0.00    +0.000 A 
ENDBRANCH  12  13
ENDBRANCH  10  12
ENDBRANCH   8  10
ENDBRANCH   1   8
BRANCH   4  19
ATOM     19  C   UNL     1       1.147   8.974  19.379  0.00  0.00    +0.000 C 
ATOM     20  C   UNL     1       1.047   9.410  20.645  0.00  0.00    +0.000 C 
BRANCH  20  21
ATOM     21  C   UNL     1       0.113  10.413  21.032  0.00  0.00    +0.000 A 
ATOM     22  N   UNL     1      -0.555  10.486  22.165  0.00  0.00    +0.000 NA
ATOM     23  C   UNL     1      -1.408  11.579  22.162  0.00  0.00    +0.000 A 
ATOM     24  C   UNL     1      -2.275  11.951  23.208  0.00  0.00    +0.000 A 
ATOM     25  C   UNL     1      -3.101  13.071  23.062  0.00  0.00    +0.000 A 
ATOM     26  C   UNL     1      -3.069  13.822  21.890  0.00  0.00    +0.000 A 
ATOM     27  C   UNL     1      -2.211  13.478  20.842  0.00  0.00    +0.000 A 
ATOM     28  C   UNL     1      -1.387  12.351  21.002  0.00  0.00    +0.000 A 
ATOM     29  S   UNL     1      -0.244  11.685  19.911  0.00  0.00    +0.000 S 
ENDBRANCH  20  21
ENDBRANCH   4  19
TORSDOF 6
ENDMDL
MODEL 4
REMARK VINA RESULT:      -8.1      0.948      1.049
REMARK  Name = 
REMARK  6 active torsions:
REMARK  status: ('A' for Active; 'I' for Inactive)
REMARK    1  A    between atoms: S_2  and  N_4
REMARK    2  A    between atoms: S_2  and  C_12
REMARK    3  A    between atoms: N_4  and  C_5
REMARK    4  A    between atoms: C_5  and  C_6
REMARK    5  A    between atoms: C_15  and  C_16
REMARK    6  A    between atoms: C_17  and  C_18
REMARK                            x       y       z     vdW  Elec       q    Type
REMARK                         _______ _______ _______ _____ _____    ______ ____
ROOT
ATOM      1  C   UNL     1       3.536   6.540  18.136  0.00  0.00    +0.000 A 
ATOM      2  C   UNL     1       3.138   7.721  17.501  0.00  0.00    +0.000 A 
ATOM      3  C   UNL     1       2.235   8.585  18.142  0.00  0.00    +0.000 A 
ATOM      4  C   UNL     1       1.734   8.281  19.416  0.00  0.00    +0.000 A 
ATOM      5  C   UNL     1       2.188   7.118  20.051  0.00  0.00    +0.000 A 
ATOM      6  C   UNL     1       3.048   6.235  19.404  0.00  0.00    +0.000 A 
ENDROOT
BRANCH   1   8
ATOM      7  O   UNL     1       5.563   4.914  18.292  0.00  0.00    +0.000 OA
ATOM      8  S   UNL     1       4.611   5.384  17.308  0.00  0.00    +0.000 S 
ATOM      9  O   UNL     1       5.027   6.000  16.068  0.00  0.00    +0.000 OA
BRANCH   8  10
ATOM     10  N   UNL     1       3.601   4.071  16.956  0.00  0.00    +0.000 NA
ATOM     11  H   UNL     1       3.537   3.886  15.956  0.00  0.00    +0.000 HD
BRANCH  10  12
ATOM     12  C   UNL     1       3.794   2.863  17.775  0.00  0.00    +0.000 C 
BRANCH  12  13
ATOM     13  C   UNL     1       2.907   2.831  18.996  0.00  0.00    +0.000 A 
ATOM     14  C   UNL     1       3.457   2.650  20.274  0.00  0.00    +0.000 A 
ATOM     15  C   UNL     1       2.645   2.689  21.408  0.00  0.00    +0.000 A 
ATOM     16  C   UNL     1       1.275   2.903  21.276  0.00  0.00    +0.000 A 
ATOM     17  C   UNL     1       0.715   3.074  20.011  0.00  0.00    +0.000 A 
ATOM     18  C   UNL     1       1.528   3.035  18.875  0.00  0.00    +0.000 A 
ENDBRANCH  12  13
ENDBRANCH  10  12
ENDBRANCH   8  10
ENDBRANCH   1   8
BRANCH   4  19
ATOM     19  C   UNL     1       0.768   9.175  20.079  0.00  0.00    +0.000 C 
ATOM     20  C   UNL     1       0.960  10.501  20.167  0.00  0.00    +0.000 C 
BRANCH  20  21
ATOM     21  C   UNL     1      -0.002  11.372  20.752  0.00  0.00    +0.000 A 
ATOM     22  N   UNL     1       0.061  11.952  21.933  0.00  0.00    +0.000 NA
ATOM     23  C   UNL     1      -1.086  12.692  22.178  0.00  0.00    +0.000 A 
ATOM     24  C   UNL     1      -1.356  13.432  23.346  0.00  0.00    +0.000 A 
ATOM     25  C   UNL     1      -2.569  14.118  23.470  0.00  0.00    +0.000 A 
ATOM     26  C   UNL     1      -3.510  14.077  22.445  0.00  0.00    +0.000 A 
ATOM     27  C   UNL     1      -3.261  13.356  21.273  0.00  0.00    +0.000 A 
ATOM     28  C   UNL     1      -2.039  12.672  21.162  0.00  0.00    +0.000 A 
ATOM     29  S   UNL     1      -1.451  11.716  19.866  0.00  0.00    +0.000 S 
ENDBRANCH  20  21
ENDBRANCH   4  19
TORSDOF 6
ENDMDL
MODEL 5
REMARK VINA RESULT:      -8.1      1.110      1.757
REMARK  Name = 
REMARK  6 active torsions:
REMARK  status: ('A' for Active; 'I' for Inactive)
REMARK    1  A    between atoms: S_2  and  N_4
REMARK    2  A    between atoms: S_2  and  C_12
REMARK    3  A    between atoms: N_4  and  C_5
REMARK    4  A    between atoms: C_5  and  C_6
REMARK    5  A    between atoms: C_15  and  C_16
REMARK    6  A    between atoms: C_17  and  C_18
REMARK                            x       y       z     vdW  Elec       q    Type
REMARK                         _______ _______ _______ _____ _____    ______ ____
ROOT
ATOM      1  C   UNL     1       3.532   6.679  18.201  0.00  0.00    +0.000 A 
ATOM      2  C   UNL     1       2.931   6.539  19.456  0.00  0.00    +0.000 A 
ATOM      3  C   UNL     1       1.994   7.491  19.889  0.00  0.00    +0.000 A 
ATOM      4  C   UNL     1       1.646   8.576  19.072  0.00  0.00    +0.000 A 
ATOM      5  C   UNL     1       2.223   8.665  17.799  0.00  0.00    +0.000 A 
ATOM      6  C   UNL     1       3.185   7.750  17.381  0.00  0.00    +0.000 A 
ENDROOT
BRANCH   1   8
ATOM      7  O   UNL     1       5.513   5.119  18.847  0.00  0.00    +0.000 OA
ATOM      8  S   UNL     1       4.789   5.534  17.665  0.00  0.00    +0.000 S 
ATOM      9  O   UNL     1       5.452   6.130  16.527  0.00  0.00    +0.000 OA
BRANCH   8  10
ATOM     10  N   UNL     1       3.911   4.183  17.144  0.00  0.00    +0.000 NA
ATOM     11  H   UNL     1       4.017   4.014  16.144  0.00  0.00    +0.000 HD
BRANCH  10  12
ATOM     12  C   UNL     1       4.029   2.972  17.971  0.00  0.00    +0.000 C 
BRANCH  12  13
ATOM     13  C   UNL     1       3.022   2.926  19.095  0.00  0.00    +0.000 A 
ATOM     14  C   UNL     1       3.432   2.661  20.411  0.00  0.00    +0.000 A 
ATOM     15  C   UNL     1       2.511   2.686  21.459  0.00  0.00    +0.000 A 
ATOM     16  C   UNL     1       1.172   2.972  21.203  0.00  0.00    +0.000 A 
ATOM     17  C   UNL     1       0.751   3.227  19.899  0.00  0.00    +0.000 A 
ATOM     18  C   UNL     1       1.672   3.201  18.848  0.00  0.00    +0.000 A 
ENDBRANCH  12  13
ENDBRANCH  10  12
ENDBRANCH   8  10
ENDBRANCH   1   8
BRANCH   4  19
ATOM     19  C   UNL     1       0.680   9.589  19.535  0.00  0.00    +0.000 C 
ATOM     20  C   UNL     1       0.325   9.706  20.825  0.00  0.00    +0.000 C 
BRANCH  20  21
ATOM     21  C   UNL     1      -0.559  10.724  21.281  0.00  0.00    +0.000 A 
ATOM     22  N   UNL     1      -1.093  11.695  20.567  0.00  0.00    +0.000 NA
ATOM     23  C   UNL     1      -1.866  12.523  21.367  0.00  0.00    +0.000 A 
ATOM     24  C   UNL     1      -2.573  13.662  20.935  0.00  0.00    +0.000 A 
ATOM     25  C   UNL     1      -3.299  14.422  21.858  0.00  0.00    +0.000 A 
ATOM     26  C   UNL     1      -3.331  14.058  23.202  0.00  0.00    +0.000 A 
ATOM     27  C   UNL     1      -2.644  12.927  23.654  0.00  0.00    +0.000 A 
ATOM     28  C   UNL     1      -1.919  12.173  22.715  0.00  0.00    +0.000 A 
ATOM     29  S   UNL     1      -0.989  10.753  22.959  0.00  0.00    +0.000 S 
ENDBRANCH  20  21
ENDBRANCH   4  19
TORSDOF 6
ENDMDL
MODEL 6
REMARK VINA RESULT:      -8.1      0.912      1.654
REMARK  Name = 
REMARK  6 active torsions:
REMARK  status: ('A' for Active; 'I' for Inactive)
REMARK    1  A    between atoms: S_2  and  N_4
REMARK    2  A    between atoms: S_2  and  C_12
REMARK    3  A    between atoms: N_4  and  C_5
REMARK    4  A    between atoms: C_5  and  C_6
REMARK    5  A    between atoms: C_15  and  C_16
REMARK    6  A    between atoms: C_17  and  C_18
REMARK                            x       y       z     vdW  Elec       q    Type
REMARK                         _______ _______ _______ _____ _____    ______ ____
ROOT
ATOM      1  C   UNL     1       3.457   6.539  18.150  0.00  0.00    +0.000 A 
ATOM      2  C   UNL     1       3.014   6.221  19.439  0.00  0.00    +0.000 A 
ATOM      3  C   UNL     1       2.141   7.093  20.109  0.00  0.00    +0.000 A 
ATOM      4  C   UNL     1       1.701   8.275  19.498  0.00  0.00    +0.000 A 
ATOM      5  C   UNL     1       2.118   8.545  18.188  0.00  0.00    +0.000 A 
ATOM      6  C   UNL     1       3.017   7.707  17.535  0.00  0.00    +0.000 A 
ENDROOT
BRANCH   1   8
ATOM      7  O   UNL     1       5.595   5.063  18.304  0.00  0.00    +0.000 OA
ATOM      8  S   UNL     1       4.633   5.493  17.313  0.00  0.00    +0.000 S 
ATOM      9  O   UNL     1       5.029   6.179  16.103  0.00  0.00    +0.000 OA
BRANCH   8  10
ATOM     10  N   UNL     1       3.731   4.122  16.896  0.00  0.00    +0.000 NA
ATOM     11  H   UNL     1       3.772   3.919  15.898  0.00  0.00    +0.000 HD
BRANCH  10  12
ATOM     12  C   UNL     1       3.911   2.940  17.754  0.00  0.00    +0.000 C 
BRANCH  12  13
ATOM     13  C   UNL     1       3.000   2.941  18.958  0.00  0.00    +0.000 A 
ATOM     14  C   UNL     1       1.616   3.119  18.807  0.00  0.00    +0.000 A 
ATOM     15  C   UNL     1       0.768   3.052  19.913  0.00  0.00    +0.000 A 
ATOM     16  C   UNL     1       1.294   2.812  21.181  0.00  0.00    +0.000 A 
ATOM     17  C   UNL     1       2.668   2.645  21.344  0.00  0.00    +0.000 A 
ATOM     18  C   UNL     1       3.519   2.712  20.238  0.00  0.00    +0.000 A 
ENDBRANCH  12  13
ENDBRANCH  10  12
ENDBRANCH   8  10
ENDBRANCH   1   8
BRANCH   4  19
ATOM     19  C   UNL     1       0.804   9.204  20.210  0.00  0.00    +0.000 C 
ATOM     20  C   UNL     1       0.202  10.234  19.594  0.00  0.00    +0.000 C 
BRANCH  20  21
ATOM     21  C   UNL     1      -0.713  11.093  20.267  0.00  0.00    +0.000 A 
ATOM     22  N   UNL     1      -0.799  11.306  21.564  0.00  0.00    +0.000 NA
ATOM     23  C   UNL     1      -1.844  12.172  21.850  0.00  0.00    +0.000 A 
ATOM     24  C   UNL     1      -2.226  12.608  23.133  0.00  0.00    +0.000 A 
ATOM     25  C   UNL     1      -3.319  13.469  23.279  0.00  0.00    +0.000 A 
ATOM     26  C   UNL     1      -4.031  13.900  22.163  0.00  0.00    +0.000 A 
ATOM     27  C   UNL     1      -3.666  13.488  20.878  0.00  0.00    +0.000 A 
ATOM     28  C   UNL     1      -2.566  12.623  20.747  0.00  0.00    +0.000 A 
ATOM     29  S   UNL     1      -1.884  11.953  19.323  0.00  0.00    +0.000 S 
ENDBRANCH  20  21
ENDBRANCH   4  19
TORSDOF 6
ENDMDL
MODEL 7
REMARK VINA RESULT:      -8.0      0.990      1.377
REMARK  Name = 
REMARK  6 active torsions:
REMARK  status: ('A' for Active; 'I' for Inactive)
REMARK    1  A    between atoms: S_2  and  N_4
REMARK    2  A    between atoms: S_2  and  C_12
REMARK    3  A    between atoms: N_4  and  C_5
REMARK    4  A    between atoms: C_5  and  C_6
REMARK    5  A    between atoms: C_15  and  C_16
REMARK    6  A    between atoms: C_17  and  C_18
REMARK                            x       y       z     vdW  Elec       q    Type
REMARK                         _______ _______ _______ _____ _____    ______ ____
ROOT
ATOM      1  C   UNL     1       3.658   6.220  18.095  0.00  0.00    +0.000 A 
ATOM      2  C   UNL     1       3.294   7.432  17.500  0.00  0.00    +0.000 A 
ATOM      3  C   UNL     1       2.463   8.326  18.195  0.00  0.00    +0.000 A 
ATOM      4  C   UNL     1       2.003   8.021  19.484  0.00  0.00    +0.000 A 
ATOM      5  C   UNL     1       2.425   6.825  20.078  0.00  0.00    +0.000 A 
ATOM      6  C   UNL     1       3.212   5.914  19.377  0.00  0.00    +0.000 A 
ENDROOT
BRANCH   1   8
ATOM      7  O   UNL     1       5.616   4.505  18.128  0.00  0.00    +0.000 OA
ATOM      8  S   UNL     1       4.638   5.029  17.200  0.00  0.00    +0.000 S 
ATOM      9  O   UNL     1       5.018   5.643  15.947  0.00  0.00    +0.000 OA
BRANCH   8  10
ATOM     10  N   UNL     1       3.554   3.767  16.886  0.00  0.00    +0.000 NA
ATOM     11  H   UNL     1       3.473   3.563  15.890  0.00  0.00    +0.000 HD
BRANCH  10  12
ATOM     12  C   UNL     1       3.686   2.569  17.731  0.00  0.00    +0.000 C 
BRANCH  12  13
ATOM     13  C   UNL     1       2.854   2.641  18.989  0.00  0.00    +0.000 A 
ATOM     14  C   UNL     1       3.450   2.483  20.250  0.00  0.00    +0.000 A 
ATOM     15  C   UNL     1       2.693   2.618  21.414  0.00  0.00    +0.000 A 
ATOM     16  C   UNL     1       1.333   2.907  21.330  0.00  0.00    +0.000 A 
ATOM     17  C   UNL     1       0.728   3.056  20.084  0.00  0.00    +0.000 A 
ATOM     18  C   UNL     1       1.485   2.921  18.917  0.00  0.00    +0.000 A 
ENDBRANCH  12  13
ENDBRANCH  10  12
ENDBRANCH   8  10
ENDBRANCH   1   8
BRANCH   4  19
ATOM     19  C   UNL     1       1.112   8.948  20.205  0.00  0.00    +0.000 C 
ATOM     20  C   UNL     1       0.394   9.891  19.573  0.00  0.00    +0.000 C 
BRANCH  20  21
ATOM     21  C   UNL     1      -0.513  10.745  20.262  0.00  0.00    +0.000 A 
ATOM     22  N   UNL     1      -1.367  11.596  19.730  0.00  0.00    +0.000 NA
ATOM     23  C   UNL     1      -2.050  12.287  20.719  0.00  0.00    +0.000 A 
ATOM     24  C   UNL     1      -3.028  13.278  20.507  0.00  0.00    +0.000 A 
ATOM     25  C   UNL     1      -3.625  13.912  21.602  0.00  0.00    +0.000 A 
ATOM     26  C   UNL     1      -3.261  13.569  22.901  0.00  0.00    +0.000 A 
ATOM     27  C   UNL     1      -2.298  12.583  23.137  0.00  0.00    +0.000 A 
ATOM     28  C   UNL     1      -1.707  11.954  22.028  0.00  0.00    +0.000 A 
ATOM     29  S   UNL     1      -0.514  10.723  21.995  0.00  0.00    +0.000 S 
ENDBRANCH  20  21
ENDBRANCH   4  19
TORSDOF 6
ENDMDL
MODEL 8
REMARK VINA RESULT:      -8.0      5.849      7.758
REMARK  Name = 
REMARK  6 active torsions:
REMARK  status: ('A' for Active; 'I' for Inactive)
REMARK    1  A    between atoms: S_2  and  N_4
REMARK    2  A    between atoms: S_2  and  C_12
REMARK    3  A    between atoms: N_4  and  C_5
REMARK    4  A    between atoms: C_5  and  C_6
REMARK    5  A    between atoms: C_15  and  C_16
REMARK    6  A    between atoms: C_17  and  C_18
REMARK                            x       y       z     vdW  Elec       q    Type
REMARK                         _______ _______ _______ _____ _____    ______ ____
ROOT
ATOM      1  C   UNL     1       6.145   5.477  17.267  0.00  0.00    +0.000 A 
ATOM      2  C   UNL     1       7.192   5.341  18.184  0.00  0.00    +0.000 A 
ATOM      3  C   UNL     1       7.969   6.460  18.524  0.00  0.00    +0.000 A 
ATOM      4  C   UNL     1       7.701   7.716  17.961  0.00  0.00    +0.000 A 
ATOM      5  C   UNL     1       6.615   7.836  17.085  0.00  0.00    +0.000 A 
ATOM      6  C   UNL     1       5.868   6.722  16.710  0.00  0.00    +0.000 A 
ENDROOT
BRANCH   1   8
ATOM      7  O   UNL     1       6.009   3.340  15.787  0.00  0.00    +0.000 OA
ATOM      8  S   UNL     1       5.201   4.055  16.752  0.00  0.00    +0.000 S 
ATOM      9  O   UNL     1       3.866   4.517  16.446  0.00  0.00    +0.000 OA
BRANCH   8  10
ATOM     10  N   UNL     1       5.142   3.085  18.138  0.00  0.00    +0.000 NA
ATOM     11  H   UNL     1       5.424   3.589  18.978  0.00  0.00    +0.000 HD
BRANCH  10  12
ATOM     12  C   UNL     1       3.929   2.269  18.311  0.00  0.00    +0.000 C 
BRANCH  12  13
ATOM     13  C   UNL     1       2.886   2.941  19.171  0.00  0.00    +0.000 A 
ATOM     14  C   UNL     1       3.207   4.078  19.928  0.00  0.00    +0.000 A 
ATOM     15  C   UNL     1       2.225   4.738  20.668  0.00  0.00    +0.000 A 
ATOM     16  C   UNL     1       0.915   4.266  20.664  0.00  0.00    +0.000 A 
ATOM     17  C   UNL     1       0.586   3.131  19.925  0.00  0.00    +0.000 A 
ATOM     18  C   UNL     1       1.568   2.469  19.183  0.00  0.00    +0.000 A 
ENDBRANCH  12  13
ENDBRANCH  10  12
ENDBRANCH   8  10
ENDBRANCH   1   8
BRANCH   4  19
ATOM     19  C   UNL     1       8.531   8.887  18.298  0.00  0.00    +0.000 C 
ATOM     20  C   UNL     1       8.243  10.122  17.856  0.00  0.00    +0.000 C 
BRANCH  20  21
ATOM     21  C   UNL     1       9.008  11.262  18.232  0.00  0.00    +0.000 A 
ATOM     22  N   UNL     1       9.183  12.369  17.540  0.00  0.00    +0.000 NA
ATOM     23  C   UNL     1      10.031  13.237  18.210  0.00  0.00    +0.000 A 
ATOM     24  C   UNL     1      10.441  14.506  17.754  0.00  0.00    +0.000 A 
ATOM     25  C   UNL     1      11.321  15.271  18.526  0.00  0.00    +0.000 A 
ATOM     26  C   UNL     1      11.794  14.790  19.744  0.00  0.00    +0.000 A 
ATOM     27  C   UNL     1      11.395  13.537  20.221  0.00  0.00    +0.000 A 
ATOM     28  C   UNL     1      10.510  12.779  19.435  0.00  0.00    +0.000 A 
ATOM     29  S   UNL     1       9.848  11.229  19.748  0.00  0.00    +0.000 S 
ENDBRANCH  20  21
ENDBRANCH   4  19
TORSDOF 6
ENDMDL
MODEL 9
REMARK VINA RESULT:      -7.9      1.569      1.952
REMARK  Name = 
REMARK  6 active torsions:
REMARK  status: ('A' for Active; 'I' for Inactive)
REMARK    1  A    between atoms: S_2  and  N_4
REMARK    2  A    between atoms: S_2  and  C_12
REMARK    3  A    between atoms: N_4  and  C_5
REMARK    4  A    between atoms: C_5  and  C_6
REMARK    5  A    between atoms: C_15  and  C_16
REMARK    6  A    between atoms: C_17  and  C_18
REMARK                            x       y       z     vdW  Elec       q    Type
REMARK                         _______ _______ _______ _____ _____    ______ ____
ROOT
ATOM      1  C   UNL     1       4.851   6.109  18.055  0.00  0.00    +0.000 A 
ATOM      2  C   UNL     1       4.448   7.122  17.180  0.00  0.00    +0.000 A 
ATOM      3  C   UNL     1       3.322   7.902  17.489  0.00  0.00    +0.000 A 
ATOM      4  C   UNL     1       2.602   7.683  18.672  0.00  0.00    +0.000 A 
ATOM      5  C   UNL     1       3.057   6.697  19.557  0.00  0.00    +0.000 A 
ATOM      6  C   UNL     1       4.145   5.891  19.235  0.00  0.00    +0.000 A 
ENDROOT
BRANCH   1   8
ATOM      7  O   UNL     1       7.029   4.918  18.838  0.00  0.00    +0.000 OA
ATOM      8  S   UNL     1       6.222   5.046  17.643  0.00  0.00    +0.000 S 
ATOM      9  O   UNL     1       6.769   5.520  16.392  0.00  0.00    +0.000 OA
BRANCH   8  10
ATOM     10  N   UNL     1       5.501   3.535  17.390  0.00  0.00    +0.000 NA
ATOM     11  H   UNL     1       5.473   2.971  18.239  0.00  0.00    +0.000 HD
BRANCH  10  12
ATOM     12  C   UNL     1       4.241   3.534  16.631  0.00  0.00    +0.000 C 
BRANCH  12  13
ATOM     13  C   UNL     1       3.046   3.159  17.473  0.00  0.00    +0.000 A 
ATOM     14  C   UNL     1       3.091   2.041  18.320  0.00  0.00    +0.000 A 
ATOM     15  C   UNL     1       2.010   1.735  19.149  0.00  0.00    +0.000 A 
ATOM     16  C   UNL     1       0.873   2.540  19.137  0.00  0.00    +0.000 A 
ATOM     17  C   UNL     1       0.813   3.647  18.292  0.00  0.00    +0.000 A 
ATOM     18  C   UNL     1       1.894   3.954  17.461  0.00  0.00    +0.000 A 
ENDBRANCH  12  13
ENDBRANCH  10  12
ENDBRANCH   8  10
ENDBRANCH   1   8
BRANCH   4  19
ATOM     19  C   UNL     1       1.407   8.486  18.987  0.00  0.00    +0.000 C 
ATOM     20  C   UNL     1       0.948   9.443  18.164  0.00  0.00    +0.000 C 
BRANCH  20  21
ATOM     21  C   UNL     1      -0.242  10.175  18.438  0.00  0.00    +0.000 A 
ATOM     22  N   UNL     1      -0.461  10.992  19.449  0.00  0.00    +0.000 NA
ATOM     23  C   UNL     1      -1.756  11.485  19.408  0.00  0.00    +0.000 A 
ATOM     24  C   UNL     1      -2.330  12.374  20.338  0.00  0.00    +0.000 A 
ATOM     25  C   UNL     1      -3.661  12.776  20.187  0.00  0.00    +0.000 A 
ATOM     26  C   UNL     1      -4.424  12.304  19.122  0.00  0.00    +0.000 A 
ATOM     27  C   UNL     1      -3.875  11.428  18.181  0.00  0.00    +0.000 A 
ATOM     28  C   UNL     1      -2.536  11.033  18.345  0.00  0.00    +0.000 A 
ATOM     29  S   UNL     1      -1.593   9.983  17.370  0.00  0.00    +0.000 S 
ENDBRANCH  20  21
ENDBRANCH   4  19
TORSDOF 6
ENDMDL
