MODEL 1
REMARK VINA RESULT:      -8.4      0.000      0.000
REMARK  Name = 
REMARK  5 active torsions:
REMARK  status: ('A' for Active; 'I' for Inactive)
REMARK    1  A    between atoms: C_2  and  C_3
REMARK    2  A    between atoms: C_3  and  N_4
REMARK    3  A    between atoms: N_25  and  C_26
REMARK    4  A    between atoms: C_31  and  C_32
REMARK    5  A    between atoms: C_32  and  O_34
REMARK                            x       y       z     vdW  Elec       q    Type
REMARK                         _______ _______ _______ _____ _____    ______ ____
ROOT
ATOM      1  N   UNL     1       0.836   9.420  19.948  0.00  0.00    +0.000 N 
ATOM      2  C   UNL     1       0.728   9.764  21.264  0.00  0.00    +0.000 C 
ATOM      3  O   UNL     1       1.492   9.451  22.165  0.00  0.00    +0.000 OA
ATOM      4  C   UNL     1      -0.464  10.649  21.445  0.00  0.00    +0.000 C 
ATOM      5  C   UNL     1      -0.050  12.080  21.873  0.00  0.00    +0.000 C 
ATOM      6  C   UNL     1      -1.387  12.811  22.008  0.00  0.00    +0.000 A 
ATOM      7  C   UNL     1      -1.846  13.444  23.156  0.00  0.00    +0.000 A 
ATOM      8  C   UNL     1      -3.067  14.114  23.102  0.00  0.00    +0.000 A 
ATOM      9  C   UNL     1      -3.813  14.146  21.913  0.00  0.00    +0.000 A 
ATOM     10  C   UNL     1      -3.355  13.504  20.756  0.00  0.00    +0.000 A 
ATOM     11  C   UNL     1      -2.141  12.832  20.801  0.00  0.00    +0.000 A 
ATOM     12  C   UNL     1      -1.432  12.147  19.620  0.00  0.00    +0.000 C 
ATOM     13  C   UNL     1      -0.057  12.808  19.509  0.00  0.00    +0.000 A 
ATOM     14  C   UNL     1       0.471  13.367  18.354  0.00  0.00    +0.000 A 
ATOM     15  C   UNL     1       1.778  13.850  18.393  0.00  0.00    +0.000 A 
ATOM     16  C   UNL     1       2.534  13.777  19.572  0.00  0.00    +0.000 A 
ATOM     17  C   UNL     1       2.000  13.224  20.741  0.00  0.00    +0.000 A 
ATOM     18  C   UNL     1       0.699  12.740  20.708  0.00  0.00    +0.000 A 
ATOM     19  C   UNL     1      -1.151  10.675  20.049  0.00  0.00    +0.000 C 
ATOM     20  C   UNL     1      -0.150   9.960  19.162  0.00  0.00    +0.000 C 
ATOM     21  O   UNL     1      -0.212   9.893  17.944  0.00  0.00    +0.000 OA
ENDROOT
BRANCH   1  22
ATOM     22  C   UNL     1       2.047   8.817  19.423  0.00  0.00    +0.000 C 
BRANCH  22  24
ATOM     23  O   UNL     1       1.796   6.708  20.486  0.00  0.00    +0.000 OA
ATOM     24  C   UNL     1       2.168   7.293  19.466  0.00  0.00    +0.000 C 
ATOM     25  N   UNL     1       2.731   6.677  18.364  0.00  0.00    +0.000 N 
ATOM     26  H   UNL     1       3.272   7.273  17.735  0.00  0.00    +0.000 HD
BRANCH  25  27
ATOM     27  C   UNL     1       2.881   5.272  18.168  0.00  0.00    +0.000 A 
ATOM     28  C   UNL     1       1.790   4.457  17.831  0.00  0.00    +0.000 A 
ATOM     29  C   UNL     1       1.923   3.071  17.700  0.00  0.00    +0.000 A 
ATOM     30  C   UNL     1       3.154   2.466  17.904  0.00  0.00    +0.000 A 
ATOM     31  C   UNL     1       4.264   3.252  18.206  0.00  0.00    +0.000 A 
ATOM     32  C   UNL     1       4.144   4.654  18.301  0.00  0.00    +0.000 A 
BRANCH  32  33
ATOM     33  C   UNL     1       5.356   5.473  18.573  0.00  0.00    +0.000 C 
ATOM     34  O   UNL     1       5.721   6.379  17.839  0.00  0.00    +0.000 OA
BRANCH  33  35
ATOM     35  O   UNL     1       6.070   5.080  19.649  0.00  0.00    +0.000 OA
ATOM     36  H   UNL     1       5.772   5.438  20.505  0.00  0.00    +0.000 HD
ENDBRANCH  33  35
ENDBRANCH  32  33
ENDBRANCH  25  27
ENDBRANCH  22  24
ENDBRANCH   1  22
TORSDOF 5
ENDMDL
MODEL 2
REMARK VINA RESULT:      -8.4      1.006      1.006
REMARK  Name = 
REMARK  5 active torsions:
REMARK  status: ('A' for Active; 'I' for Inactive)
REMARK    1  A    between atoms: C_2  and  C_3
REMARK    2  A    between atoms: C_3  and  N_4
REMARK    3  A    between atoms: N_25  and  C_26
REMARK    4  A    between atoms: C_31  and  C_32
REMARK    5  A    between atoms: C_32  and  O_34
REMARK                            x       y       z     vdW  Elec       q    Type
REMARK                         _______ _______ _______ _____ _____    ______ ____
ROOT
ATOM      1  N   UNL     1       0.980   9.240  19.695  0.00  0.00    +0.000 N 
ATOM      2  C   UNL     1       0.833   9.477  21.031  0.00  0.00    +0.000 C 
ATOM      3  O   UNL     1       1.587   9.118  21.923  0.00  0.00    +0.000 OA
ATOM      4  C   UNL     1      -0.390  10.309  21.251  0.00  0.00    +0.000 C 
ATOM      5  C   UNL     1      -0.032  11.715  21.798  0.00  0.00    +0.000 C 
ATOM      6  C   UNL     1      -1.393  12.392  21.957  0.00  0.00    +0.000 A 
ATOM      7  C   UNL     1      -1.897  12.919  23.139  0.00  0.00    +0.000 A 
ATOM      8  C   UNL     1      -3.137  13.554  23.108  0.00  0.00    +0.000 A 
ATOM      9  C   UNL     1      -3.858  13.656  21.907  0.00  0.00    +0.000 A 
ATOM     10  C   UNL     1      -3.356  13.120  20.716  0.00  0.00    +0.000 A 
ATOM     11  C   UNL     1      -2.122  12.483  20.738  0.00  0.00    +0.000 A 
ATOM     12  C   UNL     1      -1.367  11.915  19.524  0.00  0.00    +0.000 C 
ATOM     13  C   UNL     1      -0.012  12.623  19.497  0.00  0.00    +0.000 A 
ATOM     14  C   UNL     1       0.523  13.286  18.402  0.00  0.00    +0.000 A 
ATOM     15  C   UNL     1       1.813  13.804  18.508  0.00  0.00    +0.000 A 
ATOM     16  C   UNL     1       2.545  13.662  19.697  0.00  0.00    +0.000 A 
ATOM     17  C   UNL     1       2.004  13.004  20.806  0.00  0.00    +0.000 A 
ATOM     18  C   UNL     1       0.721  12.486  20.705  0.00  0.00    +0.000 A 
ATOM     19  C   UNL     1      -1.048  10.423  19.846  0.00  0.00    +0.000 C 
ATOM     20  C   UNL     1      -0.005   9.810  18.930  0.00  0.00    +0.000 C 
ATOM     21  O   UNL     1      -0.040   9.836  17.710  0.00  0.00    +0.000 OA
ENDROOT
BRANCH   1  22
ATOM     22  C   UNL     1       2.221   8.716  19.154  0.00  0.00    +0.000 C 
BRANCH  22  24
ATOM     23  O   UNL     1       1.902   6.805  17.781  0.00  0.00    +0.000 OA
ATOM     24  C   UNL     1       2.305   7.216  18.871  0.00  0.00    +0.000 C 
ATOM     25  N   UNL     1       2.794   6.413  19.885  0.00  0.00    +0.000 N 
ATOM     26  H   UNL     1       2.801   6.816  20.824  0.00  0.00    +0.000 HD
BRANCH  25  27
ATOM     27  C   UNL     1       3.016   5.006  19.813  0.00  0.00    +0.000 A 
ATOM     28  C   UNL     1       1.996   4.086  20.098  0.00  0.00    +0.000 A 
ATOM     29  C   UNL     1       2.229   2.707  20.088  0.00  0.00    +0.000 A 
ATOM     30  C   UNL     1       3.492   2.214  19.792  0.00  0.00    +0.000 A 
ATOM     31  C   UNL     1       4.517   3.102  19.470  0.00  0.00    +0.000 A 
ATOM     32  C   UNL     1       4.278   4.491  19.440  0.00  0.00    +0.000 A 
BRANCH  32  33
ATOM     33  C   UNL     1       5.377   5.412  19.042  0.00  0.00    +0.000 C 
ATOM     34  O   UNL     1       5.320   6.119  18.048  0.00  0.00    +0.000 OA
BRANCH  33  35
ATOM     35  O   UNL     1       6.479   5.340  19.818  0.00  0.00    +0.000 OA
ATOM     36  H   UNL     1       6.898   6.194  20.033  0.00  0.00    +0.000 HD
ENDBRANCH  33  35
ENDBRANCH  32  33
ENDBRANCH  25  27
ENDBRANCH  22  24
ENDBRANCH   1  22
TORSDOF 5
ENDMDL
MODEL 3
REMARK VINA RESULT:      -8.0      1.287      1.774
REMARK  Name = 
REMARK  5 active torsions:
REMARK  status: ('A' for Active; 'I' for Inactive)
REMARK    1  A    between atoms: C_2  and  C_3
REMARK    2  A    between atoms: C_3  and  N_4
REMARK    3  A    between atoms: N_25  and  C_26
REMARK    4  A    between atoms: C_31  and  C_32
REMARK    5  A    between atoms: C_32  and  O_34
REMARK                            x       y       z     vdW  Elec       q    Type
REMARK                         _______ _______ _______ _____ _____    ______ ____
ROOT
ATOM      1  N   UNL     1       0.912   9.366  19.451  0.00  0.00    +0.000 N 
ATOM      2  C   UNL     1       0.805   9.491  20.806  0.00  0.00    +0.000 C 
ATOM      3  O   UNL     1       1.600   9.089  21.641  0.00  0.00    +0.000 OA
ATOM      4  C   UNL     1      -0.436  10.261  21.132  0.00  0.00    +0.000 C 
ATOM      5  C   UNL     1      -0.103  11.630  21.779  0.00  0.00    +0.000 C 
ATOM      6  C   UNL     1      -1.478  12.247  22.035  0.00  0.00    +0.000 A 
ATOM      7  C   UNL     1      -1.956  12.661  23.272  0.00  0.00    +0.000 A 
ATOM      8  C   UNL     1      -3.216  13.254  23.333  0.00  0.00    +0.000 A 
ATOM      9  C   UNL     1      -3.982  13.426  22.169  0.00  0.00    +0.000 A 
ATOM     10  C   UNL     1      -3.505  13.003  20.922  0.00  0.00    +0.000 A 
ATOM     11  C   UNL     1      -2.252  12.409  20.852  0.00  0.00    +0.000 A 
ATOM     12  C   UNL     1      -1.523  11.964  19.573  0.00  0.00    +0.000 C 
ATOM     13  C   UNL     1      -0.192  12.719  19.559  0.00  0.00    +0.000 A 
ATOM     14  C   UNL     1       0.282  13.484  18.503  0.00  0.00    +0.000 A 
ATOM     15  C   UNL     1       1.558  14.036  18.609  0.00  0.00    +0.000 A 
ATOM     16  C   UNL     1       2.336  13.825  19.757  0.00  0.00    +0.000 A 
ATOM     17  C   UNL     1       1.856  13.063  20.827  0.00  0.00    +0.000 A 
ATOM     18  C   UNL     1       0.586  12.511  20.727  0.00  0.00    +0.000 A 
ATOM     19  C   UNL     1      -1.146  10.463  19.763  0.00  0.00    +0.000 C 
ATOM     20  C   UNL     1      -0.118   9.960  18.767  0.00  0.00    +0.000 C 
ATOM     21  O   UNL     1      -0.196  10.082  17.555  0.00  0.00    +0.000 OA
ENDROOT
BRANCH   1  22
ATOM     22  C   UNL     1       2.147   8.929  18.830  0.00  0.00    +0.000 C 
BRANCH  22  24
ATOM     23  O   UNL     1       1.456   7.185  17.375  0.00  0.00    +0.000 OA
ATOM     24  C   UNL     1       2.217   7.499  18.293  0.00  0.00    +0.000 C 
ATOM     25  N   UNL     1       3.108   6.640  18.908  0.00  0.00    +0.000 N 
ATOM     26  H   UNL     1       3.445   6.918  19.832  0.00  0.00    +0.000 HD
BRANCH  25  27
ATOM     27  C   UNL     1       3.378   5.292  18.529  0.00  0.00    +0.000 A 
ATOM     28  C   UNL     1       4.275   4.986  17.495  0.00  0.00    +0.000 A 
ATOM     29  C   UNL     1       4.494   3.668  17.081  0.00  0.00    +0.000 A 
ATOM     30  C   UNL     1       3.817   2.622  17.693  0.00  0.00    +0.000 A 
ATOM     31  C   UNL     1       2.946   2.892  18.746  0.00  0.00    +0.000 A 
ATOM     32  C   UNL     1       2.751   4.214  19.194  0.00  0.00    +0.000 A 
BRANCH  32  33
ATOM     33  C   UNL     1       1.856   4.467  20.355  0.00  0.00    +0.000 C 
ATOM     34  O   UNL     1       0.688   4.110  20.379  0.00  0.00    +0.000 OA
BRANCH  33  35
ATOM     35  O   UNL     1       2.410   5.200  21.343  0.00  0.00    +0.000 OA
ATOM     36  H   UNL     1       3.350   5.427  21.222  0.00  0.00    +0.000 HD
ENDBRANCH  33  35
ENDBRANCH  32  33
ENDBRANCH  25  27
ENDBRANCH  22  24
ENDBRANCH   1  22
TORSDOF 5
ENDMDL
MODEL 4
REMARK VINA RESULT:      -7.9      4.477      7.767
REMARK  Name = 
REMARK  5 active torsions:
REMARK  status: ('A' for Active; 'I' for Inactive)
REMARK    1  A    between atoms: C_2  and  C_3
REMARK    2  A    between atoms: C_3  and  N_4
REMARK    3  A    between atoms: N_25  and  C_26
REMARK    4  A    between atoms: C_31  and  C_32
REMARK    5  A    between atoms: C_32  and  O_34
REMARK                            x       y       z     vdW  Elec       q    Type
REMARK                         _______ _______ _______ _____ _____    ______ ____
ROOT
ATOM      1  N   UNL     1       1.463  13.671  19.958  0.00  0.00    +0.000 N 
ATOM      2  C   UNL     1       1.546  12.809  18.903  0.00  0.00    +0.000 C 
ATOM      3  O   UNL     1       2.566  12.343  18.420  0.00  0.00    +0.000 OA
ATOM      4  C   UNL     1       0.165  12.464  18.442  0.00  0.00    +0.000 C 
ATOM      5  C   UNL     1      -0.157  10.966  18.681  0.00  0.00    +0.000 C 
ATOM      6  C   UNL     1      -1.582  10.820  18.148  0.00  0.00    +0.000 A 
ATOM      7  C   UNL     1      -1.980   9.940  17.150  0.00  0.00    +0.000 A 
ATOM      8  C   UNL     1      -3.332   9.888  16.811  0.00  0.00    +0.000 A 
ATOM      9  C   UNL     1      -4.265  10.709  17.465  0.00  0.00    +0.000 A 
ATOM     10  C   UNL     1      -3.864  11.601  18.466  0.00  0.00    +0.000 A 
ATOM     11  C   UNL     1      -2.520  11.661  18.809  0.00  0.00    +0.000 A 
ATOM     12  C   UNL     1      -1.902  12.505  19.937  0.00  0.00    +0.000 C 
ATOM     13  C   UNL     1      -1.187  11.520  20.862  0.00  0.00    +0.000 A 
ATOM     14  C   UNL     1      -1.374  11.430  22.233  0.00  0.00    +0.000 A 
ATOM     15  C   UNL     1      -0.577  10.539  22.951  0.00  0.00    +0.000 A 
ATOM     16  C   UNL     1       0.384   9.752  22.299  0.00  0.00    +0.000 A 
ATOM     17  C   UNL     1       0.567   9.833  20.914  0.00  0.00    +0.000 A 
ATOM     18  C   UNL     1      -0.224  10.719  20.195  0.00  0.00    +0.000 A 
ATOM     19  C   UNL     1      -0.773  13.366  19.294  0.00  0.00    +0.000 C 
ATOM     20  C   UNL     1       0.174  13.985  20.305  0.00  0.00    +0.000 C 
ATOM     21  O   UNL     1      -0.167  14.643  21.275  0.00  0.00    +0.000 OA
ENDROOT
BRANCH   1  22
ATOM     22  C   UNL     1       2.615  13.950  20.795  0.00  0.00    +0.000 C 
BRANCH  22  24
ATOM     23  O   UNL     1       3.117  16.064  19.838  0.00  0.00    +0.000 OA
ATOM     24  C   UNL     1       3.586  15.042  20.343  0.00  0.00    +0.000 C 
ATOM     25  N   UNL     1       4.935  14.785  20.498  0.00  0.00    +0.000 N 
ATOM     26  H   UNL     1       5.201  13.808  20.632  0.00  0.00    +0.000 HD
BRANCH  25  27
ATOM     27  C   UNL     1       6.003  15.684  20.204  0.00  0.00    +0.000 A 
ATOM     28  C   UNL     1       6.491  16.583  21.164  0.00  0.00    +0.000 A 
ATOM     29  C   UNL     1       7.496  17.507  20.859  0.00  0.00    +0.000 A 
ATOM     30  C   UNL     1       8.038  17.553  19.583  0.00  0.00    +0.000 A 
ATOM     31  C   UNL     1       7.599  16.649  18.618  0.00  0.00    +0.000 A 
ATOM     32  C   UNL     1       6.614  15.689  18.931  0.00  0.00    +0.000 A 
BRANCH  32  33
ATOM     33  C   UNL     1       6.202  14.703  17.896  0.00  0.00    +0.000 C 
ATOM     34  O   UNL     1       6.969  13.875  17.429  0.00  0.00    +0.000 OA
BRANCH  33  35
ATOM     35  O   UNL     1       4.937  14.851  17.450  0.00  0.00    +0.000 OA
ATOM     36  H   UNL     1       4.682  15.759  17.203  0.00  0.00    +0.000 HD
ENDBRANCH  33  35
ENDBRANCH  32  33
ENDBRANCH  25  27
ENDBRANCH  22  24
ENDBRANCH   1  22
TORSDOF 5
ENDMDL
MODEL 5
REMARK VINA RESULT:      -7.9      6.962     11.376
REMARK  Name = 
REMARK  5 active torsions:
REMARK  status: ('A' for Active; 'I' for Inactive)
REMARK    1  A    between atoms: C_2  and  C_3
REMARK    2  A    between atoms: C_3  and  N_4
REMARK    3  A    between atoms: N_25  and  C_26
REMARK    4  A    between atoms: C_31  and  C_32
REMARK    5  A    between atoms: C_32  and  O_34
REMARK                            x       y       z     vdW  Elec       q    Type
REMARK                         _______ _______ _______ _____ _____    ______ ____
ROOT
ATOM      1  N   UNL     1       6.856  15.932  19.661  0.00  0.00    +0.000 N 
ATOM      2  C   UNL     1       6.961  15.018  18.653  0.00  0.00    +0.000 C 
ATOM      3  O   UNL     1       6.276  14.964  17.643  0.00  0.00    +0.000 OA
ATOM      4  C   UNL     1       8.102  14.095  18.944  0.00  0.00    +0.000 C 
ATOM      5  C   UNL     1       9.245  14.260  17.909  0.00  0.00    +0.000 C 
ATOM      6  C   UNL     1      10.292  13.246  18.371  0.00  0.00    +0.000 A 
ATOM      7  C   UNL     1      10.801  12.208  17.600  0.00  0.00    +0.000 A 
ATOM      8  C   UNL     1      11.793  11.398  18.150  0.00  0.00    +0.000 A 
ATOM      9  C   UNL     1      12.262  11.627  19.453  0.00  0.00    +0.000 A 
ATOM     10  C   UNL     1      11.746  12.668  20.234  0.00  0.00    +0.000 A 
ATOM     11  C   UNL     1      10.756  13.479  19.696  0.00  0.00    +0.000 A 
ATOM     12  C   UNL     1      10.132  14.719  20.358  0.00  0.00    +0.000 C 
ATOM     13  C   UNL     1      10.376  15.883  19.396  0.00  0.00    +0.000 A 
ATOM     14  C   UNL     1      10.967  17.091  19.735  0.00  0.00    +0.000 A 
ATOM     15  C   UNL     1      11.036  18.088  18.763  0.00  0.00    +0.000 A 
ATOM     16  C   UNL     1      10.526  17.869  17.475  0.00  0.00    +0.000 A 
ATOM     17  C   UNL     1       9.940  16.647  17.127  0.00  0.00    +0.000 A 
ATOM     18  C   UNL     1       9.868  15.651  18.091  0.00  0.00    +0.000 A 
ATOM     19  C   UNL     1       8.588  14.503  20.364  0.00  0.00    +0.000 C 
ATOM     20  C   UNL     1       7.795  15.766  20.646  0.00  0.00    +0.000 C 
ATOM     21  O   UNL     1       7.981  16.514  21.593  0.00  0.00    +0.000 OA
ENDROOT
BRANCH   1  22
ATOM     22  C   UNL     1       6.039  17.122  19.517  0.00  0.00    +0.000 C 
BRANCH  22  24
ATOM     23  O   UNL     1       4.075  17.183  20.851  0.00  0.00    +0.000 OA
ATOM     24  C   UNL     1       4.529  16.988  19.722  0.00  0.00    +0.000 C 
ATOM     25  N   UNL     1       3.778  16.614  18.623  0.00  0.00    +0.000 N 
ATOM     26  H   UNL     1       4.287  16.188  17.846  0.00  0.00    +0.000 HD
BRANCH  25  27
ATOM     27  C   UNL     1       2.358  16.493  18.575  0.00  0.00    +0.000 A 
ATOM     28  C   UNL     1       1.532  17.608  18.369  0.00  0.00    +0.000 A 
ATOM     29  C   UNL     1       0.138  17.501  18.383  0.00  0.00    +0.000 A 
ATOM     30  C   UNL     1      -0.465  16.271  18.605  0.00  0.00    +0.000 A 
ATOM     31  C   UNL     1       0.328  15.138  18.777  0.00  0.00    +0.000 A 
ATOM     32  C   UNL     1       1.734  15.234  18.725  0.00  0.00    +0.000 A 
BRANCH  32  33
ATOM     33  C   UNL     1       2.555  14.001  18.860  0.00  0.00    +0.000 C 
ATOM     34  O   UNL     1       2.491  13.268  19.836  0.00  0.00    +0.000 OA
BRANCH  33  35
ATOM     35  O   UNL     1       3.440  13.802  17.861  0.00  0.00    +0.000 OA
ATOM     36  H   UNL     1       4.046  13.047  17.980  0.00  0.00    +0.000 HD
ENDBRANCH  33  35
ENDBRANCH  32  33
ENDBRANCH  25  27
ENDBRANCH  22  24
ENDBRANCH   1  22
TORSDOF 5
ENDMDL
MODEL 6
REMARK VINA RESULT:      -7.8      1.396      1.886
REMARK  Name = 
REMARK  5 active torsions:
REMARK  status: ('A' for Active; 'I' for Inactive)
REMARK    1  A    between atoms: C_2  and  C_3
REMARK    2  A    between atoms: C_3  and  N_4
REMARK    3  A    between atoms: N_25  and  C_26
REMARK    4  A    between atoms: C_31  and  C_32
REMARK    5  A    between atoms: C_32  and  O_34
REMARK                            x       y       z     vdW  Elec       q    Type
REMARK                         _______ _______ _______ _____ _____    ______ ____
ROOT
ATOM      1  N   UNL     1       0.792   9.811  19.287  0.00  0.00    +0.000 N 
ATOM      2  C   UNL     1       0.678   9.798  20.646  0.00  0.00    +0.000 C 
ATOM      3  O   UNL     1       1.522   9.423  21.446  0.00  0.00    +0.000 OA
ATOM      4  C   UNL     1      -0.646  10.376  21.034  0.00  0.00    +0.000 C 
ATOM      5  C   UNL     1      -0.481  11.712  21.804  0.00  0.00    +0.000 C 
ATOM      6  C   UNL     1      -1.920  12.128  22.108  0.00  0.00    +0.000 A 
ATOM      7  C   UNL     1      -2.438  12.366  23.375  0.00  0.00    +0.000 A 
ATOM      8  C   UNL     1      -3.761  12.791  23.482  0.00  0.00    +0.000 A 
ATOM      9  C   UNL     1      -4.549  12.972  22.334  0.00  0.00    +0.000 A 
ATOM     10  C   UNL     1      -4.031  12.726  21.057  0.00  0.00    +0.000 A 
ATOM     11  C   UNL     1      -2.715  12.300  20.940  0.00  0.00    +0.000 A 
ATOM     12  C   UNL     1      -1.944  12.067  19.630  0.00  0.00    +0.000 C 
ATOM     13  C   UNL     1      -0.717  12.978  19.691  0.00  0.00    +0.000 A 
ATOM     14  C   UNL     1      -0.347  13.888  18.712  0.00  0.00    +0.000 A 
ATOM     15  C   UNL     1       0.852  14.581  18.874  0.00  0.00    +0.000 A 
ATOM     16  C   UNL     1       1.657  14.365  20.003  0.00  0.00    +0.000 A 
ATOM     17  C   UNL     1       1.280  13.456  20.997  0.00  0.00    +0.000 A 
ATOM     18  C   UNL     1       0.088  12.762  20.840  0.00  0.00    +0.000 A 
ATOM     19  C   UNL     1      -1.384  10.613  19.685  0.00  0.00    +0.000 C 
ATOM     20  C   UNL     1      -0.307  10.333  18.653  0.00  0.00    +0.000 C 
ATOM     21  O   UNL     1      -0.407  10.553  17.457  0.00  0.00    +0.000 OA
ENDROOT
BRANCH   1  22
ATOM     22  C   UNL     1       2.068   9.588  18.635  0.00  0.00    +0.000 C 
BRANCH  22  24
ATOM     23  O   UNL     1       1.362   7.696  17.385  0.00  0.00    +0.000 OA
ATOM     24  C   UNL     1       2.308   8.234  17.964  0.00  0.00    +0.000 C 
ATOM     25  N   UNL     1       3.570   7.685  18.092  0.00  0.00    +0.000 N 
ATOM     26  H   UNL     1       4.159   8.063  18.836  0.00  0.00    +0.000 HD
BRANCH  25  27
ATOM     27  C   UNL     1       4.026   6.472  17.497  0.00  0.00    +0.000 A 
ATOM     28  C   UNL     1       4.886   6.475  16.389  0.00  0.00    +0.000 A 
ATOM     29  C   UNL     1       5.283   5.287  15.766  0.00  0.00    +0.000 A 
ATOM     30  C   UNL     1       4.828   4.065  16.239  0.00  0.00    +0.000 A 
ATOM     31  C   UNL     1       4.000   4.027  17.359  0.00  0.00    +0.000 A 
ATOM     32  C   UNL     1       3.628   5.219  18.015  0.00  0.00    +0.000 A 
BRANCH  32  33
ATOM     33  C   UNL     1       2.786   5.146  19.239  0.00  0.00    +0.000 C 
ATOM     34  O   UNL     1       1.679   4.629  19.251  0.00  0.00    +0.000 OA
BRANCH  33  35
ATOM     35  O   UNL     1       3.304   5.774  20.315  0.00  0.00    +0.000 OA
ATOM     36  H   UNL     1       3.859   6.552  20.122  0.00  0.00    +0.000 HD
ENDBRANCH  33  35
ENDBRANCH  32  33
ENDBRANCH  25  27
ENDBRANCH  22  24
ENDBRANCH   1  22
TORSDOF 5
ENDMDL
MODEL 7
REMARK VINA RESULT:      -7.8      4.666      7.875
REMARK  Name = 
REMARK  5 active torsions:
REMARK  status: ('A' for Active; 'I' for Inactive)
REMARK    1  A    between atoms: C_2  and  C_3
REMARK    2  A    between atoms: C_3  and  N_4
REMARK    3  A    between atoms: N_25  and  C_26
REMARK    4  A    between atoms: C_31  and  C_32
REMARK    5  A    between atoms: C_32  and  O_34
REMARK                            x       y       z     vdW  Elec       q    Type
REMARK                         _______ _______ _______ _____ _____    ______ ____
ROOT
ATOM      1  N   UNL     1       1.177  13.925  20.513  0.00  0.00    +0.000 N 
ATOM      2  C   UNL     1       1.421  13.103  19.452  0.00  0.00    +0.000 C 
ATOM      3  O   UNL     1       2.512  12.710  19.069  0.00  0.00    +0.000 OA
ATOM      4  C   UNL     1       0.120  12.696  18.836  0.00  0.00    +0.000 C 
ATOM      5  C   UNL     1      -0.138  11.176  19.002  0.00  0.00    +0.000 C 
ATOM      6  C   UNL     1      -1.488  10.966  18.315  0.00  0.00    +0.000 A 
ATOM      7  C   UNL     1      -1.726  10.097  17.258  0.00  0.00    +0.000 A 
ATOM      8  C   UNL     1      -3.028   9.981  16.775  0.00  0.00    +0.000 A 
ATOM      9  C   UNL     1      -4.072  10.728  17.345  0.00  0.00    +0.000 A 
ATOM     10  C   UNL     1      -3.832  11.610  18.405  0.00  0.00    +0.000 A 
ATOM     11  C   UNL     1      -2.538  11.734  18.892  0.00  0.00    +0.000 A 
ATOM     12  C   UNL     1      -2.094  12.576  20.100  0.00  0.00    +0.000 C 
ATOM     13  C   UNL     1      -1.424  11.603  21.072  0.00  0.00    +0.000 A 
ATOM     14  C   UNL     1      -1.749  11.460  22.413  0.00  0.00    +0.000 A 
ATOM     15  C   UNL     1      -0.982  10.594  23.190  0.00  0.00    +0.000 A 
ATOM     16  C   UNL     1       0.087   9.882  22.625  0.00  0.00    +0.000 A 
ATOM     17  C   UNL     1       0.410  10.016  21.271  0.00  0.00    +0.000 A 
ATOM     18  C   UNL     1      -0.350  10.878  20.493  0.00  0.00    +0.000 A 
ATOM     19  C   UNL     1      -0.955  13.517  19.605  0.00  0.00    +0.000 C 
ATOM     20  C   UNL     1      -0.158  14.156  20.727  0.00  0.00    +0.000 C 
ATOM     21  O   UNL     1      -0.638  14.764  21.671  0.00  0.00    +0.000 OA
ENDROOT
BRANCH   1  22
ATOM     22  C   UNL     1       2.215  14.242  21.476  0.00  0.00    +0.000 C 
BRANCH  22  24
ATOM     23  O   UNL     1       3.032  16.458  21.226  0.00  0.00    +0.000 OA
ATOM     24  C   UNL     1       3.283  15.261  21.074  0.00  0.00    +0.000 C 
ATOM     25  N   UNL     1       4.450  14.762  20.525  0.00  0.00    +0.000 N 
ATOM     26  H   UNL     1       4.415  13.805  20.170  0.00  0.00    +0.000 HD
BRANCH  25  27
ATOM     27  C   UNL     1       5.593  15.524  20.142  0.00  0.00    +0.000 A 
ATOM     28  C   UNL     1       6.736  15.590  20.953  0.00  0.00    +0.000 A 
ATOM     29  C   UNL     1       7.834  16.386  20.609  0.00  0.00    +0.000 A 
ATOM     30  C   UNL     1       7.813  17.137  19.443  0.00  0.00    +0.000 A 
ATOM     31  C   UNL     1       6.706  17.066  18.599  0.00  0.00    +0.000 A 
ATOM     32  C   UNL     1       5.613  16.234  18.921  0.00  0.00    +0.000 A 
BRANCH  32  33
ATOM     33  C   UNL     1       4.468  16.137  17.977  0.00  0.00    +0.000 C 
ATOM     34  O   UNL     1       3.728  17.078  17.736  0.00  0.00    +0.000 OA
BRANCH  33  35
ATOM     35  O   UNL     1       4.257  14.902  17.475  0.00  0.00    +0.000 OA
ATOM     36  H   UNL     1       3.360  14.736  17.131  0.00  0.00    +0.000 HD
ENDBRANCH  33  35
ENDBRANCH  32  33
ENDBRANCH  25  27
ENDBRANCH  22  24
ENDBRANCH   1  22
TORSDOF 5
ENDMDL
MODEL 8
REMARK VINA RESULT:      -7.7      1.662      1.981
REMARK  Name = 
REMARK  5 active torsions:
REMARK  status: ('A' for Active; 'I' for Inactive)
REMARK    1  A    between atoms: C_2  and  C_3
REMARK    2  A    between atoms: C_3  and  N_4
REMARK    3  A    between atoms: N_25  and  C_26
REMARK    4  A    between atoms: C_31  and  C_32
REMARK    5  A    between atoms: C_32  and  O_34
REMARK                            x       y       z     vdW  Elec       q    Type
REMARK                         _______ _______ _______ _____ _____    ______ ____
ROOT
ATOM      1  N   UNL     1       0.994   9.055  19.324  0.00  0.00    +0.000 N 
ATOM      2  C   UNL     1       0.908   9.203  20.677  0.00  0.00    +0.000 C 
ATOM      3  O   UNL     1       1.703   8.792  21.509  0.00  0.00    +0.000 OA
ATOM      4  C   UNL     1      -0.307  10.012  21.006  0.00  0.00    +0.000 C 
ATOM      5  C   UNL     1       0.071  11.381  21.627  0.00  0.00    +0.000 C 
ATOM      6  C   UNL     1      -1.284  12.039  21.891  0.00  0.00    +0.000 A 
ATOM      7  C   UNL     1      -1.734  12.485  23.126  0.00  0.00    +0.000 A 
ATOM      8  C   UNL     1      -2.977  13.113  23.193  0.00  0.00    +0.000 A 
ATOM      9  C   UNL     1      -3.752  13.288  22.035  0.00  0.00    +0.000 A 
ATOM     10  C   UNL     1      -3.303  12.833  20.790  0.00  0.00    +0.000 A 
ATOM     11  C   UNL     1      -2.067  12.204  20.714  0.00  0.00    +0.000 A 
ATOM     12  C   UNL     1      -1.367  11.720  19.434  0.00  0.00    +0.000 C 
ATOM     13  C   UNL     1      -0.016  12.437  19.391  0.00  0.00    +0.000 A 
ATOM     14  C   UNL     1       0.465  13.173  18.318  0.00  0.00    +0.000 A 
ATOM     15  C   UNL     1       1.757  13.691  18.400  0.00  0.00    +0.000 A 
ATOM     16  C   UNL     1       2.543  13.477  19.541  0.00  0.00    +0.000 A 
ATOM     17  C   UNL     1       2.056  12.745  20.630  0.00  0.00    +0.000 A 
ATOM     18  C   UNL     1       0.771  12.226  20.553  0.00  0.00    +0.000 A 
ATOM     19  C   UNL     1      -1.029  10.212  19.642  0.00  0.00    +0.000 C 
ATOM     20  C   UNL     1      -0.027   9.666  18.643  0.00  0.00    +0.000 C 
ATOM     21  O   UNL     1      -0.117   9.771  17.429  0.00  0.00    +0.000 OA
ENDROOT
BRANCH   1  22
ATOM     22  C   UNL     1       2.210   8.574  18.694  0.00  0.00    +0.000 C 
BRANCH  22  24
ATOM     23  O   UNL     1       3.776   6.791  18.617  0.00  0.00    +0.000 OA
ATOM     24  C   UNL     1       2.651   7.138  18.982  0.00  0.00    +0.000 C 
ATOM     25  N   UNL     1       1.731   6.311  19.599  0.00  0.00    +0.000 N 
ATOM     26  H   UNL     1       0.755   6.611  19.568  0.00  0.00    +0.000 HD
BRANCH  25  27
ATOM     27  C   UNL     1       1.952   4.965  20.014  0.00  0.00    +0.000 A 
ATOM     28  C   UNL     1       2.019   4.616  21.371  0.00  0.00    +0.000 A 
ATOM     29  C   UNL     1       2.298   3.307  21.778  0.00  0.00    +0.000 A 
ATOM     30  C   UNL     1       2.518   2.314  20.835  0.00  0.00    +0.000 A 
ATOM     31  C   UNL     1       2.424   2.622  19.479  0.00  0.00    +0.000 A 
ATOM     32  C   UNL     1       2.104   3.931  19.062  0.00  0.00    +0.000 A 
BRANCH  32  33
ATOM     33  C   UNL     1       1.959   4.220  17.610  0.00  0.00    +0.000 C 
ATOM     34  O   UNL     1       0.873   4.362  17.069  0.00  0.00    +0.000 OA
BRANCH  33  35
ATOM     35  O   UNL     1       3.119   4.226  16.920  0.00  0.00    +0.000 OA
ATOM     36  H   UNL     1       3.650   3.411  16.982  0.00  0.00    +0.000 HD
ENDBRANCH  33  35
ENDBRANCH  32  33
ENDBRANCH  25  27
ENDBRANCH  22  24
ENDBRANCH   1  22
TORSDOF 5
ENDMDL
MODEL 9
REMARK VINA RESULT:      -7.6      2.855      5.320
REMARK  Name = 
REMARK  5 active torsions:
REMARK  status: ('A' for Active; 'I' for Inactive)
REMARK    1  A    between atoms: C_2  and  C_3
REMARK    2  A    between atoms: C_3  and  N_4
REMARK    3  A    between atoms: N_25  and  C_26
REMARK    4  A    between atoms: C_31  and  C_32
REMARK    5  A    between atoms: C_32  and  O_34
REMARK                            x       y       z     vdW  Elec       q    Type
REMARK                         _______ _______ _______ _____ _____    ______ ____
ROOT
ATOM      1  N   UNL     1      -1.046  12.940  20.297  0.00  0.00    +0.000 N 
ATOM      2  C   UNL     1      -0.802  14.283  20.261  0.00  0.00    +0.000 C 
ATOM      3  O   UNL     1      -0.699  14.978  19.261  0.00  0.00    +0.000 OA
ATOM      4  C   UNL     1      -0.730  14.808  21.659  0.00  0.00    +0.000 C 
ATOM      5  C   UNL     1      -1.899  15.781  21.963  0.00  0.00    +0.000 C 
ATOM      6  C   UNL     1      -1.645  16.201  23.411  0.00  0.00    +0.000 A 
ATOM      7  C   UNL     1      -1.475  17.507  23.851  0.00  0.00    +0.000 A 
ATOM      8  C   UNL     1      -1.304  17.731  25.217  0.00  0.00    +0.000 A 
ATOM      9  C   UNL     1      -1.302  16.657  26.122  0.00  0.00    +0.000 A 
ATOM     10  C   UNL     1      -1.466  15.339  25.679  0.00  0.00    +0.000 A 
ATOM     11  C   UNL     1      -1.635  15.107  24.321  0.00  0.00    +0.000 A 
ATOM     12  C   UNL     1      -1.918  13.749  23.655  0.00  0.00    +0.000 C 
ATOM     13  C   UNL     1      -3.233  13.916  22.892  0.00  0.00    +0.000 A 
ATOM     14  C   UNL     1      -4.339  13.088  23.014  0.00  0.00    +0.000 A 
ATOM     15  C   UNL     1      -5.432  13.320  22.180  0.00  0.00    +0.000 A 
ATOM     16  C   UNL     1      -5.412  14.367  21.247  0.00  0.00    +0.000 A 
ATOM     17  C   UNL     1      -4.302  15.211  21.130  0.00  0.00    +0.000 A 
ATOM     18  C   UNL     1      -3.210  14.984  21.957  0.00  0.00    +0.000 A 
ATOM     19  C   UNL     1      -0.827  13.543  22.561  0.00  0.00    +0.000 C 
ATOM     20  C   UNL     1      -1.154  12.442  21.570  0.00  0.00    +0.000 C 
ATOM     21  O   UNL     1      -1.476  11.302  21.869  0.00  0.00    +0.000 OA
ENDROOT
BRANCH   1  22
ATOM     22  C   UNL     1      -1.455  12.215  19.109  0.00  0.00    +0.000 C 
BRANCH  22  24
ATOM     23  O   UNL     1      -1.524   9.997  18.265  0.00  0.00    +0.000 OA
ATOM     24  C   UNL     1      -0.845  10.834  18.863  0.00  0.00    +0.000 C 
ATOM     25  N   UNL     1       0.421  10.608  19.370  0.00  0.00    +0.000 N 
ATOM     26  H   UNL     1       0.744  11.251  20.096  0.00  0.00    +0.000 HD
BRANCH  25  27
ATOM     27  C   UNL     1       1.196   9.423  19.203  0.00  0.00    +0.000 A 
ATOM     28  C   UNL     1       1.780   9.096  17.970  0.00  0.00    +0.000 A 
ATOM     29  C   UNL     1       2.489   7.903  17.788  0.00  0.00    +0.000 A 
ATOM     30  C   UNL     1       2.629   7.007  18.838  0.00  0.00    +0.000 A 
ATOM     31  C   UNL     1       2.090   7.321  20.084  0.00  0.00    +0.000 A 
ATOM     32  C   UNL     1       1.409   8.539  20.284  0.00  0.00    +0.000 A 
BRANCH  32  33
ATOM     33  C   UNL     1       0.889   8.871  21.638  0.00  0.00    +0.000 C 
ATOM     34  O   UNL     1       1.606   9.276  22.541  0.00  0.00    +0.000 OA
BRANCH  33  35
ATOM     35  O   UNL     1      -0.422   8.605  21.817  0.00  0.00    +0.000 OA
ATOM     36  H   UNL     1      -0.731   7.752  21.461  0.00  0.00    +0.000 HD
ENDBRANCH  33  35
ENDBRANCH  32  33
ENDBRANCH  25  27
ENDBRANCH  22  24
ENDBRANCH   1  22
TORSDOF 5
ENDMDL
