MODEL 1
REMARK VINA RESULT:      -7.6      0.000      0.000
REMARK  Name = 
REMARK  7 active torsions:
REMARK  status: ('A' for Active; 'I' for Inactive)
REMARK    1  A    between atoms: C_1  and  C_2
REMARK    2  A    between atoms: C_2  and  C_3
REMARK    3  A    between atoms: C_7  and  O_8
REMARK    4  A    between atoms: C_13  and  C_14
REMARK    5  A    between atoms: C_18  and  C_20
REMARK    6  A    between atoms: C_23  and  N_24
REMARK    7  A    between atoms: N_27  and  C_28
REMARK                            x       y       z     vdW  Elec       q    Type
REMARK                         _______ _______ _______ _____ _____    ______ ____
ROOT
ATOM      1  C   UNL     1      -4.678  15.038  23.545  0.00  0.00    +0.000 C 
ATOM      2  C   UNL     1      -3.709  13.934  23.061  0.00  0.00    +0.000 C 
ATOM      3  C   UNL     1      -4.413  12.649  23.657  0.00  0.00    +0.000 C 
ATOM      4  C   UNL     1      -3.576  13.631  21.537  0.00  0.00    +0.000 C 
ATOM      5  C   UNL     1      -3.335  14.984  20.822  0.00  0.00    +0.000 C 
ATOM      6  C   UNL     1      -1.922  15.428  21.071  0.00  0.00    +0.000 A 
ATOM      7  C   UNL     1      -1.154  16.047  20.075  0.00  0.00    +0.000 A 
ATOM      8  C   UNL     1       0.225  16.174  20.199  0.00  0.00    +0.000 A 
ATOM      9  C   UNL     1       0.845  15.731  21.360  0.00  0.00    +0.000 A 
ATOM     10  C   UNL     1       0.078  15.209  22.408  0.00  0.00    +0.000 A 
ATOM     11  C   UNL     1      -1.327  15.039  22.295  0.00  0.00    +0.000 A 
ATOM     12  C   UNL     1      -2.163  14.304  23.436  0.00  0.00    +0.000 C 
ATOM     13  C   UNL     1      -2.031  15.266  24.637  0.00  0.00    +0.000 C 
ATOM     14  C   UNL     1      -1.502  12.933  23.682  0.00  0.00    +0.000 C 
ATOM     15  C   UNL     1      -1.857  11.950  22.550  0.00  0.00    +0.000 C 
ATOM     16  N   UNL     1      -2.424  12.598  21.340  0.00  0.00    +0.000 N 
ATOM     17  C   UNL     1      -1.912  12.346  20.062  0.00  0.00    +0.000 C 
ATOM     18  O   UNL     1      -2.503  12.728  19.050  0.00  0.00    +0.000 OA
ENDROOT
BRANCH  17  19
ATOM     19  C   UNL     1      -0.583  11.539  19.960  0.00  0.00    +0.000 C 
ATOM     20  C   UNL     1       0.669  12.378  19.660  0.00  0.00    +0.000 C 
ATOM     21  C   UNL     1       1.662  11.508  18.914  0.00  0.00    +0.000 C 
ATOM     22  C   UNL     1       0.888  10.276  18.471  0.00  0.00    +0.000 C 
ATOM     23  C   UNL     1      -0.584  10.569  18.772  0.00  0.00    +0.000 C 
BRANCH  22  24
ATOM     24  N   UNL     1       1.367   9.077  19.140  0.00  0.00    +0.000 N 
ATOM     25  C   UNL     1       2.138   8.174  18.425  0.00  0.00    +0.000 C 
ATOM     26  O   UNL     1       2.512   8.370  17.279  0.00  0.00    +0.000 OA
ATOM     27  N   UNL     1       2.341   7.029  19.167  0.00  0.00    +0.000 N 
ATOM     28  H   UNL     1       1.594   9.141  20.122  0.00  0.00    +0.000 HD
ATOM     29  H   UNL     1       1.606   6.862  19.839  0.00  0.00    +0.000 HD
BRANCH  27  30
ATOM     30  C   UNL     1       2.986   5.890  18.649  0.00  0.00    +0.000 A 
ATOM     31  C   UNL     1       4.358   5.668  18.803  0.00  0.00    +0.000 A 
ATOM     32  C   UNL     1       4.952   4.537  18.240  0.00  0.00    +0.000 A 
ATOM     33  C   UNL     1       4.182   3.636  17.506  0.00  0.00    +0.000 A 
ATOM     34  C   UNL     1       2.813   3.852  17.355  0.00  0.00    +0.000 A 
ATOM     35  C   UNL     1       2.212   4.962  17.947  0.00  0.00    +0.000 A 
ENDBRANCH  27  30
ENDBRANCH  22  24
ENDBRANCH  17  19
BRANCH   7  36
ATOM     36  O   UNL     1      -1.672  16.494  18.876  0.00  0.00    +0.000 OA
ATOM     37  H   UNL     1      -2.623  16.674  18.965  0.00  0.00    +0.000 HD
ENDBRANCH   7  36
TORSDOF 4
ENDMDL
MODEL 2
REMARK VINA RESULT:      -7.4      1.008      1.011
REMARK  Name = 
REMARK  7 active torsions:
REMARK  status: ('A' for Active; 'I' for Inactive)
REMARK    1  A    between atoms: C_1  and  C_2
REMARK    2  A    between atoms: C_2  and  C_3
REMARK    3  A    between atoms: C_7  and  O_8
REMARK    4  A    between atoms: C_13  and  C_14
REMARK    5  A    between atoms: C_18  and  C_20
REMARK    6  A    between atoms: C_23  and  N_24
REMARK    7  A    between atoms: N_27  and  C_28
REMARK                            x       y       z     vdW  Elec       q    Type
REMARK                         _______ _______ _______ _____ _____    ______ ____
ROOT
ATOM      1  C   UNL     1      -4.322  14.857  23.247  0.00  0.00    +0.000 C 
ATOM      2  C   UNL     1      -3.352  13.744  22.784  0.00  0.00    +0.000 C 
ATOM      3  C   UNL     1      -4.090  12.464  23.349  0.00  0.00    +0.000 C 
ATOM      4  C   UNL     1      -3.178  13.451  21.262  0.00  0.00    +0.000 C 
ATOM      5  C   UNL     1      -2.898  14.806  20.565  0.00  0.00    +0.000 C 
ATOM      6  C   UNL     1      -1.489  15.230  20.860  0.00  0.00    +0.000 A 
ATOM      7  C   UNL     1      -0.683  15.846  19.891  0.00  0.00    +0.000 A 
ATOM      8  C   UNL     1       0.693  15.955  20.058  0.00  0.00    +0.000 A 
ATOM      9  C   UNL     1       1.272  15.496  21.233  0.00  0.00    +0.000 A 
ATOM     10  C   UNL     1       0.468  14.976  22.254  0.00  0.00    +0.000 A 
ATOM     11  C   UNL     1      -0.935  14.825  22.098  0.00  0.00    +0.000 A 
ATOM     12  C   UNL     1      -1.814  14.093  23.207  0.00  0.00    +0.000 C 
ATOM     13  C   UNL     1      -1.706  15.044  24.419  0.00  0.00    +0.000 C 
ATOM     14  C   UNL     1      -1.177  12.711  23.463  0.00  0.00    +0.000 C 
ATOM     15  C   UNL     1      -1.511  11.741  22.313  0.00  0.00    +0.000 C 
ATOM     16  N   UNL     1      -2.033  12.405  21.092  0.00  0.00    +0.000 N 
ATOM     17  C   UNL     1      -1.487  12.155  19.828  0.00  0.00    +0.000 C 
ATOM     18  O   UNL     1      -2.043  12.552  18.802  0.00  0.00    +0.000 OA
ENDROOT
BRANCH  17  19
ATOM     19  C   UNL     1      -0.165  11.333  19.759  0.00  0.00    +0.000 C 
ATOM     20  C   UNL     1       0.968  11.983  18.951  0.00  0.00    +0.000 C 
ATOM     21  C   UNL     1       1.842  10.884  18.379  0.00  0.00    +0.000 C 
ATOM     22  C   UNL     1       1.055   9.593  18.550  0.00  0.00    +0.000 C 
ATOM     23  C   UNL     1      -0.346  10.008  19.007  0.00  0.00    +0.000 C 
BRANCH  22  24
ATOM     24  N   UNL     1       1.705   8.694  19.489  0.00  0.00    +0.000 N 
ATOM     25  C   UNL     1       2.218   7.494  19.022  0.00  0.00    +0.000 C 
ATOM     26  O   UNL     1       2.229   7.184  17.840  0.00  0.00    +0.000 OA
ATOM     27  N   UNL     1       2.627   6.707  20.079  0.00  0.00    +0.000 N 
ATOM     28  H   UNL     1       2.219   9.102  20.258  0.00  0.00    +0.000 HD
ATOM     29  H   UNL     1       2.130   6.909  20.933  0.00  0.00    +0.000 HD
BRANCH  27  30
ATOM     30  C   UNL     1       3.078   5.383  19.913  0.00  0.00    +0.000 A 
ATOM     31  C   UNL     1       4.340   5.079  19.395  0.00  0.00    +0.000 A 
ATOM     32  C   UNL     1       4.723   3.747  19.221  0.00  0.00    +0.000 A 
ATOM     33  C   UNL     1       3.839   2.718  19.546  0.00  0.00    +0.000 A 
ATOM     34  C   UNL     1       2.582   3.020  20.068  0.00  0.00    +0.000 A 
ATOM     35  C   UNL     1       2.212   4.348  20.275  0.00  0.00    +0.000 A 
ENDBRANCH  27  30
ENDBRANCH  22  24
ENDBRANCH  17  19
BRANCH   7  36
ATOM     36  O   UNL     1      -1.160  16.309  18.681  0.00  0.00    +0.000 OA
ATOM     37  H   UNL     1      -1.892  15.750  18.371  0.00  0.00    +0.000 HD
ENDBRANCH   7  36
TORSDOF 4
ENDMDL
MODEL 3
REMARK VINA RESULT:      -7.3      7.648     11.051
REMARK  Name = 
REMARK  7 active torsions:
REMARK  status: ('A' for Active; 'I' for Inactive)
REMARK    1  A    between atoms: C_1  and  C_2
REMARK    2  A    between atoms: C_2  and  C_3
REMARK    3  A    between atoms: C_7  and  O_8
REMARK    4  A    between atoms: C_13  and  C_14
REMARK    5  A    between atoms: C_18  and  C_20
REMARK    6  A    between atoms: C_23  and  N_24
REMARK    7  A    between atoms: N_27  and  C_28
REMARK                            x       y       z     vdW  Elec       q    Type
REMARK                         _______ _______ _______ _____ _____    ______ ____
ROOT
ATOM      1  C   UNL     1      12.333  11.791  19.411  0.00  0.00    +0.000 C 
ATOM      2  C   UNL     1      10.865  12.229  19.200  0.00  0.00    +0.000 C 
ATOM      3  C   UNL     1      10.138  10.825  19.223  0.00  0.00    +0.000 C 
ATOM      4  C   UNL     1      10.137  13.060  20.302  0.00  0.00    +0.000 C 
ATOM      5  C   UNL     1      11.063  14.249  20.664  0.00  0.00    +0.000 C 
ATOM      6  C   UNL     1      11.008  15.268  19.562  0.00  0.00    +0.000 A 
ATOM      7  C   UNL     1      11.010  16.645  19.827  0.00  0.00    +0.000 A 
ATOM      8  C   UNL     1      10.652  17.570  18.853  0.00  0.00    +0.000 A 
ATOM      9  C   UNL     1      10.342  17.123  17.576  0.00  0.00    +0.000 A 
ATOM     10  C   UNL     1      10.439  15.761  17.267  0.00  0.00    +0.000 A 
ATOM     11  C   UNL     1      10.772  14.793  18.251  0.00  0.00    +0.000 A 
ATOM     12  C   UNL     1      10.730  13.234  17.920  0.00  0.00    +0.000 C 
ATOM     13  C   UNL     1      11.861  13.069  16.882  0.00  0.00    +0.000 C 
ATOM     14  C   UNL     1       9.332  12.921  17.349  0.00  0.00    +0.000 C 
ATOM     15  C   UNL     1       8.282  12.885  18.477  0.00  0.00    +0.000 C 
ATOM     16  N   UNL     1       8.743  13.490  19.753  0.00  0.00    +0.000 N 
ATOM     17  C   UNL     1       7.987  14.459  20.423  0.00  0.00    +0.000 C 
ATOM     18  O   UNL     1       8.273  14.812  21.568  0.00  0.00    +0.000 OA
ENDROOT
BRANCH  17  19
ATOM     19  C   UNL     1       6.755  15.058  19.680  0.00  0.00    +0.000 C 
ATOM     20  C   UNL     1       6.862  16.550  19.335  0.00  0.00    +0.000 C 
ATOM     21  C   UNL     1       5.464  17.137  19.302  0.00  0.00    +0.000 C 
ATOM     22  C   UNL     1       4.561  16.101  19.954  0.00  0.00    +0.000 C 
ATOM     23  C   UNL     1       5.491  15.042  20.551  0.00  0.00    +0.000 C 
BRANCH  22  24
ATOM     24  N   UNL     1       3.618  15.540  18.999  0.00  0.00    +0.000 N 
ATOM     25  C   UNL     1       2.667  14.637  19.448  0.00  0.00    +0.000 C 
ATOM     26  O   UNL     1       2.522  14.345  20.625  0.00  0.00    +0.000 OA
ATOM     27  N   UNL     1       1.992  14.086  18.378  0.00  0.00    +0.000 N 
ATOM     28  H   UNL     1       3.316  16.125  18.232  0.00  0.00    +0.000 HD
ATOM     29  H   UNL     1       2.539  14.082  17.529  0.00  0.00    +0.000 HD
BRANCH  27  30
ATOM     30  C   UNL     1       1.053  13.046  18.524  0.00  0.00    +0.000 A 
ATOM     31  C   UNL     1       1.429  11.708  18.661  0.00  0.00    +0.000 A 
ATOM     32  C   UNL     1       0.455  10.714  18.769  0.00  0.00    +0.000 A 
ATOM     33  C   UNL     1      -0.897  11.053  18.721  0.00  0.00    +0.000 A 
ATOM     34  C   UNL     1      -1.275  12.388  18.589  0.00  0.00    +0.000 A 
ATOM     35  C   UNL     1      -0.303  13.385  18.517  0.00  0.00    +0.000 A 
ENDBRANCH  27  30
ENDBRANCH  22  24
ENDBRANCH  17  19
BRANCH   7  36
ATOM     36  O   UNL     1      11.277  17.185  21.070  0.00  0.00    +0.000 OA
ATOM     37  H   UNL     1      12.213  17.060  21.298  0.00  0.00    +0.000 HD
ENDBRANCH   7  36
TORSDOF 4
ENDMDL
MODEL 4
REMARK VINA RESULT:      -7.0      1.435      1.628
REMARK  Name = 
REMARK  7 active torsions:
REMARK  status: ('A' for Active; 'I' for Inactive)
REMARK    1  A    between atoms: C_1  and  C_2
REMARK    2  A    between atoms: C_2  and  C_3
REMARK    3  A    between atoms: C_7  and  O_8
REMARK    4  A    between atoms: C_13  and  C_14
REMARK    5  A    between atoms: C_18  and  C_20
REMARK    6  A    between atoms: C_23  and  N_24
REMARK    7  A    between atoms: N_27  and  C_28
REMARK                            x       y       z     vdW  Elec       q    Type
REMARK                         _______ _______ _______ _____ _____    ______ ____
ROOT
ATOM      1  C   UNL     1      -5.788  15.476  23.147  0.00  0.00    +0.000 C 
ATOM      2  C   UNL     1      -4.797  14.297  23.001  0.00  0.00    +0.000 C 
ATOM      3  C   UNL     1      -5.692  13.103  23.526  0.00  0.00    +0.000 C 
ATOM      4  C   UNL     1      -4.336  13.842  21.582  0.00  0.00    +0.000 C 
ATOM      5  C   UNL     1      -3.861  15.109  20.828  0.00  0.00    +0.000 C 
ATOM      6  C   UNL     1      -2.520  15.525  21.361  0.00  0.00    +0.000 A 
ATOM      7  C   UNL     1      -1.509  16.016  20.522  0.00  0.00    +0.000 A 
ATOM      8  C   UNL     1      -0.191  16.107  20.954  0.00  0.00    +0.000 A 
ATOM      9  C   UNL     1       0.120  15.758  22.261  0.00  0.00    +0.000 A 
ATOM     10  C   UNL     1      -0.896  15.368  23.142  0.00  0.00    +0.000 A 
ATOM     11  C   UNL     1      -2.245  15.238  22.719  0.00  0.00    +0.000 A 
ATOM     12  C   UNL     1      -3.360  14.648  23.693  0.00  0.00    +0.000 C 
ATOM     13  C   UNL     1      -3.452  15.718  24.803  0.00  0.00    +0.000 C 
ATOM     14  C   UNL     1      -2.852  13.285  24.205  0.00  0.00    +0.000 C 
ATOM     15  C   UNL     1      -2.994  12.209  23.111  0.00  0.00    +0.000 C 
ATOM     16  N   UNL     1      -3.231  12.755  21.751  0.00  0.00    +0.000 N 
ATOM     17  C   UNL     1      -2.455  12.361  20.654  0.00  0.00    +0.000 C 
ATOM     18  O   UNL     1      -2.775  12.663  19.503  0.00  0.00    +0.000 OA
ENDROOT
BRANCH  17  19
ATOM     19  C   UNL     1      -1.185  11.502  20.937  0.00  0.00    +0.000 C 
ATOM     20  C   UNL     1       0.124  12.295  21.068  0.00  0.00    +0.000 C 
ATOM     21  C   UNL     1       1.270  11.404  20.633  0.00  0.00    +0.000 C 
ATOM     22  C   UNL     1       0.633  10.217  19.926  0.00  0.00    +0.000 C 
ATOM     23  C   UNL     1      -0.850  10.564  19.770  0.00  0.00    +0.000 C 
BRANCH  22  24
ATOM     24  N   UNL     1       0.843   8.982  20.664  0.00  0.00    +0.000 N 
ATOM     25  C   UNL     1       1.639   7.995  20.106  0.00  0.00    +0.000 C 
ATOM     26  O   UNL     1       2.248   8.138  19.056  0.00  0.00    +0.000 OA
ATOM     27  N   UNL     1       1.571   6.844  20.862  0.00  0.00    +0.000 N 
ATOM     28  H   UNL     1       0.878   9.033  21.673  0.00  0.00    +0.000 HD
ATOM     29  H   UNL     1       0.706   6.763  21.376  0.00  0.00    +0.000 HD
BRANCH  27  30
ATOM     30  C   UNL     1       2.182   5.637  20.469  0.00  0.00    +0.000 A 
ATOM     31  C   UNL     1       1.660   4.385  20.808  0.00  0.00    +0.000 A 
ATOM     32  C   UNL     1       2.324   3.221  20.420  0.00  0.00    +0.000 A 
ATOM     33  C   UNL     1       3.522   3.304  19.710  0.00  0.00    +0.000 A 
ATOM     34  C   UNL     1       4.042   4.550  19.366  0.00  0.00    +0.000 A 
ATOM     35  C   UNL     1       3.360   5.713  19.723  0.00  0.00    +0.000 A 
ENDBRANCH  27  30
ENDBRANCH  22  24
ENDBRANCH  17  19
BRANCH   7  36
ATOM     36  O   UNL     1      -1.713  16.362  19.201  0.00  0.00    +0.000 OA
ATOM     37  H   UNL     1      -1.885  17.315  19.124  0.00  0.00    +0.000 HD
ENDBRANCH   7  36
TORSDOF 4
ENDMDL
MODEL 5
REMARK VINA RESULT:      -6.8      0.734      1.137
REMARK  Name = 
REMARK  7 active torsions:
REMARK  status: ('A' for Active; 'I' for Inactive)
REMARK    1  A    between atoms: C_1  and  C_2
REMARK    2  A    between atoms: C_2  and  C_3
REMARK    3  A    between atoms: C_7  and  O_8
REMARK    4  A    between atoms: C_13  and  C_14
REMARK    5  A    between atoms: C_18  and  C_20
REMARK    6  A    between atoms: C_23  and  N_24
REMARK    7  A    between atoms: N_27  and  C_28
REMARK                            x       y       z     vdW  Elec       q    Type
REMARK                         _______ _______ _______ _____ _____    ______ ____
ROOT
ATOM      1  C   UNL     1      -3.920  15.664  23.012  0.00  0.00    +0.000 C 
ATOM      2  C   UNL     1      -3.062  14.457  22.565  0.00  0.00    +0.000 C 
ATOM      3  C   UNL     1      -3.939  13.261  23.114  0.00  0.00    +0.000 C 
ATOM      4  C   UNL     1      -2.891  14.147  21.046  0.00  0.00    +0.000 C 
ATOM      5  C   UNL     1      -2.460  15.466  20.356  0.00  0.00    +0.000 C 
ATOM      6  C   UNL     1      -1.019  15.741  20.678  0.00  0.00    +0.000 A 
ATOM      7  C   UNL     1      -0.136  16.270  19.725  0.00  0.00    +0.000 A 
ATOM      8  C   UNL     1       1.241  16.236  19.917  0.00  0.00    +0.000 A 
ATOM      9  C   UNL     1       1.747  15.719  21.102  0.00  0.00    +0.000 A 
ATOM     10  C   UNL     1       0.874  15.286  22.107  0.00  0.00    +0.000 A 
ATOM     11  C   UNL     1      -0.534  15.281  21.925  0.00  0.00    +0.000 A 
ATOM     12  C   UNL     1      -1.504  14.644  23.017  0.00  0.00    +0.000 C 
ATOM     13  C   UNL     1      -1.321  15.579  24.232  0.00  0.00    +0.000 C 
ATOM     14  C   UNL     1      -1.019  13.204  23.281  0.00  0.00    +0.000 C 
ATOM     15  C   UNL     1      -1.431  12.274  22.124  0.00  0.00    +0.000 C 
ATOM     16  N   UNL     1      -1.858  12.988  20.895  0.00  0.00    +0.000 N 
ATOM     17  C   UNL     1      -1.317  12.683  19.640  0.00  0.00    +0.000 C 
ATOM     18  O   UNL     1      -1.810  13.135  18.605  0.00  0.00    +0.000 OA
ENDROOT
BRANCH  17  19
ATOM     19  C   UNL     1      -0.087  11.728  19.595  0.00  0.00    +0.000 C 
ATOM     20  C   UNL     1       1.240  12.390  19.193  0.00  0.00    +0.000 C 
ATOM     21  C   UNL     1       2.111  11.348  18.519  0.00  0.00    +0.000 C 
ATOM     22  C   UNL     1       1.196  10.173  18.211  0.00  0.00    +0.000 C 
ATOM     23  C   UNL     1      -0.227  10.655  18.507  0.00  0.00    +0.000 C 
BRANCH  22  24
ATOM     24  N   UNL     1       1.560   8.998  18.986  0.00  0.00    +0.000 N 
ATOM     25  C   UNL     1       2.288   7.991  18.372  0.00  0.00    +0.000 C 
ATOM     26  O   UNL     1       2.717   8.072  17.231  0.00  0.00    +0.000 OA
ATOM     27  N   UNL     1       2.377   6.893  19.204  0.00  0.00    +0.000 N 
ATOM     28  H   UNL     1       1.754   9.120  19.970  0.00  0.00    +0.000 HD
ATOM     29  H   UNL     1       1.608   6.831  19.854  0.00  0.00    +0.000 HD
BRANCH  27  30
ATOM     30  C   UNL     1       2.955   5.675  18.798  0.00  0.00    +0.000 A 
ATOM     31  C   UNL     1       2.260   4.729  18.039  0.00  0.00    +0.000 A 
ATOM     32  C   UNL     1       2.872   3.523  17.692  0.00  0.00    +0.000 A 
ATOM     33  C   UNL     1       4.171   3.250  18.119  0.00  0.00    +0.000 A 
ATOM     34  C   UNL     1       4.868   4.194  18.872  0.00  0.00    +0.000 A 
ATOM     35  C   UNL     1       4.271   5.414  19.188  0.00  0.00    +0.000 A 
ENDBRANCH  27  30
ENDBRANCH  22  24
ENDBRANCH  17  19
BRANCH   7  36
ATOM     36  O   UNL     1      -0.540  16.780  18.507  0.00  0.00    +0.000 OA
ATOM     37  H   UNL     1      -0.803  17.710  18.601  0.00  0.00    +0.000 HD
ENDBRANCH   7  36
TORSDOF 4
ENDMDL
MODEL 6
REMARK VINA RESULT:      -6.6      3.478     10.760
REMARK  Name = 
REMARK  7 active torsions:
REMARK  status: ('A' for Active; 'I' for Inactive)
REMARK    1  A    between atoms: C_1  and  C_2
REMARK    2  A    between atoms: C_2  and  C_3
REMARK    3  A    between atoms: C_7  and  O_8
REMARK    4  A    between atoms: C_13  and  C_14
REMARK    5  A    between atoms: C_18  and  C_20
REMARK    6  A    between atoms: C_23  and  N_24
REMARK    7  A    between atoms: N_27  and  C_28
REMARK                            x       y       z     vdW  Elec       q    Type
REMARK                         _______ _______ _______ _____ _____    ______ ____
ROOT
ATOM      1  C   UNL     1       3.832   1.096  19.093  0.00  0.00    +0.000 C 
ATOM      2  C   UNL     1       3.047   2.384  18.752  0.00  0.00    +0.000 C 
ATOM      3  C   UNL     1       1.562   1.878  18.950  0.00  0.00    +0.000 C 
ATOM      4  C   UNL     1       3.159   3.630  19.684  0.00  0.00    +0.000 C 
ATOM      5  C   UNL     1       4.668   3.900  19.906  0.00  0.00    +0.000 C 
ATOM      6  C   UNL     1       5.247   4.514  18.664  0.00  0.00    +0.000 A 
ATOM      7  C   UNL     1       6.206   5.536  18.721  0.00  0.00    +0.000 A 
ATOM      8  C   UNL     1       6.508   6.307  17.604  0.00  0.00    +0.000 A 
ATOM      9  C   UNL     1       5.890   6.020  16.395  0.00  0.00    +0.000 A 
ATOM     10  C   UNL     1       5.011   4.935  16.297  0.00  0.00    +0.000 A 
ATOM     11  C   UNL     1       4.661   4.151  17.428  0.00  0.00    +0.000 A 
ATOM     12  C   UNL     1       3.545   3.018  17.332  0.00  0.00    +0.000 C 
ATOM     13  C   UNL     1       4.184   1.981  16.382  0.00  0.00    +0.000 C 
ATOM     14  C   UNL     1       2.274   3.669  16.750  0.00  0.00    +0.000 C 
ATOM     15  C   UNL     1       1.563   4.518  17.821  0.00  0.00    +0.000 C 
ATOM     16  N   UNL     1       2.398   4.814  19.013  0.00  0.00    +0.000 N 
ATOM     17  C   UNL     1       2.554   6.119  19.496  0.00  0.00    +0.000 C 
ATOM     18  O   UNL     1       3.082   6.337  20.588  0.00  0.00    +0.000 OA
ENDROOT
BRANCH  17  19
ATOM     19  C   UNL     1       2.013   7.287  18.617  0.00  0.00    +0.000 C 
ATOM     20  C   UNL     1       3.074   8.027  17.789  0.00  0.00    +0.000 C 
ATOM     21  C   UNL     1       2.613   9.457  17.586  0.00  0.00    +0.000 C 
ATOM     22  C   UNL     1       1.465   9.669  18.562  0.00  0.00    +0.000 C 
ATOM     23  C   UNL     1       1.442   8.432  19.464  0.00  0.00    +0.000 C 
BRANCH  22  24
ATOM     24  N   UNL     1       0.206   9.876  17.866  0.00  0.00    +0.000 N 
ATOM     25  C   UNL     1      -0.774  10.649  18.471  0.00  0.00    +0.000 C 
ATOM     26  O   UNL     1      -0.606  11.239  19.527  0.00  0.00    +0.000 OA
ATOM     27  N   UNL     1      -1.947  10.579  17.749  0.00  0.00    +0.000 N 
ATOM     28  H   UNL     1       0.225   9.932  16.858  0.00  0.00    +0.000 HD
ATOM     29  H   UNL     1      -2.033   9.723  17.221  0.00  0.00    +0.000 HD
BRANCH  27  30
ATOM     30  C   UNL     1      -3.149  11.166  18.191  0.00  0.00    +0.000 A 
ATOM     31  C   UNL     1      -3.204  12.031  19.288  0.00  0.00    +0.000 A 
ATOM     32  C   UNL     1      -4.429  12.558  19.703  0.00  0.00    +0.000 A 
ATOM     33  C   UNL     1      -5.602  12.208  19.036  0.00  0.00    +0.000 A 
ATOM     34  C   UNL     1      -5.549  11.350  17.938  0.00  0.00    +0.000 A 
ATOM     35  C   UNL     1      -4.323  10.851  17.501  0.00  0.00    +0.000 A 
ENDBRANCH  27  30
ENDBRANCH  22  24
ENDBRANCH  17  19
BRANCH   7  36
ATOM     36  O   UNL     1       6.853   5.913  19.880  0.00  0.00    +0.000 OA
ATOM     37  H   UNL     1       6.868   6.881  19.959  0.00  0.00    +0.000 HD
ENDBRANCH   7  36
TORSDOF 4
ENDMDL
MODEL 7
REMARK VINA RESULT:      -6.4      5.151      6.537
REMARK  Name = 
REMARK  7 active torsions:
REMARK  status: ('A' for Active; 'I' for Inactive)
REMARK    1  A    between atoms: C_1  and  C_2
REMARK    2  A    between atoms: C_2  and  C_3
REMARK    3  A    between atoms: C_7  and  O_8
REMARK    4  A    between atoms: C_13  and  C_14
REMARK    5  A    between atoms: C_18  and  C_20
REMARK    6  A    between atoms: C_23  and  N_24
REMARK    7  A    between atoms: N_27  and  C_28
REMARK                            x       y       z     vdW  Elec       q    Type
REMARK                         _______ _______ _______ _____ _____    ______ ____
ROOT
ATOM      1  C   UNL     1      -2.241  12.104  18.858  0.00  0.00    +0.000 C 
ATOM      2  C   UNL     1      -0.750  12.237  19.248  0.00  0.00    +0.000 C 
ATOM      3  C   UNL     1      -0.172  10.897  18.638  0.00  0.00    +0.000 C 
ATOM      4  C   UNL     1       0.122  13.362  18.609  0.00  0.00    +0.000 C 
ATOM      5  C   UNL     1      -0.654  14.693  18.778  0.00  0.00    +0.000 C 
ATOM      6  C   UNL     1      -0.559  15.140  20.208  0.00  0.00    +0.000 A 
ATOM      7  C   UNL     1      -0.405  16.491  20.552  0.00  0.00    +0.000 A 
ATOM      8  C   UNL     1      -0.011  16.871  21.830  0.00  0.00    +0.000 A 
ATOM      9  C   UNL     1       0.177  15.895  22.800  0.00  0.00    +0.000 A 
ATOM     10  C   UNL     1      -0.077  14.552  22.501  0.00  0.00    +0.000 A 
ATOM     11  C   UNL     1      -0.450  14.133  21.196  0.00  0.00    +0.000 A 
ATOM     12  C   UNL     1      -0.587  12.587  20.835  0.00  0.00    +0.000 C 
ATOM     13  C   UNL     1      -1.788  12.135  21.695  0.00  0.00    +0.000 C 
ATOM     14  C   UNL     1       0.735  11.901  21.232  0.00  0.00    +0.000 C 
ATOM     15  C   UNL     1       1.839  12.219  20.205  0.00  0.00    +0.000 C 
ATOM     16  N   UNL     1       1.518  13.353  19.302  0.00  0.00    +0.000 N 
ATOM     17  C   UNL     1       2.407  14.418  19.114  0.00  0.00    +0.000 C 
ATOM     18  O   UNL     1       2.227  15.251  18.223  0.00  0.00    +0.000 OA
ENDROOT
BRANCH  17  19
ATOM     19  C   UNL     1       3.650  14.499  20.051  0.00  0.00    +0.000 C 
ATOM     20  C   UNL     1       3.515  15.474  21.231  0.00  0.00    +0.000 C 
ATOM     21  C   UNL     1       4.897  15.981  21.594  0.00  0.00    +0.000 C 
ATOM     22  C   UNL     1       5.803  15.590  20.437  0.00  0.00    +0.000 C 
ATOM     23  C   UNL     1       4.880  15.068  19.333  0.00  0.00    +0.000 C 
BRANCH  22  24
ATOM     24  N   UNL     1       6.795  14.608  20.846  0.00  0.00    +0.000 N 
ATOM     25  C   UNL     1       7.881  14.369  20.019  0.00  0.00    +0.000 C 
ATOM     26  O   UNL     1       8.098  15.001  18.996  0.00  0.00    +0.000 OA
ATOM     27  N   UNL     1       8.604  13.289  20.483  0.00  0.00    +0.000 N 
ATOM     28  H   UNL     1       6.987  14.511  21.833  0.00  0.00    +0.000 HD
ATOM     29  H   UNL     1       8.043  12.643  21.018  0.00  0.00    +0.000 HD
BRANCH  27  30
ATOM     30  C   UNL     1       9.691  12.740  19.776  0.00  0.00    +0.000 A 
ATOM     31  C   UNL     1       9.553  12.174  18.506  0.00  0.00    +0.000 A 
ATOM     32  C   UNL     1      10.660  11.614  17.865  0.00  0.00    +0.000 A 
ATOM     33  C   UNL     1      11.901  11.600  18.499  0.00  0.00    +0.000 A 
ATOM     34  C   UNL     1      12.043  12.169  19.763  0.00  0.00    +0.000 A 
ATOM     35  C   UNL     1      10.947  12.760  20.390  0.00  0.00    +0.000 A 
ENDBRANCH  27  30
ENDBRANCH  22  24
ENDBRANCH  17  19
BRANCH   7  36
ATOM     36  O   UNL     1      -0.542  17.530  19.654  0.00  0.00    +0.000 OA
ATOM     37  H   UNL     1      -0.979  17.220  18.843  0.00  0.00    +0.000 HD
ENDBRANCH   7  36
TORSDOF 4
ENDMDL
MODEL 8
REMARK VINA RESULT:      -6.4      2.297      4.063
REMARK  Name = 
REMARK  7 active torsions:
REMARK  status: ('A' for Active; 'I' for Inactive)
REMARK    1  A    between atoms: C_1  and  C_2
REMARK    2  A    between atoms: C_2  and  C_3
REMARK    3  A    between atoms: C_7  and  O_8
REMARK    4  A    between atoms: C_13  and  C_14
REMARK    5  A    between atoms: C_18  and  C_20
REMARK    6  A    between atoms: C_23  and  N_24
REMARK    7  A    between atoms: N_27  and  C_28
REMARK                            x       y       z     vdW  Elec       q    Type
REMARK                         _______ _______ _______ _____ _____    ______ ____
ROOT
ATOM      1  C   UNL     1      -7.194  16.387  21.364  0.00  0.00    +0.000 C 
ATOM      2  C   UNL     1      -6.195  15.268  20.984  0.00  0.00    +0.000 C 
ATOM      3  C   UNL     1      -6.397  15.221  19.417  0.00  0.00    +0.000 C 
ATOM      4  C   UNL     1      -4.664  15.499  21.171  0.00  0.00    +0.000 C 
ATOM      5  C   UNL     1      -4.452  16.013  22.618  0.00  0.00    +0.000 C 
ATOM      6  C   UNL     1      -4.611  14.868  23.576  0.00  0.00    +0.000 A 
ATOM      7  C   UNL     1      -3.791  14.729  24.705  0.00  0.00    +0.000 A 
ATOM      8  C   UNL     1      -3.727  13.532  25.409  0.00  0.00    +0.000 A 
ATOM      9  C   UNL     1      -4.533  12.472  25.019  0.00  0.00    +0.000 A 
ATOM     10  C   UNL     1      -5.435  12.630  23.960  0.00  0.00    +0.000 A 
ATOM     11  C   UNL     1      -5.499  13.831  23.205  0.00  0.00    +0.000 A 
ATOM     12  C   UNL     1      -6.420  13.941  21.909  0.00  0.00    +0.000 C 
ATOM     13  C   UNL     1      -7.848  13.824  22.487  0.00  0.00    +0.000 C 
ATOM     14  C   UNL     1      -6.047  12.771  20.976  0.00  0.00    +0.000 C 
ATOM     15  C   UNL     1      -4.712  13.055  20.261  0.00  0.00    +0.000 C 
ATOM     16  N   UNL     1      -3.925  14.161  20.863  0.00  0.00    +0.000 N 
ATOM     17  C   UNL     1      -2.576  14.004  21.203  0.00  0.00    +0.000 C 
ATOM     18  O   UNL     1      -1.879  14.971  21.516  0.00  0.00    +0.000 OA
ENDROOT
BRANCH  17  19
ATOM     19  C   UNL     1      -1.976  12.567  21.144  0.00  0.00    +0.000 C 
ATOM     20  C   UNL     1      -2.084  11.760  22.447  0.00  0.00    +0.000 C 
ATOM     21  C   UNL     1      -0.928  10.780  22.501  0.00  0.00    +0.000 C 
ATOM     22  C   UNL     1       0.048  11.225  21.423  0.00  0.00    +0.000 C 
ATOM     23  C   UNL     1      -0.458  12.581  20.926  0.00  0.00    +0.000 C 
BRANCH  22  24
ATOM     24  N   UNL     1       0.147  10.241  20.356  0.00  0.00    +0.000 N 
ATOM     25  C   UNL     1       1.126   9.263  20.437  0.00  0.00    +0.000 C 
ATOM     26  O   UNL     1       1.863   9.128  21.401  0.00  0.00    +0.000 OA
ATOM     27  N   UNL     1       1.178   8.545  19.260  0.00  0.00    +0.000 N 
ATOM     28  H   UNL     1      -0.706   9.949  19.900  0.00  0.00    +0.000 HD
ATOM     29  H   UNL     1       0.856   9.074  18.463  0.00  0.00    +0.000 HD
BRANCH  27  30
ATOM     30  C   UNL     1       2.159   7.566  19.008  0.00  0.00    +0.000 A 
ATOM     31  C   UNL     1       3.082   7.679  17.964  0.00  0.00    +0.000 A 
ATOM     32  C   UNL     1       4.013   6.662  17.739  0.00  0.00    +0.000 A 
ATOM     33  C   UNL     1       4.010   5.523  18.543  0.00  0.00    +0.000 A 
ATOM     34  C   UNL     1       3.094   5.410  19.588  0.00  0.00    +0.000 A 
ATOM     35  C   UNL     1       2.188   6.441  19.835  0.00  0.00    +0.000 A 
ENDBRANCH  27  30
ENDBRANCH  22  24
ENDBRANCH  17  19
BRANCH   7  36
ATOM     36  O   UNL     1      -2.935  15.714  25.154  0.00  0.00    +0.000 OA
ATOM     37  H   UNL     1      -2.060  15.615  24.743  0.00  0.00    +0.000 HD
ENDBRANCH   7  36
TORSDOF 4
ENDMDL
MODEL 9
REMARK VINA RESULT:      -6.3      1.997      2.573
REMARK  Name = 
REMARK  7 active torsions:
REMARK  status: ('A' for Active; 'I' for Inactive)
REMARK    1  A    between atoms: C_1  and  C_2
REMARK    2  A    between atoms: C_2  and  C_3
REMARK    3  A    between atoms: C_7  and  O_8
REMARK    4  A    between atoms: C_13  and  C_14
REMARK    5  A    between atoms: C_18  and  C_20
REMARK    6  A    between atoms: C_23  and  N_24
REMARK    7  A    between atoms: N_27  and  C_28
REMARK                            x       y       z     vdW  Elec       q    Type
REMARK                         _______ _______ _______ _____ _____    ______ ____
ROOT
ATOM      1  C   UNL     1      -2.950  15.709  20.944  0.00  0.00    +0.000 C 
ATOM      2  C   UNL     1      -2.549  14.265  21.330  0.00  0.00    +0.000 C 
ATOM      3  C   UNL     1      -3.856  13.795  22.086  0.00  0.00    +0.000 C 
ATOM      4  C   UNL     1      -2.339  13.194  20.215  0.00  0.00    +0.000 C 
ATOM      5  C   UNL     1      -1.385  13.812  19.162  0.00  0.00    +0.000 C 
ATOM      6  C   UNL     1       0.013  13.820  19.710  0.00  0.00    +0.000 A 
ATOM      7  C   UNL     1       1.126  13.537  18.905  0.00  0.00    +0.000 A 
ATOM      8  C   UNL     1       2.365  13.243  19.461  0.00  0.00    +0.000 A 
ATOM      9  C   UNL     1       2.517  13.287  20.841  0.00  0.00    +0.000 A 
ATOM     10  C   UNL     1       1.443  13.673  21.652  0.00  0.00    +0.000 A 
ATOM     11  C   UNL     1       0.159  13.948  21.112  0.00  0.00    +0.000 A 
ATOM     12  C   UNL     1      -1.089  14.237  22.060  0.00  0.00    +0.000 C 
ATOM     13  C   UNL     1      -0.710  15.572  22.737  0.00  0.00    +0.000 C 
ATOM     14  C   UNL     1      -1.195  13.062  23.054  0.00  0.00    +0.000 C 
ATOM     15  C   UNL     1      -1.789  11.820  22.363  0.00  0.00    +0.000 C 
ATOM     16  N   UNL     1      -1.791  11.895  20.880  0.00  0.00    +0.000 N 
ATOM     17  C   UNL     1      -1.266  10.864  20.090  0.00  0.00    +0.000 C 
ATOM     18  O   UNL     1      -1.445  10.840  18.871  0.00  0.00    +0.000 OA
ENDROOT
BRANCH  17  19
ATOM     19  C   UNL     1      -0.472   9.733  20.810  0.00  0.00    +0.000 C 
ATOM     20  C   UNL     1       0.224  10.152  22.114  0.00  0.00    +0.000 C 
ATOM     21  C   UNL     1       1.449   9.279  22.305  0.00  0.00    +0.000 C 
ATOM     22  C   UNL     1       1.679   8.584  20.972  0.00  0.00    +0.000 C 
ATOM     23  C   UNL     1       0.721   9.244  19.978  0.00  0.00    +0.000 C 
BRANCH  22  24
ATOM     24  N   UNL     1       1.473   7.148  21.078  0.00  0.00    +0.000 N 
ATOM     25  C   UNL     1       2.232   6.303  20.284  0.00  0.00    +0.000 C 
ATOM     26  O   UNL     1       3.131   6.693  19.556  0.00  0.00    +0.000 OA
ATOM     27  N   UNL     1       1.770   5.007  20.392  0.00  0.00    +0.000 N 
ATOM     28  H   UNL     1       1.225   6.771  21.981  0.00  0.00    +0.000 HD
ATOM     29  H   UNL     1       0.792   4.958  20.639  0.00  0.00    +0.000 HD
BRANCH  27  30
ATOM     30  C   UNL     1       2.272   3.951  19.606  0.00  0.00    +0.000 A 
ATOM     31  C   UNL     1       3.251   3.069  20.070  0.00  0.00    +0.000 A 
ATOM     32  C   UNL     1       3.736   2.060  19.236  0.00  0.00    +0.000 A 
ATOM     33  C   UNL     1       3.258   1.942  17.931  0.00  0.00    +0.000 A 
ATOM     34  C   UNL     1       2.277   2.818  17.468  0.00  0.00    +0.000 A 
ATOM     35  C   UNL     1       1.767   3.803  18.312  0.00  0.00    +0.000 A 
ENDBRANCH  27  30
ENDBRANCH  22  24
ENDBRANCH  17  19
BRANCH   7  36
ATOM     36  O   UNL     1       1.070  13.443  17.529  0.00  0.00    +0.000 OA
ATOM     37  H   UNL     1       1.042  14.329  17.130  0.00  0.00    +0.000 HD
ENDBRANCH   7  36
TORSDOF 4
ENDMDL
