MODEL 1
REMARK VINA RESULT:      -8.1      0.000      0.000
REMARK  Name = 
REMARK  10 active torsions:
REMARK  status: ('A' for Active; 'I' for Inactive)
REMARK    1  A    between atoms: C_1  and  O_2
REMARK    2  A    between atoms: O_2  and  C_3
REMARK    3  A    between atoms: C_5  and  C_6
REMARK    4  A    between atoms: C_13  and  N_14
REMARK    5  A    between atoms: N_14  and  C_15
REMARK    6  A    between atoms: C_15  and  C_16
REMARK    7  A    between atoms: C_19  and  C_20
REMARK    8  A    between atoms: C_32  and  O_33
REMARK    9  A    between atoms: O_33  and  C_34
REMARK   10  A    between atoms: C_35  and  O_36
REMARK                            x       y       z     vdW  Elec       q    Type
REMARK                         _______ _______ _______ _____ _____    ______ ____
ROOT
ATOM      1  C   UNL     1       0.683   9.947  18.904  0.00  0.00    +0.000 C 
ATOM      2  C   UNL     1      -0.830  10.085  18.314  0.00  0.00    +0.000 A 
ATOM      3  C   UNL     1      -1.365   9.670  17.091  0.00  0.00    +0.000 A 
ATOM      4  C   UNL     1      -2.586  10.243  16.674  0.00  0.00    +0.000 A 
ATOM      5  C   UNL     1      -3.292  11.187  17.406  0.00  0.00    +0.000 A 
ATOM      6  C   UNL     1      -2.900  11.577  18.641  0.00  0.00    +0.000 A 
ATOM      7  C   UNL     1      -1.686  11.042  19.083  0.00  0.00    +0.000 A 
ATOM      8  C   UNL     1      -1.017  11.816  20.233  0.00  0.00    +0.000 C 
ATOM      9  C   UNL     1       0.148  12.329  19.351  0.00  0.00    +0.000 C 
ATOM     10  C   UNL     1       0.715  13.701  19.370  0.00  0.00    +0.000 C 
ATOM     11  O   UNL     1       1.918  13.515  18.598  0.00  0.00    +0.000 OA
ATOM     12  C   UNL     1       2.220  12.170  18.465  0.00  0.00    +0.000 C 
ATOM     13  O   UNL     1       3.187  11.778  17.838  0.00  0.00    +0.000 OA
ATOM     14  C   UNL     1       1.278  11.346  19.313  0.00  0.00    +0.000 C 
ATOM     15  O   UNL     1      -4.337  11.750  16.755  0.00  0.00    +0.000 OA
ATOM     16  C   UNL     1      -4.322  10.995  15.539  0.00  0.00    +0.000 C 
ATOM     17  O   UNL     1      -3.217  10.051  15.467  0.00  0.00    +0.000 OA
ENDROOT
BRANCH   1  20
ATOM     18  C   UNL     1       2.364   6.556  19.885  0.00  0.00    +0.000 A 
ATOM     19  C   UNL     1       1.646   7.778  20.005  0.00  0.00    +0.000 A 
ATOM     20  C   UNL     1       1.743   8.800  19.040  0.00  0.00    +0.000 A 
ATOM     21  C   UNL     1       2.602   8.495  17.932  0.00  0.00    +0.000 A 
ATOM     22  C   UNL     1       3.304   7.277  17.777  0.00  0.00    +0.000 A 
ATOM     23  C   UNL     1       3.189   6.314  18.775  0.00  0.00    +0.000 A 
BRANCH  18  25
ATOM     24  C   UNL     1       1.192   4.597  20.593  0.00  0.00    +0.000 C 
ATOM     25  O   UNL     1       2.096   5.656  20.894  0.00  0.00    +0.000 OA
ENDBRANCH  18  25
BRANCH  22  26
ATOM     26  O   UNL     1       4.035   7.189  16.617  0.00  0.00    +0.000 OA
ATOM     27  C   UNL     1       5.441   6.959  16.668  0.00  0.00    +0.000 C 
ENDBRANCH  22  26
BRANCH  23  28
ATOM     28  O   UNL     1       3.889   5.142  18.690  0.00  0.00    +0.000 OA
ATOM     29  H   UNL     1       3.749   4.833  17.778  0.00  0.00    +0.000 HD
ENDBRANCH  23  28
ENDBRANCH   1  20
BRANCH   8  30
ATOM     30  N   UNL     1      -0.913  10.778  21.249  0.00  0.00    +0.000 NA
ATOM     31  H   UNL     1      -1.663  10.097  21.137  0.00  0.00    +0.000 HD
BRANCH  30  32
ATOM     32  C   UNL     1      -0.706  11.075  22.644  0.00  0.00    +0.000 C 
BRANCH  32  33
ATOM     33  C   UNL     1      -1.621  12.109  23.130  0.00  0.00    +0.000 A 
ATOM     34  C   UNL     1      -1.504  13.472  23.309  0.00  0.00    +0.000 A 
ATOM     35  C   UNL     1      -2.751  13.902  23.822  0.00  0.00    +0.000 A 
ATOM     36  C   UNL     1      -3.533  12.771  23.938  0.00  0.00    +0.000 A 
ATOM     37  C   UNL     1      -4.907  12.506  24.395  0.00  0.00    +0.000 C 
ATOM     38  O   UNL     1      -2.840  11.675  23.528  0.00  0.00    +0.000 OA
ENDBRANCH  32  33
ENDBRANCH  30  32
ENDBRANCH   8  30
TORSDOF 7
ENDMDL
MODEL 2
REMARK VINA RESULT:      -8.1      1.794      4.952
REMARK  Name = 
REMARK  10 active torsions:
REMARK  status: ('A' for Active; 'I' for Inactive)
REMARK    1  A    between atoms: C_1  and  O_2
REMARK    2  A    between atoms: O_2  and  C_3
REMARK    3  A    between atoms: C_5  and  C_6
REMARK    4  A    between atoms: C_13  and  N_14
REMARK    5  A    between atoms: N_14  and  C_15
REMARK    6  A    between atoms: C_15  and  C_16
REMARK    7  A    between atoms: C_19  and  C_20
REMARK    8  A    between atoms: C_32  and  O_33
REMARK    9  A    between atoms: O_33  and  C_34
REMARK   10  A    between atoms: C_35  and  O_36
REMARK                            x       y       z     vdW  Elec       q    Type
REMARK                         _______ _______ _______ _____ _____    ______ ____
ROOT
ATOM      1  C   UNL     1       1.115   9.736  19.300  0.00  0.00    +0.000 C 
ATOM      2  C   UNL     1       1.243  11.260  18.737  0.00  0.00    +0.000 A 
ATOM      3  C   UNL     1       2.376  12.016  18.423  0.00  0.00    +0.000 A 
ATOM      4  C   UNL     1       2.231  13.417  18.323  0.00  0.00    +0.000 A 
ATOM      5  C   UNL     1       1.032  14.089  18.510  0.00  0.00    +0.000 A 
ATOM      6  C   UNL     1      -0.132  13.434  18.724  0.00  0.00    +0.000 A 
ATOM      7  C   UNL     1      -0.026  12.044  18.844  0.00  0.00    +0.000 A 
ATOM      8  C   UNL     1      -1.219  11.361  19.537  0.00  0.00    +0.000 C 
ATOM      9  C   UNL     1      -0.408  10.992  20.803  0.00  0.00    +0.000 C 
ATOM     10  C   UNL     1      -0.884  11.105  22.206  0.00  0.00    +0.000 C 
ATOM     11  O   UNL     1       0.136  10.365  22.905  0.00  0.00    +0.000 OA
ATOM     12  C   UNL     1       0.891   9.607  22.026  0.00  0.00    +0.000 C 
ATOM     13  O   UNL     1       1.821   8.913  22.396  0.00  0.00    +0.000 OA
ATOM     14  C   UNL     1       0.291   9.677  20.641  0.00  0.00    +0.000 C 
ATOM     15  O   UNL     1       1.136  15.438  18.558  0.00  0.00    +0.000 OA
ATOM     16  C   UNL     1       2.527  15.602  18.267  0.00  0.00    +0.000 C 
ATOM     17  O   UNL     1       3.234  14.337  18.131  0.00  0.00    +0.000 OA
ENDROOT
BRANCH   1  20
ATOM     18  C   UNL     1       3.501   6.999  17.848  0.00  0.00    +0.000 A 
ATOM     19  C   UNL     1       2.693   8.167  17.923  0.00  0.00    +0.000 A 
ATOM     20  C   UNL     1       1.716   8.337  18.923  0.00  0.00    +0.000 A 
ATOM     21  C   UNL     1       1.622   7.252  19.857  0.00  0.00    +0.000 A 
ATOM     22  C   UNL     1       2.434   6.094  19.821  0.00  0.00    +0.000 A 
ATOM     23  C   UNL     1       3.366   5.971  18.794  0.00  0.00    +0.000 A 
BRANCH  18  25
ATOM     24  C   UNL     1       5.808   7.101  17.232  0.00  0.00    +0.000 C 
ATOM     25  O   UNL     1       4.441   7.041  16.840  0.00  0.00    +0.000 OA
ENDBRANCH  18  25
BRANCH  22  26
ATOM     26  O   UNL     1       2.197   5.205  20.840  0.00  0.00    +0.000 OA
ATOM     27  C   UNL     1       1.264   4.141  20.666  0.00  0.00    +0.000 C 
ENDBRANCH  22  26
BRANCH  23  28
ATOM     28  O   UNL     1       4.136   4.846  18.692  0.00  0.00    +0.000 OA
ATOM     29  H   UNL     1       4.687   4.846  19.494  0.00  0.00    +0.000 HD
ENDBRANCH  23  28
ENDBRANCH   1  20
BRANCH   8  30
ATOM     30  N   UNL     1      -1.647  10.426  18.506  0.00  0.00    +0.000 NA
ATOM     31  H   UNL     1      -0.872   9.823  18.232  0.00  0.00    +0.000 HD
BRANCH  30  32
ATOM     32  C   UNL     1      -2.400  10.838  17.349  0.00  0.00    +0.000 C 
BRANCH  32  33
ATOM     33  C   UNL     1      -3.828  10.976  17.640  0.00  0.00    +0.000 A 
ATOM     34  C   UNL     1      -4.727  10.219  18.363  0.00  0.00    +0.000 A 
ATOM     35  C   UNL     1      -5.969  10.888  18.256  0.00  0.00    +0.000 A 
ATOM     36  C   UNL     1      -5.746  11.995  17.462  0.00  0.00    +0.000 A 
ATOM     37  C   UNL     1      -6.587  13.094  16.960  0.00  0.00    +0.000 C 
ATOM     38  O   UNL     1      -4.444  12.042  17.075  0.00  0.00    +0.000 OA
ENDBRANCH  32  33
ENDBRANCH  30  32
ENDBRANCH   8  30
TORSDOF 7
ENDMDL
MODEL 3
REMARK VINA RESULT:      -7.9      0.648      1.046
REMARK  Name = 
REMARK  10 active torsions:
REMARK  status: ('A' for Active; 'I' for Inactive)
REMARK    1  A    between atoms: C_1  and  O_2
REMARK    2  A    between atoms: O_2  and  C_3
REMARK    3  A    between atoms: C_5  and  C_6
REMARK    4  A    between atoms: C_13  and  N_14
REMARK    5  A    between atoms: N_14  and  C_15
REMARK    6  A    between atoms: C_15  and  C_16
REMARK    7  A    between atoms: C_19  and  C_20
REMARK    8  A    between atoms: C_32  and  O_33
REMARK    9  A    between atoms: O_33  and  C_34
REMARK   10  A    between atoms: C_35  and  O_36
REMARK                            x       y       z     vdW  Elec       q    Type
REMARK                         _______ _______ _______ _____ _____    ______ ____
ROOT
ATOM      1  C   UNL     1       0.676   9.953  18.900  0.00  0.00    +0.000 C 
ATOM      2  C   UNL     1      -0.839  10.098  18.318  0.00  0.00    +0.000 A 
ATOM      3  C   UNL     1      -1.385   9.675  17.102  0.00  0.00    +0.000 A 
ATOM      4  C   UNL     1      -2.603  10.255  16.686  0.00  0.00    +0.000 A 
ATOM      5  C   UNL     1      -3.297  11.211  17.413  0.00  0.00    +0.000 A 
ATOM      6  C   UNL     1      -2.895  11.610  18.641  0.00  0.00    +0.000 A 
ATOM      7  C   UNL     1      -1.683  11.069  19.082  0.00  0.00    +0.000 A 
ATOM      8  C   UNL     1      -1.001  11.850  20.221  0.00  0.00    +0.000 C 
ATOM      9  C   UNL     1       0.163  12.344  19.327  0.00  0.00    +0.000 C 
ATOM     10  C   UNL     1       0.741  13.712  19.328  0.00  0.00    +0.000 C 
ATOM     11  O   UNL     1       1.938  13.508  18.552  0.00  0.00    +0.000 OA
ATOM     12  C   UNL     1       2.229  12.159  18.431  0.00  0.00    +0.000 C 
ATOM     13  O   UNL     1       3.189  11.752  17.802  0.00  0.00    +0.000 OA
ATOM     14  C   UNL     1       1.285  11.352  19.292  0.00  0.00    +0.000 C 
ATOM     15  O   UNL     1      -4.341  11.776  16.762  0.00  0.00    +0.000 OA
ATOM     16  C   UNL     1      -4.340  11.009  15.554  0.00  0.00    +0.000 C 
ATOM     17  O   UNL     1      -3.242  10.056  15.486  0.00  0.00    +0.000 OA
ENDROOT
BRANCH   1  20
ATOM     18  C   UNL     1       2.327   6.549  19.888  0.00  0.00    +0.000 A 
ATOM     19  C   UNL     1       1.616   7.776  20.005  0.00  0.00    +0.000 A 
ATOM     20  C   UNL     1       1.727   8.799  19.043  0.00  0.00    +0.000 A 
ATOM     21  C   UNL     1       2.592   8.490  17.941  0.00  0.00    +0.000 A 
ATOM     22  C   UNL     1       3.287   7.268  17.788  0.00  0.00    +0.000 A 
ATOM     23  C   UNL     1       3.158   6.304  18.783  0.00  0.00    +0.000 A 
BRANCH  18  25
ATOM     24  C   UNL     1       1.195   4.556  20.562  0.00  0.00    +0.000 C 
ATOM     25  O   UNL     1       2.045   5.649  20.893  0.00  0.00    +0.000 OA
ENDBRANCH  18  25
BRANCH  22  26
ATOM     26  O   UNL     1       4.026   7.177  16.633  0.00  0.00    +0.000 OA
ATOM     27  C   UNL     1       5.435   6.966  16.694  0.00  0.00    +0.000 C 
ENDBRANCH  22  26
BRANCH  23  28
ATOM     28  O   UNL     1       3.851   5.128  18.701  0.00  0.00    +0.000 OA
ATOM     29  H   UNL     1       3.214   4.486  18.341  0.00  0.00    +0.000 HD
ENDBRANCH  23  28
ENDBRANCH   1  20
BRANCH   8  30
ATOM     30  N   UNL     1      -0.900  10.821  21.246  0.00  0.00    +0.000 NA
ATOM     31  H   UNL     1      -1.679  10.168  21.170  0.00  0.00    +0.000 HD
BRANCH  30  32
ATOM     32  C   UNL     1      -0.631  11.127  22.629  0.00  0.00    +0.000 C 
BRANCH  32  33
ATOM     33  C   UNL     1      -1.442  12.244  23.115  0.00  0.00    +0.000 A 
ATOM     34  C   UNL     1      -2.801  12.434  23.270  0.00  0.00    +0.000 A 
ATOM     35  C   UNL     1      -2.950  13.744  23.784  0.00  0.00    +0.000 A 
ATOM     36  C   UNL     1      -1.677  14.268  23.888  0.00  0.00    +0.000 A 
ATOM     37  C   UNL     1      -1.122  15.554  24.339  0.00  0.00    +0.000 C 
ATOM     38  O   UNL     1      -0.758  13.358  23.468  0.00  0.00    +0.000 OA
ENDBRANCH  32  33
ENDBRANCH  30  32
ENDBRANCH   8  30
TORSDOF 7
ENDMDL
MODEL 4
REMARK VINA RESULT:      -7.9      1.750      4.387
REMARK  Name = 
REMARK  10 active torsions:
REMARK  status: ('A' for Active; 'I' for Inactive)
REMARK    1  A    between atoms: C_1  and  O_2
REMARK    2  A    between atoms: O_2  and  C_3
REMARK    3  A    between atoms: C_5  and  C_6
REMARK    4  A    between atoms: C_13  and  N_14
REMARK    5  A    between atoms: N_14  and  C_15
REMARK    6  A    between atoms: C_15  and  C_16
REMARK    7  A    between atoms: C_19  and  C_20
REMARK    8  A    between atoms: C_32  and  O_33
REMARK    9  A    between atoms: O_33  and  C_34
REMARK   10  A    between atoms: C_35  and  O_36
REMARK                            x       y       z     vdW  Elec       q    Type
REMARK                         _______ _______ _______ _____ _____    ______ ____
ROOT
ATOM      1  C   UNL     1       1.084   9.706  19.795  0.00  0.00    +0.000 C 
ATOM      2  C   UNL     1       1.094  11.176  19.091  0.00  0.00    +0.000 A 
ATOM      3  C   UNL     1       2.161  12.026  18.788  0.00  0.00    +0.000 A 
ATOM      4  C   UNL     1       1.874  13.385  18.536  0.00  0.00    +0.000 A 
ATOM      5  C   UNL     1       0.598  13.927  18.562  0.00  0.00    +0.000 A 
ATOM      6  C   UNL     1      -0.503  13.164  18.752  0.00  0.00    +0.000 A 
ATOM      7  C   UNL     1      -0.258  11.813  19.020  0.00  0.00    +0.000 A 
ATOM      8  C   UNL     1      -1.425  11.063  19.687  0.00  0.00    +0.000 C 
ATOM      9  C   UNL     1      -0.692  10.910  21.042  0.00  0.00    +0.000 C 
ATOM     10  C   UNL     1      -1.298  11.096  22.385  0.00  0.00    +0.000 C 
ATOM     11  O   UNL     1      -0.269  10.548  23.232  0.00  0.00    +0.000 OA
ATOM     12  C   UNL     1       0.638   9.805  22.495  0.00  0.00    +0.000 C 
ATOM     13  O   UNL     1       1.602   9.261  23.003  0.00  0.00    +0.000 OA
ATOM     14  C   UNL     1       0.157   9.677  21.068  0.00  0.00    +0.000 C 
ATOM     15  O   UNL     1       0.550  15.278  18.479  0.00  0.00    +0.000 OA
ATOM     16  C   UNL     1       1.935  15.575  18.280  0.00  0.00    +0.000 C 
ATOM     17  O   UNL     1       2.784  14.394  18.328  0.00  0.00    +0.000 OA
ENDROOT
BRANCH   1  20
ATOM     18  C   UNL     1       1.931   5.889  19.786  0.00  0.00    +0.000 A 
ATOM     19  C   UNL     1       1.481   7.159  20.242  0.00  0.00    +0.000 A 
ATOM     20  C   UNL     1       1.863   8.358  19.609  0.00  0.00    +0.000 A 
ATOM     21  C   UNL     1       2.716   8.186  18.469  0.00  0.00    +0.000 A 
ATOM     22  C   UNL     1       3.153   6.933  17.979  0.00  0.00    +0.000 A 
ATOM     23  C   UNL     1       2.764   5.783  18.661  0.00  0.00    +0.000 A 
BRANCH  18  25
ATOM     24  C   UNL     1       2.276   4.160  21.400  0.00  0.00    +0.000 C 
ATOM     25  O   UNL     1       1.405   4.830  20.494  0.00  0.00    +0.000 OA
ENDBRANCH  18  25
BRANCH  22  26
ATOM     26  O   UNL     1       3.930   7.006  16.849  0.00  0.00    +0.000 OA
ATOM     27  C   UNL     1       5.335   6.773  16.925  0.00  0.00    +0.000 C 
ENDBRANCH  22  26
BRANCH  23  28
ATOM     28  O   UNL     1       3.203   4.555  18.252  0.00  0.00    +0.000 OA
ATOM     29  H   UNL     1       2.482   4.201  17.703  0.00  0.00    +0.000 HD
ENDBRANCH  23  28
ENDBRANCH   1  20
BRANCH   8  30
ATOM     30  N   UNL     1      -1.658   9.993  18.727  0.00  0.00    +0.000 NA
ATOM     31  H   UNL     1      -0.836   9.392  18.661  0.00  0.00    +0.000 HD
BRANCH  30  32
ATOM     32  C   UNL     1      -2.216  10.230  17.420  0.00  0.00    +0.000 C 
BRANCH  32  33
ATOM     33  C   UNL     1      -3.585  10.744  17.490  0.00  0.00    +0.000 A 
ATOM     34  C   UNL     1      -4.226  11.819  16.908  0.00  0.00    +0.000 A 
ATOM     35  C   UNL     1      -5.558  11.776  17.384  0.00  0.00    +0.000 A 
ATOM     36  C   UNL     1      -5.632  10.692  18.235  0.00  0.00    +0.000 A 
ATOM     37  C   UNL     1      -6.698  10.089  19.051  0.00  0.00    +0.000 C 
ATOM     38  O   UNL     1      -4.426  10.070  18.310  0.00  0.00    +0.000 OA
ENDBRANCH  32  33
ENDBRANCH  30  32
ENDBRANCH   8  30
TORSDOF 7
ENDMDL
MODEL 5
REMARK VINA RESULT:      -7.9      2.474      7.621
REMARK  Name = 
REMARK  10 active torsions:
REMARK  status: ('A' for Active; 'I' for Inactive)
REMARK    1  A    between atoms: C_1  and  O_2
REMARK    2  A    between atoms: O_2  and  C_3
REMARK    3  A    between atoms: C_5  and  C_6
REMARK    4  A    between atoms: C_13  and  N_14
REMARK    5  A    between atoms: N_14  and  C_15
REMARK    6  A    between atoms: C_15  and  C_16
REMARK    7  A    between atoms: C_19  and  C_20
REMARK    8  A    between atoms: C_32  and  O_33
REMARK    9  A    between atoms: O_33  and  C_34
REMARK   10  A    between atoms: C_35  and  O_36
REMARK                            x       y       z     vdW  Elec       q    Type
REMARK                         _______ _______ _______ _____ _____    ______ ____
ROOT
ATOM      1  C   UNL     1      -1.899  12.645  20.732  0.00  0.00    +0.000 C 
ATOM      2  C   UNL     1      -1.144  11.248  20.367  0.00  0.00    +0.000 A 
ATOM      3  C   UNL     1      -0.673  10.229  21.201  0.00  0.00    +0.000 A 
ATOM      4  C   UNL     1       0.272   9.324  20.671  0.00  0.00    +0.000 A 
ATOM      5  C   UNL     1       0.756   9.377  19.372  0.00  0.00    +0.000 A 
ATOM      6  C   UNL     1       0.287  10.268  18.468  0.00  0.00    +0.000 A 
ATOM      7  C   UNL     1      -0.640  11.193  18.959  0.00  0.00    +0.000 A 
ATOM      8  C   UNL     1      -0.811  12.459  18.100  0.00  0.00    +0.000 C 
ATOM      9  C   UNL     1      -0.141  13.386  19.145  0.00  0.00    +0.000 C 
ATOM     10  C   UNL     1       0.828  14.472  18.850  0.00  0.00    +0.000 C 
ATOM     11  O   UNL     1       0.868  15.158  20.117  0.00  0.00    +0.000 OA
ATOM     12  C   UNL     1      -0.192  14.778  20.923  0.00  0.00    +0.000 C 
ATOM     13  O   UNL     1      -0.349  15.220  22.046  0.00  0.00    +0.000 OA
ATOM     14  C   UNL     1      -1.136  13.891  20.144  0.00  0.00    +0.000 C 
ATOM     15  O   UNL     1       1.789   8.541  19.113  0.00  0.00    +0.000 OA
ATOM     16  C   UNL     1       1.871   7.838  20.356  0.00  0.00    +0.000 C 
ATOM     17  O   UNL     1       0.931   8.329  21.353  0.00  0.00    +0.000 OA
ENDROOT
BRANCH   1  20
ATOM     18  C   UNL     1      -5.448  12.727  22.371  0.00  0.00    +0.000 A 
ATOM     19  C   UNL     1      -4.436  12.671  21.374  0.00  0.00    +0.000 A 
ATOM     20  C   UNL     1      -3.110  13.074  21.631  0.00  0.00    +0.000 A 
ATOM     21  C   UNL     1      -2.872  13.521  22.973  0.00  0.00    +0.000 A 
ATOM     22  C   UNL     1      -3.855  13.559  23.990  0.00  0.00    +0.000 A 
ATOM     23  C   UNL     1      -5.153  13.172  23.670  0.00  0.00    +0.000 A 
BRANCH  18  25
ATOM     24  C   UNL     1      -7.498  13.119  21.207  0.00  0.00    +0.000 C 
ATOM     25  O   UNL     1      -6.666  12.236  21.951  0.00  0.00    +0.000 OA
ENDBRANCH  18  25
BRANCH  22  26
ATOM     26  O   UNL     1      -3.391  13.984  25.211  0.00  0.00    +0.000 OA
ATOM     27  C   UNL     1      -2.543  15.126  25.301  0.00  0.00    +0.000 C 
ENDBRANCH  22  26
BRANCH  23  28
ATOM     28  O   UNL     1      -6.146  13.240  24.608  0.00  0.00    +0.000 OA
ATOM     29  H   UNL     1      -6.517  12.341  24.646  0.00  0.00    +0.000 HD
ENDBRANCH  23  28
ENDBRANCH   1  20
BRANCH   8  30
ATOM     30  N   UNL     1      -2.235  12.409  17.805  0.00  0.00    +0.000 NA
ATOM     31  H   UNL     1      -2.761  12.925  18.510  0.00  0.00    +0.000 HD
BRANCH  30  32
ATOM     32  C   UNL     1      -2.916  11.186  17.463  0.00  0.00    +0.000 C 
BRANCH  32  33
ATOM     33  C   UNL     1      -4.360  11.278  17.681  0.00  0.00    +0.000 A 
ATOM     34  C   UNL     1      -5.331  12.158  17.246  0.00  0.00    +0.000 A 
ATOM     35  C   UNL     1      -6.545  11.704  17.815  0.00  0.00    +0.000 A 
ATOM     36  C   UNL     1      -6.227  10.593  18.571  0.00  0.00    +0.000 A 
ATOM     37  C   UNL     1      -6.996   9.658  19.408  0.00  0.00    +0.000 C 
ATOM     38  O   UNL     1      -4.893  10.341  18.499  0.00  0.00    +0.000 OA
ENDBRANCH  32  33
ENDBRANCH  30  32
ENDBRANCH   8  30
TORSDOF 7
ENDMDL
MODEL 6
REMARK VINA RESULT:      -7.8      1.832      5.474
REMARK  Name = 
REMARK  10 active torsions:
REMARK  status: ('A' for Active; 'I' for Inactive)
REMARK    1  A    between atoms: C_1  and  O_2
REMARK    2  A    between atoms: O_2  and  C_3
REMARK    3  A    between atoms: C_5  and  C_6
REMARK    4  A    between atoms: C_13  and  N_14
REMARK    5  A    between atoms: N_14  and  C_15
REMARK    6  A    between atoms: C_15  and  C_16
REMARK    7  A    between atoms: C_19  and  C_20
REMARK    8  A    between atoms: C_32  and  O_33
REMARK    9  A    between atoms: O_33  and  C_34
REMARK   10  A    between atoms: C_35  and  O_36
REMARK                            x       y       z     vdW  Elec       q    Type
REMARK                         _______ _______ _______ _____ _____    ______ ____
ROOT
ATOM      1  C   UNL     1       1.270   9.648  19.278  0.00  0.00    +0.000 C 
ATOM      2  C   UNL     1       1.405  11.170  18.711  0.00  0.00    +0.000 A 
ATOM      3  C   UNL     1       2.541  11.922  18.399  0.00  0.00    +0.000 A 
ATOM      4  C   UNL     1       2.401  13.322  18.294  0.00  0.00    +0.000 A 
ATOM      5  C   UNL     1       1.203  13.999  18.474  0.00  0.00    +0.000 A 
ATOM      6  C   UNL     1       0.036  13.348  18.685  0.00  0.00    +0.000 A 
ATOM      7  C   UNL     1       0.137  11.959  18.810  0.00  0.00    +0.000 A 
ATOM      8  C   UNL     1      -1.061  11.281  19.500  0.00  0.00    +0.000 C 
ATOM      9  C   UNL     1      -0.256  10.914  20.771  0.00  0.00    +0.000 C 
ATOM     10  C   UNL     1      -0.737  11.033  22.171  0.00  0.00    +0.000 C 
ATOM     11  O   UNL     1       0.277  10.292  22.877  0.00  0.00    +0.000 OA
ATOM     12  C   UNL     1       1.034   9.529  22.004  0.00  0.00    +0.000 C 
ATOM     13  O   UNL     1       1.960   8.833  22.380  0.00  0.00    +0.000 OA
ATOM     14  C   UNL     1       0.440   9.597  20.616  0.00  0.00    +0.000 C 
ATOM     15  O   UNL     1       1.311  15.348  18.517  0.00  0.00    +0.000 OA
ATOM     16  C   UNL     1       2.704  15.507  18.232  0.00  0.00    +0.000 C 
ATOM     17  O   UNL     1       3.407  14.239  18.103  0.00  0.00    +0.000 OA
ENDROOT
BRANCH   1  20
ATOM     18  C   UNL     1       3.650   6.900  17.839  0.00  0.00    +0.000 A 
ATOM     19  C   UNL     1       2.844   8.070  17.908  0.00  0.00    +0.000 A 
ATOM     20  C   UNL     1       1.867   8.247  18.908  0.00  0.00    +0.000 A 
ATOM     21  C   UNL     1       1.774   7.167  19.849  0.00  0.00    +0.000 A 
ATOM     22  C   UNL     1       2.583   6.007  19.818  0.00  0.00    +0.000 A 
ATOM     23  C   UNL     1       3.514   5.877  18.791  0.00  0.00    +0.000 A 
BRANCH  18  25
ATOM     24  C   UNL     1       5.955   7.011  17.221  0.00  0.00    +0.000 C 
ATOM     25  O   UNL     1       4.588   6.934  16.830  0.00  0.00    +0.000 OA
ENDBRANCH  18  25
BRANCH  22  26
ATOM     26  O   UNL     1       2.346   5.124  20.843  0.00  0.00    +0.000 OA
ATOM     27  C   UNL     1       1.424   4.051  20.670  0.00  0.00    +0.000 C 
ENDBRANCH  22  26
BRANCH  23  28
ATOM     28  O   UNL     1       4.282   4.750  18.694  0.00  0.00    +0.000 OA
ATOM     29  H   UNL     1       5.162   5.069  18.429  0.00  0.00    +0.000 HD
ENDBRANCH  23  28
ENDBRANCH   1  20
BRANCH   8  30
ATOM     30  N   UNL     1      -1.487  10.344  18.471  0.00  0.00    +0.000 NA
ATOM     31  H   UNL     1      -1.043  10.570  17.581  0.00  0.00    +0.000 HD
BRANCH  30  32
ATOM     32  C   UNL     1      -2.869   9.988  18.269  0.00  0.00    +0.000 C 
BRANCH  32  33
ATOM     33  C   UNL     1      -3.344  10.353  16.934  0.00  0.00    +0.000 A 
ATOM     34  C   UNL     1      -4.328  11.206  16.477  0.00  0.00    +0.000 A 
ATOM     35  C   UNL     1      -4.297  11.109  15.065  0.00  0.00    +0.000 A 
ATOM     36  C   UNL     1      -3.311  10.192  14.761  0.00  0.00    +0.000 A 
ATOM     37  C   UNL     1      -2.767   9.634  13.512  0.00  0.00    +0.000 C 
ATOM     38  O   UNL     1      -2.738   9.721  15.901  0.00  0.00    +0.000 OA
ENDBRANCH  32  33
ENDBRANCH  30  32
ENDBRANCH   8  30
TORSDOF 7
ENDMDL
MODEL 7
REMARK VINA RESULT:      -7.8      1.664      4.993
REMARK  Name = 
REMARK  10 active torsions:
REMARK  status: ('A' for Active; 'I' for Inactive)
REMARK    1  A    between atoms: C_1  and  O_2
REMARK    2  A    between atoms: O_2  and  C_3
REMARK    3  A    between atoms: C_5  and  C_6
REMARK    4  A    between atoms: C_13  and  N_14
REMARK    5  A    between atoms: N_14  and  C_15
REMARK    6  A    between atoms: C_15  and  C_16
REMARK    7  A    between atoms: C_19  and  C_20
REMARK    8  A    between atoms: C_32  and  O_33
REMARK    9  A    between atoms: O_33  and  C_34
REMARK   10  A    between atoms: C_35  and  O_36
REMARK                            x       y       z     vdW  Elec       q    Type
REMARK                         _______ _______ _______ _____ _____    ______ ____
ROOT
ATOM      1  C   UNL     1       1.180   9.714  19.864  0.00  0.00    +0.000 C 
ATOM      2  C   UNL     1       1.138  11.186  19.167  0.00  0.00    +0.000 A 
ATOM      3  C   UNL     1       2.176  12.072  18.861  0.00  0.00    +0.000 A 
ATOM      4  C   UNL     1       1.844  13.422  18.617  0.00  0.00    +0.000 A 
ATOM      5  C   UNL     1       0.550  13.923  18.653  0.00  0.00    +0.000 A 
ATOM      6  C   UNL     1      -0.524  13.123  18.847  0.00  0.00    +0.000 A 
ATOM      7  C   UNL     1      -0.234  11.780  19.108  0.00  0.00    +0.000 A 
ATOM      8  C   UNL     1      -1.372  10.990  19.779  0.00  0.00    +0.000 C 
ATOM      9  C   UNL     1      -0.626  10.855  21.128  0.00  0.00    +0.000 C 
ATOM     10  C   UNL     1      -1.228  11.016  22.476  0.00  0.00    +0.000 C 
ATOM     11  O   UNL     1      -0.176  10.497  23.314  0.00  0.00    +0.000 OA
ATOM     12  C   UNL     1       0.749   9.787  22.568  0.00  0.00    +0.000 C 
ATOM     13  O   UNL     1       1.733   9.272  23.067  0.00  0.00    +0.000 OA
ATOM     14  C   UNL     1       0.263   9.649  21.143  0.00  0.00    +0.000 C 
ATOM     15  O   UNL     1       0.459  15.271  18.577  0.00  0.00    +0.000 OA
ATOM     16  C   UNL     1       1.833  15.614  18.370  0.00  0.00    +0.000 C 
ATOM     17  O   UNL     1       2.719  14.460  18.407  0.00  0.00    +0.000 OA
ENDROOT
BRANCH   1  20
ATOM     18  C   UNL     1       2.209   5.943  19.970  0.00  0.00    +0.000 A 
ATOM     19  C   UNL     1       1.749   7.217  20.403  0.00  0.00    +0.000 A 
ATOM     20  C   UNL     1       2.000   8.392  19.667  0.00  0.00    +0.000 A 
ATOM     21  C   UNL     1       2.734   8.190  18.451  0.00  0.00    +0.000 A 
ATOM     22  C   UNL     1       3.177   6.930  17.985  0.00  0.00    +0.000 A 
ATOM     23  C   UNL     1       2.921   5.807  18.767  0.00  0.00    +0.000 A 
BRANCH  18  25
ATOM     24  C   UNL     1       0.804   4.037  20.289  0.00  0.00    +0.000 C 
ATOM     25  O   UNL     1       1.816   4.906  20.788  0.00  0.00    +0.000 OA
ENDBRANCH  18  25
BRANCH  22  26
ATOM     26  O   UNL     1       3.824   6.970  16.774  0.00  0.00    +0.000 OA
ATOM     27  C   UNL     1       5.232   6.756  16.702  0.00  0.00    +0.000 C 
ENDBRANCH  22  26
BRANCH  23  28
ATOM     28  O   UNL     1       3.375   4.577  18.379  0.00  0.00    +0.000 OA
ATOM     29  H   UNL     1       3.644   4.138  19.205  0.00  0.00    +0.000 HD
ENDBRANCH  23  28
ENDBRANCH   1  20
BRANCH   8  30
ATOM     30  N   UNL     1      -1.577   9.917  18.816  0.00  0.00    +0.000 NA
ATOM     31  H   UNL     1      -1.202   9.041  19.178  0.00  0.00    +0.000 HD
BRANCH  30  32
ATOM     32  C   UNL     1      -1.264  10.060  17.416  0.00  0.00    +0.000 C 
BRANCH  32  33
ATOM     33  C   UNL     1      -2.440  10.418  16.622  0.00  0.00    +0.000 A 
ATOM     34  C   UNL     1      -3.569  11.168  16.882  0.00  0.00    +0.000 A 
ATOM     35  C   UNL     1      -4.339  11.130  15.696  0.00  0.00    +0.000 A 
ATOM     36  C   UNL     1      -3.637  10.346  14.802  0.00  0.00    +0.000 A 
ATOM     37  C   UNL     1      -3.861   9.904  13.417  0.00  0.00    +0.000 C 
ATOM     38  O   UNL     1      -2.485   9.902  15.371  0.00  0.00    +0.000 OA
ENDBRANCH  32  33
ENDBRANCH  30  32
ENDBRANCH   8  30
TORSDOF 7
ENDMDL
MODEL 8
REMARK VINA RESULT:      -7.7      2.162      7.385
REMARK  Name = 
REMARK  10 active torsions:
REMARK  status: ('A' for Active; 'I' for Inactive)
REMARK    1  A    between atoms: C_1  and  O_2
REMARK    2  A    between atoms: O_2  and  C_3
REMARK    3  A    between atoms: C_5  and  C_6
REMARK    4  A    between atoms: C_13  and  N_14
REMARK    5  A    between atoms: N_14  and  C_15
REMARK    6  A    between atoms: C_15  and  C_16
REMARK    7  A    between atoms: C_19  and  C_20
REMARK    8  A    between atoms: C_32  and  O_33
REMARK    9  A    between atoms: O_33  and  C_34
REMARK   10  A    between atoms: C_35  and  O_36
REMARK                            x       y       z     vdW  Elec       q    Type
REMARK                         _______ _______ _______ _____ _____    ______ ____
ROOT
ATOM      1  C   UNL     1      -0.243  12.539  21.421  0.00  0.00    +0.000 C 
ATOM      2  C   UNL     1       0.095  11.089  20.759  0.00  0.00    +0.000 A 
ATOM      3  C   UNL     1       0.579   9.916  21.347  0.00  0.00    +0.000 A 
ATOM      4  C   UNL     1       1.143   8.936  20.503  0.00  0.00    +0.000 A 
ATOM      5  C   UNL     1       1.238   9.059  19.124  0.00  0.00    +0.000 A 
ATOM      6  C   UNL     1       0.712  10.114  18.460  0.00  0.00    +0.000 A 
ATOM      7  C   UNL     1       0.158  11.115  19.264  0.00  0.00    +0.000 A 
ATOM      8  C   UNL     1      -0.004  12.483  18.577  0.00  0.00    +0.000 C 
ATOM      9  C   UNL     1       1.100  13.159  19.428  0.00  0.00    +0.000 C 
ATOM     10  C   UNL     1       2.134  14.098  18.924  0.00  0.00    +0.000 C 
ATOM     11  O   UNL     1       2.664  14.616  20.161  0.00  0.00    +0.000 OA
ATOM     12  C   UNL     1       1.824  14.325  21.223  0.00  0.00    +0.000 C 
ATOM     13  O   UNL     1       2.080  14.653  22.367  0.00  0.00    +0.000 OA
ATOM     14  C   UNL     1       0.546  13.702  20.710  0.00  0.00    +0.000 C 
ATOM     15  O   UNL     1       1.975   8.100  18.515  0.00  0.00    +0.000 OA
ATOM     16  C   UNL     1       2.270   7.253  19.629  0.00  0.00    +0.000 C 
ATOM     17  O   UNL     1       1.765   7.773  20.891  0.00  0.00    +0.000 OA
ENDROOT
BRANCH   1  20
ATOM     18  C   UNL     1      -1.834  14.937  24.068  0.00  0.00    +0.000 A 
ATOM     19  C   UNL     1      -0.866  14.340  23.214  0.00  0.00    +0.000 A 
ATOM     20  C   UNL     1      -1.043  13.054  22.667  0.00  0.00    +0.000 A 
ATOM     21  C   UNL     1      -2.277  12.417  23.028  0.00  0.00    +0.000 A 
ATOM     22  C   UNL     1      -3.267  13.001  23.852  0.00  0.00    +0.000 A 
ATOM     23  C   UNL     1      -3.026  14.264  24.384  0.00  0.00    +0.000 A 
BRANCH  18  25
ATOM     24  C   UNL     1      -1.868  17.272  23.564  0.00  0.00    +0.000 C 
ATOM     25  O   UNL     1      -1.513  16.220  24.455  0.00  0.00    +0.000 OA
ENDBRANCH  18  25
BRANCH  22  26
ATOM     26  O   UNL     1      -4.386  12.225  24.029  0.00  0.00    +0.000 OA
ATOM     27  C   UNL     1      -5.676  12.733  23.696  0.00  0.00    +0.000 C 
ENDBRANCH  22  26
BRANCH  23  28
ATOM     28  O   UNL     1      -3.933  14.845  25.225  0.00  0.00    +0.000 OA
ATOM     29  H   UNL     1      -4.207  15.662  24.773  0.00  0.00    +0.000 HD
ENDBRANCH  23  28
ENDBRANCH   1  20
BRANCH   8  30
ATOM     30  N   UNL     1      -1.435  12.704  18.721  0.00  0.00    +0.000 NA
ATOM     31  H   UNL     1      -1.669  12.888  19.697  0.00  0.00    +0.000 HD
BRANCH  30  32
ATOM     32  C   UNL     1      -2.419  11.838  18.122  0.00  0.00    +0.000 C 
BRANCH  32  33
ATOM     33  C   UNL     1      -3.709  11.908  18.811  0.00  0.00    +0.000 A 
ATOM     34  C   UNL     1      -4.168  12.627  19.895  0.00  0.00    +0.000 A 
ATOM     35  C   UNL     1      -5.518  12.239  20.071  0.00  0.00    +0.000 A 
ATOM     36  C   UNL     1      -5.781  11.298  19.096  0.00  0.00    +0.000 A 
ATOM     37  C   UNL     1      -6.961  10.503  18.718  0.00  0.00    +0.000 C 
ATOM     38  O   UNL     1      -4.674  11.086  18.335  0.00  0.00    +0.000 OA
ENDBRANCH  32  33
ENDBRANCH  30  32
ENDBRANCH   8  30
TORSDOF 7
ENDMDL
MODEL 9
REMARK VINA RESULT:      -7.7      2.861      7.318
REMARK  Name = 
REMARK  10 active torsions:
REMARK  status: ('A' for Active; 'I' for Inactive)
REMARK    1  A    between atoms: C_1  and  O_2
REMARK    2  A    between atoms: O_2  and  C_3
REMARK    3  A    between atoms: C_5  and  C_6
REMARK    4  A    between atoms: C_13  and  N_14
REMARK    5  A    between atoms: N_14  and  C_15
REMARK    6  A    between atoms: C_15  and  C_16
REMARK    7  A    between atoms: C_19  and  C_20
REMARK    8  A    between atoms: C_32  and  O_33
REMARK    9  A    between atoms: O_33  and  C_34
REMARK   10  A    between atoms: C_35  and  O_36
REMARK                            x       y       z     vdW  Elec       q    Type
REMARK                         _______ _______ _______ _____ _____    ______ ____
ROOT
ATOM      1  C   UNL     1      -1.448  12.120  21.259  0.00  0.00    +0.000 C 
ATOM      2  C   UNL     1      -2.035  12.109  19.738  0.00  0.00    +0.000 A 
ATOM      3  C   UNL     1      -3.325  11.848  19.268  0.00  0.00    +0.000 A 
ATOM      4  C   UNL     1      -3.480  11.529  17.902  0.00  0.00    +0.000 A 
ATOM      5  C   UNL     1      -2.433  11.468  16.994  0.00  0.00    +0.000 A 
ATOM      6  C   UNL     1      -1.166  11.797  17.337  0.00  0.00    +0.000 A 
ATOM      7  C   UNL     1      -0.969  12.104  18.687  0.00  0.00    +0.000 A 
ATOM      8  C   UNL     1       0.491  12.015  19.166  0.00  0.00    +0.000 C 
ATOM      9  C   UNL     1       0.238  10.764  20.043  0.00  0.00    +0.000 C 
ATOM     10  C   UNL     1       1.131   9.582  20.153  0.00  0.00    +0.000 C 
ATOM     11  O   UNL     1       0.561   8.909  21.292  0.00  0.00    +0.000 OA
ATOM     12  C   UNL     1      -0.296   9.746  21.988  0.00  0.00    +0.000 C 
ATOM     13  O   UNL     1      -0.902   9.381  22.979  0.00  0.00    +0.000 OA
ATOM     14  C   UNL     1      -0.223  11.143  21.417  0.00  0.00    +0.000 C 
ATOM     15  O   UNL     1      -2.759  10.966  15.780  0.00  0.00    +0.000 OA
ATOM     16  C   UNL     1      -4.171  10.802  15.937  0.00  0.00    +0.000 C 
ATOM     17  O   UNL     1      -4.639  11.139  17.273  0.00  0.00    +0.000 OA
ENDROOT
BRANCH   1  20
ATOM     18  C   UNL     1      -1.633  14.534  24.329  0.00  0.00    +0.000 A 
ATOM     19  C   UNL     1      -1.090  13.695  23.317  0.00  0.00    +0.000 A 
ATOM     20  C   UNL     1      -1.875  12.748  22.630  0.00  0.00    +0.000 A 
ATOM     21  C   UNL     1      -3.255  12.720  23.022  0.00  0.00    +0.000 A 
ATOM     22  C   UNL     1      -3.824  13.563  24.005  0.00  0.00    +0.000 A 
ATOM     23  C   UNL     1      -2.994  14.462  24.668  0.00  0.00    +0.000 A 
BRANCH  18  25
ATOM     24  C   UNL     1      -0.562  16.662  24.139  0.00  0.00    +0.000 C 
ATOM     25  O   UNL     1      -0.727  15.436  24.844  0.00  0.00    +0.000 OA
ENDBRANCH  18  25
BRANCH  22  26
ATOM     26  O   UNL     1      -5.174  13.389  24.187  0.00  0.00    +0.000 OA
ATOM     27  C   UNL     1      -6.024  13.130  23.072  0.00  0.00    +0.000 C 
ENDBRANCH  22  26
BRANCH  23  28
ATOM     28  O   UNL     1      -3.492  15.262  25.659  0.00  0.00    +0.000 OA
ATOM     29  H   UNL     1      -3.990  15.956  25.194  0.00  0.00    +0.000 HD
ENDBRANCH  23  28
ENDBRANCH   1  20
BRANCH   8  30
ATOM     30  N   UNL     1       0.708  13.365  19.665  0.00  0.00    +0.000 NA
ATOM     31  H   UNL     1       0.069  13.565  20.435  0.00  0.00    +0.000 HD
BRANCH  30  32
ATOM     32  C   UNL     1       0.819  14.507  18.792  0.00  0.00    +0.000 C 
BRANCH  32  33
ATOM     33  C   UNL     1      -0.163  15.544  19.113  0.00  0.00    +0.000 A 
ATOM     34  C   UNL     1      -1.084  15.698  20.129  0.00  0.00    +0.000 A 
ATOM     35  C   UNL     1      -1.742  16.923  19.870  0.00  0.00    +0.000 A 
ATOM     36  C   UNL     1      -1.191  17.422  18.706  0.00  0.00    +0.000 A 
ATOM     37  C   UNL     1      -1.409  18.629  17.893  0.00  0.00    +0.000 C 
ATOM     38  O   UNL     1      -0.237  16.575  18.237  0.00  0.00    +0.000 OA
ENDBRANCH  32  33
ENDBRANCH  30  32
ENDBRANCH   8  30
TORSDOF 7
ENDMDL
