MODEL 1
REMARK VINA RESULT:      -9.4      0.000      0.000
REMARK  Name = 
REMARK  6 active torsions:
REMARK  status: ('A' for Active; 'I' for Inactive)
REMARK    1  A    between atoms: C_2  and  O_3
REMARK    2  A    between atoms: C_2  and  C_4
REMARK    3  A    between atoms: C_6  and  N_7
REMARK    4  A    between atoms: C_8  and  C_10
REMARK    5  A    between atoms: C_12  and  C_13
REMARK    6  A    between atoms: N_24  and  C_25
REMARK                            x       y       z     vdW  Elec       q    Type
REMARK                         _______ _______ _______ _____ _____    ______ ____
ROOT
ATOM      1  N   UNL     1       4.338   5.220  16.744  0.00  0.00    +0.000 N 
ATOM      2  C   UNL     1       4.160   4.401  17.904  0.00  0.00    +0.000 C 
ATOM      3  O   UNL     1       4.886   3.436  18.075  0.00  0.00    +0.000 OA
ATOM      4  H   UNL     1       3.860   6.114  16.669  0.00  0.00    +0.000 HD
ENDROOT
BRANCH   2   5
ATOM      5  C   UNL     1       3.186   4.851  18.932  0.00  0.00    +0.000 A 
ATOM      6  C   UNL     1       2.789   6.203  18.888  0.00  0.00    +0.000 A 
ATOM      7  C   UNL     1       1.930   6.762  19.857  0.00  0.00    +0.000 A 
ATOM      8  C   UNL     1       1.438   5.898  20.849  0.00  0.00    +0.000 A 
ATOM      9  C   UNL     1       1.813   4.553  20.896  0.00  0.00    +0.000 A 
ATOM     10  C   UNL     1       2.690   4.028  19.945  0.00  0.00    +0.000 A 
ATOM     11 CL   UNL     1       3.130   2.369  20.125  0.00  0.00    +0.000 Cl
BRANCH   7  12
ATOM     12  C   UNL     1       1.610   8.208  19.841  0.00  0.00    +0.000 A 
ATOM     13  N   UNL     1       1.268   8.743  21.046  0.00  0.00    +0.000 NA
ATOM     14  C   UNL     1       0.912  10.052  21.069  0.00  0.00    +0.000 A 
ATOM     15  C   UNL     1       0.872  10.865  19.948  0.00  0.00    +0.000 A 
ATOM     16  C   UNL     1       1.224  10.310  18.726  0.00  0.00    +0.000 A 
ATOM     17  C   UNL     1       1.597   8.972  18.673  0.00  0.00    +0.000 A 
ATOM     18  F   UNL     1       1.902   8.444  17.479  0.00  0.00    +0.000 F 
ENDBRANCH   7  12
ENDBRANCH   2   5
BRANCH   1  21
ATOM     19  C   UNL     1       6.391   4.363  13.953  0.00  0.00    +0.000 A 
ATOM     20  C   UNL     1       5.133   4.316  14.602  0.00  0.00    +0.000 A 
ATOM     21  C   UNL     1       5.329   4.930  15.812  0.00  0.00    +0.000 A 
ATOM     22  N   UNL     1       6.657   5.334  15.846  0.00  0.00    +0.000 N 
ATOM     23  N   UNL     1       7.313   5.017  14.690  0.00  0.00    +0.000 NA
BRANCH  22  24
ATOM     24  C   UNL     1       7.299   6.016  16.910  0.00  0.00    +0.000 A 
ATOM     25  C   UNL     1       7.661   5.330  18.084  0.00  0.00    +0.000 A 
ATOM     26  C   UNL     1       8.188   6.028  19.170  0.00  0.00    +0.000 A 
ATOM     27  C   UNL     1       8.355   7.408  19.090  0.00  0.00    +0.000 A 
ATOM     28  C   UNL     1       8.033   8.086  17.912  0.00  0.00    +0.000 A 
ATOM     29  C   UNL     1       7.528   7.392  16.812  0.00  0.00    +0.000 A 
ENDBRANCH  22  24
BRANCH  19  31
ATOM     30  O   UNL     1       7.402   4.395  11.806  0.00  0.00    +0.000 OA
ATOM     31  C   UNL     1       6.711   3.808  12.633  0.00  0.00    +0.000 C 
BRANCH  31  32
ATOM     32  O   UNL     1       6.162   2.590  12.411  0.00  0.00    +0.000 OA
ATOM     33  H   UNL     1       5.187   2.667  12.516  0.00  0.00    +0.000 HD
ENDBRANCH  31  32
ENDBRANCH  19  31
ENDBRANCH   1  21
TORSDOF 6
ENDMDL
MODEL 2
REMARK VINA RESULT:      -9.1      0.995      1.210
REMARK  Name = 
REMARK  6 active torsions:
REMARK  status: ('A' for Active; 'I' for Inactive)
REMARK    1  A    between atoms: C_2  and  O_3
REMARK    2  A    between atoms: C_2  and  C_4
REMARK    3  A    between atoms: C_6  and  N_7
REMARK    4  A    between atoms: C_8  and  C_10
REMARK    5  A    between atoms: C_12  and  C_13
REMARK    6  A    between atoms: N_24  and  C_25
REMARK                            x       y       z     vdW  Elec       q    Type
REMARK                         _______ _______ _______ _____ _____    ______ ____
ROOT
ATOM      1  N   UNL     1       4.337   5.215  16.741  0.00  0.00    +0.000 N 
ATOM      2  C   UNL     1       4.228   4.459  17.951  0.00  0.00    +0.000 C 
ATOM      3  O   UNL     1       5.014   3.551  18.164  0.00  0.00    +0.000 OA
ATOM      4  H   UNL     1       3.804   6.073  16.623  0.00  0.00    +0.000 HD
ENDROOT
BRANCH   2   5
ATOM      5  C   UNL     1       3.246   4.911  18.970  0.00  0.00    +0.000 A 
ATOM      6  C   UNL     1       2.805   6.247  18.884  0.00  0.00    +0.000 A 
ATOM      7  C   UNL     1       1.935   6.809  19.840  0.00  0.00    +0.000 A 
ATOM      8  C   UNL     1       1.476   5.963  20.863  0.00  0.00    +0.000 A 
ATOM      9  C   UNL     1       1.895   4.633  20.952  0.00  0.00    +0.000 A 
ATOM     10  C   UNL     1       2.782   4.105  20.012  0.00  0.00    +0.000 A 
ATOM     11 CL   UNL     1       3.277   2.468  20.243  0.00  0.00    +0.000 Cl
BRANCH   7  12
ATOM     12  C   UNL     1       1.568   8.243  19.779  0.00  0.00    +0.000 A 
ATOM     13  N   UNL     1       1.717   8.833  18.559  0.00  0.00    +0.000 NA
ATOM     14  C   UNL     1       1.447  10.159  18.471  0.00  0.00    +0.000 A 
ATOM     15  C   UNL     1       1.036  10.941  19.538  0.00  0.00    +0.000 A 
ATOM     16  C   UNL     1       0.885  10.329  20.775  0.00  0.00    +0.000 A 
ATOM     17  C   UNL     1       1.151   8.971  20.895  0.00  0.00    +0.000 A 
ATOM     18  F   UNL     1       1.031   8.404  22.104  0.00  0.00    +0.000 F 
ENDBRANCH   7  12
ENDBRANCH   2   5
BRANCH   1  21
ATOM     19  C   UNL     1       6.390   4.362  13.949  0.00  0.00    +0.000 A 
ATOM     20  C   UNL     1       5.135   4.306  14.602  0.00  0.00    +0.000 A 
ATOM     21  C   UNL     1       5.328   4.931  15.808  0.00  0.00    +0.000 A 
ATOM     22  N   UNL     1       6.652   5.349  15.834  0.00  0.00    +0.000 N 
ATOM     23  N   UNL     1       7.307   5.031  14.678  0.00  0.00    +0.000 NA
BRANCH  22  24
ATOM     24  C   UNL     1       7.290   6.045  16.891  0.00  0.00    +0.000 A 
ATOM     25  C   UNL     1       7.651   5.374  18.075  0.00  0.00    +0.000 A 
ATOM     26  C   UNL     1       8.173   6.087  19.153  0.00  0.00    +0.000 A 
ATOM     27  C   UNL     1       8.337   7.466  19.057  0.00  0.00    +0.000 A 
ATOM     28  C   UNL     1       8.017   8.128  17.870  0.00  0.00    +0.000 A 
ATOM     29  C   UNL     1       7.516   7.420  16.777  0.00  0.00    +0.000 A 
ENDBRANCH  22  24
BRANCH  19  31
ATOM     30  O   UNL     1       7.445   4.362  11.823  0.00  0.00    +0.000 OA
ATOM     31  C   UNL     1       6.711   3.802  12.631  0.00  0.00    +0.000 C 
BRANCH  31  32
ATOM     32  O   UNL     1       6.114   2.611  12.390  0.00  0.00    +0.000 OA
ATOM     33  H   UNL     1       5.147   2.764  12.294  0.00  0.00    +0.000 HD
ENDBRANCH  31  32
ENDBRANCH  19  31
ENDBRANCH   1  21
TORSDOF 6
ENDMDL
MODEL 3
REMARK VINA RESULT:      -9.1      2.529      4.482
REMARK  Name = 
REMARK  6 active torsions:
REMARK  status: ('A' for Active; 'I' for Inactive)
REMARK    1  A    between atoms: C_2  and  O_3
REMARK    2  A    between atoms: C_2  and  C_4
REMARK    3  A    between atoms: C_6  and  N_7
REMARK    4  A    between atoms: C_8  and  C_10
REMARK    5  A    between atoms: C_12  and  C_13
REMARK    6  A    between atoms: N_24  and  C_25
REMARK                            x       y       z     vdW  Elec       q    Type
REMARK                         _______ _______ _______ _____ _____    ______ ____
ROOT
ATOM      1  N   UNL     1       3.739   6.814  18.398  0.00  0.00    +0.000 N 
ATOM      2  C   UNL     1       2.417   7.311  18.165  0.00  0.00    +0.000 C 
ATOM      3  O   UNL     1       1.788   6.914  17.198  0.00  0.00    +0.000 OA
ATOM      4  H   UNL     1       4.210   7.004  19.280  0.00  0.00    +0.000 HD
ENDROOT
BRANCH   2   5
ATOM      5  C   UNL     1       1.809   8.186  19.200  0.00  0.00    +0.000 A 
ATOM      6  C   UNL     1       1.568   9.528  18.843  0.00  0.00    +0.000 A 
ATOM      7  C   UNL     1       1.067  10.468  19.766  0.00  0.00    +0.000 A 
ATOM      8  C   UNL     1       0.762  10.000  21.055  0.00  0.00    +0.000 A 
ATOM      9  C   UNL     1       0.983   8.669  21.418  0.00  0.00    +0.000 A 
ATOM     10  C   UNL     1       1.510   7.762  20.497  0.00  0.00    +0.000 A 
ATOM     11 CL   UNL     1       1.793   6.156  21.063  0.00  0.00    +0.000 Cl
BRANCH   7  12
ATOM     12  C   UNL     1       0.918  11.893  19.390  0.00  0.00    +0.000 A 
ATOM     13  N   UNL     1       2.067  12.626  19.413  0.00  0.00    +0.000 NA
ATOM     14  C   UNL     1       1.968  13.949  19.131  0.00  0.00    +0.000 A 
ATOM     15  C   UNL     1       0.779  14.592  18.827  0.00  0.00    +0.000 A 
ATOM     16  C   UNL     1      -0.384  13.835  18.804  0.00  0.00    +0.000 A 
ATOM     17  C   UNL     1      -0.313  12.477  19.086  0.00  0.00    +0.000 A 
ATOM     18  F   UNL     1      -1.451  11.768  19.091  0.00  0.00    +0.000 F 
ENDBRANCH   7  12
ENDBRANCH   2   5
BRANCH   1  21
ATOM     19  C   UNL     1       5.636   4.891  16.066  0.00  0.00    +0.000 A 
ATOM     20  C   UNL     1       5.261   6.153  16.587  0.00  0.00    +0.000 A 
ATOM     21  C   UNL     1       4.313   5.884  17.540  0.00  0.00    +0.000 A 
ATOM     22  N   UNL     1       4.164   4.503  17.576  0.00  0.00    +0.000 N 
ATOM     23  N   UNL     1       5.000   3.880  16.693  0.00  0.00    +0.000 NA
BRANCH  22  24
ATOM     24  C   UNL     1       3.289   3.777  18.422  0.00  0.00    +0.000 A 
ATOM     25  C   UNL     1       1.953   3.548  18.042  0.00  0.00    +0.000 A 
ATOM     26  C   UNL     1       1.068   2.933  18.927  0.00  0.00    +0.000 A 
ATOM     27  C   UNL     1       1.510   2.545  20.189  0.00  0.00    +0.000 A 
ATOM     28  C   UNL     1       2.844   2.735  20.553  0.00  0.00    +0.000 A 
ATOM     29  C   UNL     1       3.743   3.327  19.666  0.00  0.00    +0.000 A 
ENDBRANCH  22  24
BRANCH  19  31
ATOM     30  O   UNL     1       7.555   5.389  14.761  0.00  0.00    +0.000 OA
ATOM     31  C   UNL     1       6.608   4.645  14.994  0.00  0.00    +0.000 C 
BRANCH  31  32
ATOM     32  O   UNL     1       6.352   3.522  14.281  0.00  0.00    +0.000 OA
ATOM     33  H   UNL     1       7.176   2.984  14.248  0.00  0.00    +0.000 HD
ENDBRANCH  31  32
ENDBRANCH  19  31
ENDBRANCH   1  21
TORSDOF 6
ENDMDL
MODEL 4
REMARK VINA RESULT:      -8.9      2.533      4.450
REMARK  Name = 
REMARK  6 active torsions:
REMARK  status: ('A' for Active; 'I' for Inactive)
REMARK    1  A    between atoms: C_2  and  O_3
REMARK    2  A    between atoms: C_2  and  C_4
REMARK    3  A    between atoms: C_6  and  N_7
REMARK    4  A    between atoms: C_8  and  C_10
REMARK    5  A    between atoms: C_12  and  C_13
REMARK    6  A    between atoms: N_24  and  C_25
REMARK                            x       y       z     vdW  Elec       q    Type
REMARK                         _______ _______ _______ _____ _____    ______ ____
ROOT
ATOM      1  N   UNL     1       3.708   6.941  18.246  0.00  0.00    +0.000 N 
ATOM      2  C   UNL     1       2.350   7.373  18.110  0.00  0.00    +0.000 C 
ATOM      3  O   UNL     1       1.665   6.925  17.206  0.00  0.00    +0.000 OA
ATOM      4  H   UNL     1       4.238   7.172  19.083  0.00  0.00    +0.000 HD
ENDROOT
BRANCH   2   5
ATOM      5  C   UNL     1       1.787   8.245  19.173  0.00  0.00    +0.000 A 
ATOM      6  C   UNL     1       1.547   9.593  18.835  0.00  0.00    +0.000 A 
ATOM      7  C   UNL     1       1.088  10.530  19.782  0.00  0.00    +0.000 A 
ATOM      8  C   UNL     1       0.824  10.054  21.077  0.00  0.00    +0.000 A 
ATOM      9  C   UNL     1       1.043   8.718  21.422  0.00  0.00    +0.000 A 
ATOM     10  C   UNL     1       1.529   7.813  20.476  0.00  0.00    +0.000 A 
ATOM     11 CL   UNL     1       1.816   6.200  21.019  0.00  0.00    +0.000 Cl
BRANCH   7  12
ATOM     12  C   UNL     1       0.940  11.959  19.422  0.00  0.00    +0.000 A 
ATOM     13  N   UNL     1       1.965  12.768  19.813  0.00  0.00    +0.000 NA
ATOM     14  C   UNL     1       1.846  14.094  19.554  0.00  0.00    +0.000 A 
ATOM     15  C   UNL     1       0.752  14.668  18.927  0.00  0.00    +0.000 A 
ATOM     16  C   UNL     1      -0.285  13.834  18.532  0.00  0.00    +0.000 A 
ATOM     17  C   UNL     1      -0.189  12.471  18.780  0.00  0.00    +0.000 A 
ATOM     18  F   UNL     1      -1.214  11.685  18.421  0.00  0.00    +0.000 F 
ENDBRANCH   7  12
ENDBRANCH   2   5
BRANCH   1  21
ATOM     19  C   UNL     1       5.530   5.031  15.844  0.00  0.00    +0.000 A 
ATOM     20  C   UNL     1       5.175   6.290  16.386  0.00  0.00    +0.000 A 
ATOM     21  C   UNL     1       4.253   6.015  17.364  0.00  0.00    +0.000 A 
ATOM     22  N   UNL     1       4.100   4.635  17.392  0.00  0.00    +0.000 N 
ATOM     23  N   UNL     1       4.907   4.016  16.480  0.00  0.00    +0.000 NA
BRANCH  22  24
ATOM     24  C   UNL     1       3.246   3.904  18.256  0.00  0.00    +0.000 A 
ATOM     25  C   UNL     1       3.705   3.465  19.512  0.00  0.00    +0.000 A 
ATOM     26  C   UNL     1       2.900   2.651  20.307  0.00  0.00    +0.000 A 
ATOM     27  C   UNL     1       1.638   2.273  19.856  0.00  0.00    +0.000 A 
ATOM     28  C   UNL     1       1.165   2.739  18.628  0.00  0.00    +0.000 A 
ATOM     29  C   UNL     1       1.954   3.574  17.836  0.00  0.00    +0.000 A 
ENDBRANCH  22  24
BRANCH  19  31
ATOM     30  O   UNL     1       6.241   4.014  13.821  0.00  0.00    +0.000 OA
ATOM     31  C   UNL     1       6.470   4.790  14.743  0.00  0.00    +0.000 C 
BRANCH  31  32
ATOM     32  O   UNL     1       7.617   5.501  14.847  0.00  0.00    +0.000 OA
ATOM     33  H   UNL     1       7.732   6.024  14.021  0.00  0.00    +0.000 HD
ENDBRANCH  31  32
ENDBRANCH  19  31
ENDBRANCH   1  21
TORSDOF 6
ENDMDL
MODEL 5
REMARK VINA RESULT:      -8.8      2.581      4.548
REMARK  Name = 
REMARK  6 active torsions:
REMARK  status: ('A' for Active; 'I' for Inactive)
REMARK    1  A    between atoms: C_2  and  O_3
REMARK    2  A    between atoms: C_2  and  C_4
REMARK    3  A    between atoms: C_6  and  N_7
REMARK    4  A    between atoms: C_8  and  C_10
REMARK    5  A    between atoms: C_12  and  C_13
REMARK    6  A    between atoms: N_24  and  C_25
REMARK                            x       y       z     vdW  Elec       q    Type
REMARK                         _______ _______ _______ _____ _____    ______ ____
ROOT
ATOM      1  N   UNL     1       3.662   6.859  18.386  0.00  0.00    +0.000 N 
ATOM      2  C   UNL     1       2.335   7.364  18.201  0.00  0.00    +0.000 C 
ATOM      3  O   UNL     1       1.686   7.004  17.233  0.00  0.00    +0.000 OA
ATOM      4  H   UNL     1       4.151   7.014  19.264  0.00  0.00    +0.000 HD
ENDROOT
BRANCH   2   5
ATOM      5  C   UNL     1       1.750   8.198  19.282  0.00  0.00    +0.000 A 
ATOM      6  C   UNL     1       1.435   9.534  18.960  0.00  0.00    +0.000 A 
ATOM      7  C   UNL     1       0.947  10.439  19.925  0.00  0.00    +0.000 A 
ATOM      8  C   UNL     1       0.733   9.940  21.220  0.00  0.00    +0.000 A 
ATOM      9  C   UNL     1       1.028   8.614  21.549  0.00  0.00    +0.000 A 
ATOM     10  C   UNL     1       1.540   7.743  20.586  0.00  0.00    +0.000 A 
ATOM     11 CL   UNL     1       1.920   6.142  21.108  0.00  0.00    +0.000 Cl
BRANCH   7  12
ATOM     12  C   UNL     1       0.720  11.861  19.580  0.00  0.00    +0.000 A 
ATOM     13  N   UNL     1      -0.297  12.095  18.703  0.00  0.00    +0.000 NA
ATOM     14  C   UNL     1      -0.504  13.378  18.315  0.00  0.00    +0.000 A 
ATOM     15  C   UNL     1       0.252  14.453  18.753  0.00  0.00    +0.000 A 
ATOM     16  C   UNL     1       1.284  14.204  19.648  0.00  0.00    +0.000 A 
ATOM     17  C   UNL     1       1.517  12.900  20.065  0.00  0.00    +0.000 A 
ATOM     18  F   UNL     1       2.538  12.673  20.905  0.00  0.00    +0.000 F 
ENDBRANCH   7  12
ENDBRANCH   2   5
BRANCH   1  21
ATOM     19  C   UNL     1       5.504   5.031  15.936  0.00  0.00    +0.000 A 
ATOM     20  C   UNL     1       5.136   6.271  16.511  0.00  0.00    +0.000 A 
ATOM     21  C   UNL     1       4.217   5.962  17.480  0.00  0.00    +0.000 A 
ATOM     22  N   UNL     1       4.077   4.580  17.473  0.00  0.00    +0.000 N 
ATOM     23  N   UNL     1       4.891   3.994  16.545  0.00  0.00    +0.000 NA
BRANCH  22  24
ATOM     24  C   UNL     1       3.231   3.819  18.317  0.00  0.00    +0.000 A 
ATOM     25  C   UNL     1       1.889   3.585  17.962  0.00  0.00    +0.000 A 
ATOM     26  C   UNL     1       1.032   2.935  18.848  0.00  0.00    +0.000 A 
ATOM     27  C   UNL     1       1.508   2.515  20.088  0.00  0.00    +0.000 A 
ATOM     28  C   UNL     1       2.848   2.711  20.427  0.00  0.00    +0.000 A 
ATOM     29  C   UNL     1       3.719   3.340  19.536  0.00  0.00    +0.000 A 
ENDBRANCH  22  24
BRANCH  19  31
ATOM     30  O   UNL     1       6.229   4.066  13.893  0.00  0.00    +0.000 OA
ATOM     31  C   UNL     1       6.446   4.828  14.830  0.00  0.00    +0.000 C 
BRANCH  31  32
ATOM     32  O   UNL     1       7.581   5.557  14.947  0.00  0.00    +0.000 OA
ATOM     33  H   UNL     1       8.309   5.069  14.498  0.00  0.00    +0.000 HD
ENDBRANCH  31  32
ENDBRANCH  19  31
ENDBRANCH   1  21
TORSDOF 6
ENDMDL
MODEL 6
REMARK VINA RESULT:      -8.8      2.579      4.516
REMARK  Name = 
REMARK  6 active torsions:
REMARK  status: ('A' for Active; 'I' for Inactive)
REMARK    1  A    between atoms: C_2  and  O_3
REMARK    2  A    between atoms: C_2  and  C_4
REMARK    3  A    between atoms: C_6  and  N_7
REMARK    4  A    between atoms: C_8  and  C_10
REMARK    5  A    between atoms: C_12  and  C_13
REMARK    6  A    between atoms: N_24  and  C_25
REMARK                            x       y       z     vdW  Elec       q    Type
REMARK                         _______ _______ _______ _____ _____    ______ ____
ROOT
ATOM      1  N   UNL     1       3.681   6.999  18.353  0.00  0.00    +0.000 N 
ATOM      2  C   UNL     1       2.340   7.471  18.183  0.00  0.00    +0.000 C 
ATOM      3  O   UNL     1       1.684   7.086  17.229  0.00  0.00    +0.000 OA
ATOM      4  H   UNL     1       4.180   7.175  19.221  0.00  0.00    +0.000 HD
ENDROOT
BRANCH   2   5
ATOM      5  C   UNL     1       1.752   8.303  19.264  0.00  0.00    +0.000 A 
ATOM      6  C   UNL     1       1.458   9.646  18.950  0.00  0.00    +0.000 A 
ATOM      7  C   UNL     1       0.970  10.549  19.917  0.00  0.00    +0.000 A 
ATOM      8  C   UNL     1       0.734  10.041  21.205  0.00  0.00    +0.000 A 
ATOM      9  C   UNL     1       1.007   8.709  21.526  0.00  0.00    +0.000 A 
ATOM     10  C   UNL     1       1.520   7.840  20.561  0.00  0.00    +0.000 A 
ATOM     11 CL   UNL     1       1.873   6.230  21.074  0.00  0.00    +0.000 Cl
BRANCH   7  12
ATOM     12  C   UNL     1       0.766  11.977  19.583  0.00  0.00    +0.000 A 
ATOM     13  N   UNL     1      -0.227  12.230  18.684  0.00  0.00    +0.000 NA
ATOM     14  C   UNL     1      -0.412  13.519  18.305  0.00  0.00    +0.000 A 
ATOM     15  C   UNL     1       0.344  14.582  18.772  0.00  0.00    +0.000 A 
ATOM     16  C   UNL     1       1.351  14.313  19.689  0.00  0.00    +0.000 A 
ATOM     17  C   UNL     1       1.561  13.002  20.098  0.00  0.00    +0.000 A 
ATOM     18  F   UNL     1       2.559  12.756  20.959  0.00  0.00    +0.000 F 
ENDBRANCH   7  12
ENDBRANCH   2   5
BRANCH   1  21
ATOM     19  C   UNL     1       5.545   5.176  15.916  0.00  0.00    +0.000 A 
ATOM     20  C   UNL     1       5.178   6.415  16.495  0.00  0.00    +0.000 A 
ATOM     21  C   UNL     1       4.242   6.105  17.448  0.00  0.00    +0.000 A 
ATOM     22  N   UNL     1       4.093   4.725  17.428  0.00  0.00    +0.000 N 
ATOM     23  N   UNL     1       4.916   4.139  16.507  0.00  0.00    +0.000 NA
BRANCH  22  24
ATOM     24  C   UNL     1       3.228   3.963  18.253  0.00  0.00    +0.000 A 
ATOM     25  C   UNL     1       3.677   3.462  19.489  0.00  0.00    +0.000 A 
ATOM     26  C   UNL     1       2.861   2.620  20.243  0.00  0.00    +0.000 A 
ATOM     27  C   UNL     1       1.598   2.275  19.769  0.00  0.00    +0.000 A 
ATOM     28  C   UNL     1       1.135   2.801  18.562  0.00  0.00    +0.000 A 
ATOM     29  C   UNL     1       1.935   3.664  17.813  0.00  0.00    +0.000 A 
ENDBRANCH  22  24
BRANCH  19  31
ATOM     30  O   UNL     1       7.554   5.599  14.726  0.00  0.00    +0.000 OA
ATOM     31  C   UNL     1       6.502   4.976  14.822  0.00  0.00    +0.000 C 
BRANCH  31  32
ATOM     32  O   UNL     1       6.107   4.043  13.923  0.00  0.00    +0.000 OA
ATOM     33  H   UNL     1       6.425   3.164  14.232  0.00  0.00    +0.000 HD
ENDBRANCH  31  32
ENDBRANCH  19  31
ENDBRANCH   1  21
TORSDOF 6
ENDMDL
MODEL 7
REMARK VINA RESULT:      -8.1      3.638      5.903
REMARK  Name = 
REMARK  6 active torsions:
REMARK  status: ('A' for Active; 'I' for Inactive)
REMARK    1  A    between atoms: C_2  and  O_3
REMARK    2  A    between atoms: C_2  and  C_4
REMARK    3  A    between atoms: C_6  and  N_7
REMARK    4  A    between atoms: C_8  and  C_10
REMARK    5  A    between atoms: C_12  and  C_13
REMARK    6  A    between atoms: N_24  and  C_25
REMARK                            x       y       z     vdW  Elec       q    Type
REMARK                         _______ _______ _______ _____ _____    ______ ____
ROOT
ATOM      1  N   UNL     1       2.060   7.727  19.025  0.00  0.00    +0.000 N 
ATOM      2  C   UNL     1       1.627   8.992  18.514  0.00  0.00    +0.000 C 
ATOM      3  O   UNL     1       2.067   9.391  17.449  0.00  0.00    +0.000 OA
ATOM      4  H   UNL     1       1.584   7.305  19.819  0.00  0.00    +0.000 HD
ENDROOT
BRANCH   2   5
ATOM      5  C   UNL     1       0.542   9.702  19.239  0.00  0.00    +0.000 A 
ATOM      6  C   UNL     1      -0.614  10.028  18.500  0.00  0.00    +0.000 A 
ATOM      7  C   UNL     1      -1.674  10.768  19.061  0.00  0.00    +0.000 A 
ATOM      8  C   UNL     1      -1.559  11.127  20.414  0.00  0.00    +0.000 A 
ATOM      9  C   UNL     1      -0.425  10.798  21.162  0.00  0.00    +0.000 A 
ATOM     10  C   UNL     1       0.628  10.092  20.577  0.00  0.00    +0.000 A 
ATOM     11 CL   UNL     1       2.003   9.782  21.573  0.00  0.00    +0.000 Cl
BRANCH   7  12
ATOM     12  C   UNL     1      -2.830  11.181  18.232  0.00  0.00    +0.000 A 
ATOM     13  N   UNL     1      -3.823  11.834  18.898  0.00  0.00    +0.000 NA
ATOM     14  C   UNL     1      -4.927  12.180  18.190  0.00  0.00    +0.000 A 
ATOM     15  C   UNL     1      -5.102  11.908  16.843  0.00  0.00    +0.000 A 
ATOM     16  C   UNL     1      -4.083  11.244  16.174  0.00  0.00    +0.000 A 
ATOM     17  C   UNL     1      -2.940  10.880  16.873  0.00  0.00    +0.000 A 
ATOM     18  F   UNL     1      -1.980  10.211  16.218  0.00  0.00    +0.000 F 
ENDBRANCH   7  12
ENDBRANCH   2   5
BRANCH   1  21
ATOM     19  C   UNL     1       4.701   6.283  17.108  0.00  0.00    +0.000 A 
ATOM     20  C   UNL     1       3.942   7.420  17.476  0.00  0.00    +0.000 A 
ATOM     21  C   UNL     1       2.971   6.947  18.322  0.00  0.00    +0.000 A 
ATOM     22  N   UNL     1       3.182   5.580  18.449  0.00  0.00    +0.000 N 
ATOM     23  N   UNL     1       4.267   5.166  17.729  0.00  0.00    +0.000 NA
BRANCH  22  24
ATOM     24  C   UNL     1       2.415   4.683  19.233  0.00  0.00    +0.000 A 
ATOM     25  C   UNL     1       2.577   4.637  20.631  0.00  0.00    +0.000 A 
ATOM     26  C   UNL     1       1.903   3.676  21.383  0.00  0.00    +0.000 A 
ATOM     27  C   UNL     1       1.069   2.760  20.748  0.00  0.00    +0.000 A 
ATOM     28  C   UNL     1       0.876   2.828  19.366  0.00  0.00    +0.000 A 
ATOM     29  C   UNL     1       1.527   3.802  18.609  0.00  0.00    +0.000 A 
ENDBRANCH  22  24
BRANCH  19  31
ATOM     30  O   UNL     1       6.982   6.583  16.521  0.00  0.00    +0.000 OA
ATOM     31  C   UNL     1       5.845   6.260  16.189  0.00  0.00    +0.000 C 
BRANCH  31  32
ATOM     32  O   UNL     1       5.524   5.856  14.938  0.00  0.00    +0.000 OA
ATOM     33  H   UNL     1       5.281   6.650  14.410  0.00  0.00    +0.000 HD
ENDBRANCH  31  32
ENDBRANCH  19  31
ENDBRANCH   1  21
TORSDOF 6
ENDMDL
MODEL 8
REMARK VINA RESULT:      -8.1      3.583      5.837
REMARK  Name = 
REMARK  6 active torsions:
REMARK  status: ('A' for Active; 'I' for Inactive)
REMARK    1  A    between atoms: C_2  and  O_3
REMARK    2  A    between atoms: C_2  and  C_4
REMARK    3  A    between atoms: C_6  and  N_7
REMARK    4  A    between atoms: C_8  and  C_10
REMARK    5  A    between atoms: C_12  and  C_13
REMARK    6  A    between atoms: N_24  and  C_25
REMARK                            x       y       z     vdW  Elec       q    Type
REMARK                         _______ _______ _______ _____ _____    ______ ____
ROOT
ATOM      1  N   UNL     1       2.071   7.594  18.972  0.00  0.00    +0.000 N 
ATOM      2  C   UNL     1       1.710   8.910  18.539  0.00  0.00    +0.000 C 
ATOM      3  O   UNL     1       2.232   9.377  17.540  0.00  0.00    +0.000 OA
ATOM      4  H   UNL     1       1.532   7.126  19.696  0.00  0.00    +0.000 HD
ENDROOT
BRANCH   2   5
ATOM      5  C   UNL     1       0.599   9.596  19.247  0.00  0.00    +0.000 A 
ATOM      6  C   UNL     1      -0.533   9.939  18.480  0.00  0.00    +0.000 A 
ATOM      7  C   UNL     1      -1.614  10.660  19.026  0.00  0.00    +0.000 A 
ATOM      8  C   UNL     1      -1.545  10.981  20.392  0.00  0.00    +0.000 A 
ATOM      9  C   UNL     1      -0.435  10.634  21.167  0.00  0.00    +0.000 A 
ATOM     10  C   UNL     1       0.640   9.948  20.598  0.00  0.00    +0.000 A 
ATOM     11 CL   UNL     1       1.983   9.615  21.629  0.00  0.00    +0.000 Cl
BRANCH   7  12
ATOM     12  C   UNL     1      -2.744  11.092  18.172  0.00  0.00    +0.000 A 
ATOM     13  N   UNL     1      -3.729  11.785  18.811  0.00  0.00    +0.000 NA
ATOM     14  C   UNL     1      -4.810  12.151  18.079  0.00  0.00    +0.000 A 
ATOM     15  C   UNL     1      -4.971  11.862  16.734  0.00  0.00    +0.000 A 
ATOM     16  C   UNL     1      -3.962  11.158  16.092  0.00  0.00    +0.000 A 
ATOM     17  C   UNL     1      -2.840  10.773  16.816  0.00  0.00    +0.000 A 
ATOM     18  F   UNL     1      -1.890  10.066  16.188  0.00  0.00    +0.000 F 
ENDBRANCH   7  12
ENDBRANCH   2   5
BRANCH   1  21
ATOM     19  C   UNL     1       4.740   6.234  17.031  0.00  0.00    +0.000 A 
ATOM     20  C   UNL     1       3.931   7.340  17.386  0.00  0.00    +0.000 A 
ATOM     21  C   UNL     1       3.006   6.843  18.267  0.00  0.00    +0.000 A 
ATOM     22  N   UNL     1       3.290   5.493  18.426  0.00  0.00    +0.000 N 
ATOM     23  N   UNL     1       4.379   5.114  17.691  0.00  0.00    +0.000 NA
BRANCH  22  24
ATOM     24  C   UNL     1       2.590   4.580  19.254  0.00  0.00    +0.000 A 
ATOM     25  C   UNL     1       1.559   3.781  18.724  0.00  0.00    +0.000 A 
ATOM     26  C   UNL     1       0.799   2.969  19.565  0.00  0.00    +0.000 A 
ATOM     27  C   UNL     1       1.061   2.952  20.932  0.00  0.00    +0.000 A 
ATOM     28  C   UNL     1       2.108   3.714  21.455  0.00  0.00    +0.000 A 
ATOM     29  C   UNL     1       2.890   4.510  20.617  0.00  0.00    +0.000 A 
ENDBRANCH  22  24
BRANCH  19  31
ATOM     30  O   UNL     1       5.782   5.802  14.943  0.00  0.00    +0.000 OA
ATOM     31  C   UNL     1       5.861   6.244  16.085  0.00  0.00    +0.000 C 
BRANCH  31  32
ATOM     32  O   UNL     1       6.995   6.780  16.596  0.00  0.00    +0.000 OA
ATOM     33  H   UNL     1       6.751   7.337  17.370  0.00  0.00    +0.000 HD
ENDBRANCH  31  32
ENDBRANCH  19  31
ENDBRANCH   1  21
TORSDOF 6
ENDMDL
MODEL 9
REMARK VINA RESULT:      -8.1      3.653      5.852
REMARK  Name = 
REMARK  6 active torsions:
REMARK  status: ('A' for Active; 'I' for Inactive)
REMARK    1  A    between atoms: C_2  and  O_3
REMARK    2  A    between atoms: C_2  and  C_4
REMARK    3  A    between atoms: C_6  and  N_7
REMARK    4  A    between atoms: C_8  and  C_10
REMARK    5  A    between atoms: C_12  and  C_13
REMARK    6  A    between atoms: N_24  and  C_25
REMARK                            x       y       z     vdW  Elec       q    Type
REMARK                         _______ _______ _______ _____ _____    ______ ____
ROOT
ATOM      1  N   UNL     1       2.508   7.323  18.915  0.00  0.00    +0.000 N 
ATOM      2  C   UNL     1       2.065   8.534  18.295  0.00  0.00    +0.000 C 
ATOM      3  O   UNL     1       2.594   8.907  17.261  0.00  0.00    +0.000 OA
ATOM      4  H   UNL     1       1.974   6.912  19.677  0.00  0.00    +0.000 HD
ENDROOT
BRANCH   2   5
ATOM      5  C   UNL     1       0.872   9.213  18.863  0.00  0.00    +0.000 A 
ATOM      6  C   UNL     1      -0.193   9.482  17.979  0.00  0.00    +0.000 A 
ATOM      7  C   UNL     1      -1.342  10.189  18.388  0.00  0.00    +0.000 A 
ATOM      8  C   UNL     1      -1.410  10.573  19.737  0.00  0.00    +0.000 A 
ATOM      9  C   UNL     1      -0.369  10.300  20.627  0.00  0.00    +0.000 A 
ATOM     10  C   UNL     1       0.775   9.626  20.194  0.00  0.00    +0.000 A 
ATOM     11 CL   UNL     1       2.025   9.387  21.359  0.00  0.00    +0.000 Cl
BRANCH   7  12
ATOM     12  C   UNL     1      -2.399  10.543  17.412  0.00  0.00    +0.000 A 
ATOM     13  N   UNL     1      -2.187  10.109  16.138  0.00  0.00    +0.000 NA
ATOM     14  C   UNL     1      -3.101  10.459  15.200  0.00  0.00    +0.000 A 
ATOM     15  C   UNL     1      -4.224  11.228  15.458  0.00  0.00    +0.000 A 
ATOM     16  C   UNL     1      -4.431  11.664  16.760  0.00  0.00    +0.000 A 
ATOM     17  C   UNL     1      -3.512  11.317  17.743  0.00  0.00    +0.000 A 
ATOM     18  F   UNL     1      -3.711  11.774  18.988  0.00  0.00    +0.000 F 
ENDBRANCH   7  12
ENDBRANCH   2   5
BRANCH   1  21
ATOM     19  C   UNL     1       5.458   5.933  17.464  0.00  0.00    +0.000 A 
ATOM     20  C   UNL     1       4.657   7.065  17.754  0.00  0.00    +0.000 A 
ATOM     21  C   UNL     1       3.530   6.566  18.353  0.00  0.00    +0.000 A 
ATOM     22  N   UNL     1       3.689   5.187  18.421  0.00  0.00    +0.000 N 
ATOM     23  N   UNL     1       4.890   4.790  17.904  0.00  0.00    +0.000 NA
BRANCH  22  24
ATOM     24  C   UNL     1       2.767   4.263  18.971  0.00  0.00    +0.000 A 
ATOM     25  C   UNL     1       1.967   3.465  18.131  0.00  0.00    +0.000 A 
ATOM     26  C   UNL     1       0.982   2.642  18.676  0.00  0.00    +0.000 A 
ATOM     27  C   UNL     1       0.792   2.610  20.055  0.00  0.00    +0.000 A 
ATOM     28  C   UNL     1       1.610   3.371  20.893  0.00  0.00    +0.000 A 
ATOM     29  C   UNL     1       2.614   4.179  20.358  0.00  0.00    +0.000 A 
ENDBRANCH  22  24
BRANCH  19  31
ATOM     30  O   UNL     1       7.336   4.915  16.431  0.00  0.00    +0.000 OA
ATOM     31  C   UNL     1       6.762   5.938  16.792  0.00  0.00    +0.000 C 
BRANCH  31  32
ATOM     32  O   UNL     1       7.274   7.179  16.615  0.00  0.00    +0.000 OA
ATOM     33  H   UNL     1       6.585   7.740  16.193  0.00  0.00    +0.000 HD
ENDBRANCH  31  32
ENDBRANCH  19  31
ENDBRANCH   1  21
TORSDOF 6
ENDMDL
