MODEL 1
REMARK VINA RESULT:      -8.4      0.000      0.000
REMARK  Name = 
REMARK  9 active torsions:
REMARK  status: ('A' for Active; 'I' for Inactive)
REMARK    1  A    between atoms: C_1  and  C_2
REMARK    2  A    between atoms: C_3  and  O_4
REMARK    3  A    between atoms: O_4  and  C_5
REMARK    4  A    between atoms: C_5  and  C_6
REMARK    5  A    between atoms: C_6  and  C_7
REMARK    6  A    between atoms: C_7  and  N_8
REMARK    7  A    between atoms: N_11  and  C_12
REMARK    8  A    between atoms: C_12  and  C_13
REMARK    9  A    between atoms: C_24  and  O_25
REMARK                            x       y       z     vdW  Elec       q    Type
REMARK                         _______ _______ _______ _____ _____    ______ ____
ROOT
ATOM      1  O   UNL     1       8.859   9.787  18.424  0.00  0.00    +0.000 OA
ENDROOT
BRANCH   1   4
ATOM      2  C   UNL     1      10.758  11.020  20.059  0.00  0.00    +0.000 C 
ATOM      3  C   UNL     1       9.874  11.786  19.109  0.00  0.00    +0.000 A 
ATOM      4  C   UNL     1       8.891  11.146  18.344  0.00  0.00    +0.000 A 
ATOM      5  C   UNL     1       8.050  11.891  17.518  0.00  0.00    +0.000 A 
ATOM      6  C   UNL     1       8.170  13.282  17.440  0.00  0.00    +0.000 A 
ATOM      7  C   UNL     1       9.170  13.954  18.152  0.00  0.00    +0.000 A 
ATOM      8  C   UNL     1       9.418  15.405  18.045  0.00  0.00    +0.000 A 
ATOM      9  C   UNL     1      10.479  15.898  18.680  0.00  0.00    +0.000 A 
ATOM     10  N   UNL     1      11.012  17.147  18.742  0.00  0.00    +0.000 NA
ATOM     11  N   UNL     1      12.062  17.111  19.456  0.00  0.00    +0.000 NA
ATOM     12  N   UNL     1      12.299  15.779  19.969  0.00  0.00    +0.000 NA
ATOM     13  C   UNL     1      11.326  15.078  19.480  0.00  0.00    +0.000 A 
ATOM     14  O   UNL     1      11.096  13.758  19.693  0.00  0.00    +0.000 OA
ATOM     15  C   UNL     1      10.017  13.178  18.976  0.00  0.00    +0.000 A 
BRANCH   8  16
ATOM     16  O   UNL     1       8.596  16.216  17.286  0.00  0.00    +0.000 OA
ATOM     17  H   UNL     1       7.695  16.220  17.636  0.00  0.00    +0.000 HD
ENDBRANCH   8  16
ENDBRANCH   1   4
BRANCH   1  18
ATOM     18  C   UNL     1       7.802   9.112  17.741  0.00  0.00    +0.000 C 
BRANCH  18  19
ATOM     19  C   UNL     1       7.972   7.637  18.096  0.00  0.00    +0.000 C 
BRANCH  19  20
ATOM     20  C   UNL     1       7.267   6.683  17.126  0.00  0.00    +0.000 C 
BRANCH  20  21
ATOM     21  N   UNL     1       7.166   5.303  17.625  0.00  0.00    +0.000 NA
ATOM     22  C   UNL     1       6.261   5.186  18.783  0.00  0.00    +0.000 C 
ATOM     23  C   UNL     1       4.779   5.431  18.412  0.00  0.00    +0.000 C 
ATOM     24  N   UNL     1       4.254   4.421  17.471  0.00  0.00    +0.000 NA
ATOM     25  C   UNL     1       5.159   4.357  16.295  0.00  0.00    +0.000 C 
ATOM     26  C   UNL     1       6.692   4.368  16.572  0.00  0.00    +0.000 C 
BRANCH  24  27
ATOM     27  C   UNL     1       4.133   3.137  18.197  0.00  0.00    +0.000 C 
BRANCH  27  28
ATOM     28  C   UNL     1       3.074   3.078  19.268  0.00  0.00    +0.000 A 
ATOM     29  C   UNL     1       1.755   3.425  18.989  0.00  0.00    +0.000 A 
ATOM     30  C   UNL     1       0.825   3.351  20.019  0.00  0.00    +0.000 A 
ATOM     31  C   UNL     1       1.238   2.943  21.284  0.00  0.00    +0.000 A 
ATOM     32  C   UNL     1       2.569   2.629  21.478  0.00  0.00    +0.000 A 
ATOM     33  N   UNL     1       3.496   2.679  20.499  0.00  0.00    +0.000 NA
ENDBRANCH  27  28
ENDBRANCH  24  27
ENDBRANCH  20  21
ENDBRANCH  19  20
ENDBRANCH  18  19
ENDBRANCH   1  18
TORSDOF 8
ENDMDL
MODEL 2
REMARK VINA RESULT:      -8.3      2.887     12.197
REMARK  Name = 
REMARK  9 active torsions:
REMARK  status: ('A' for Active; 'I' for Inactive)
REMARK    1  A    between atoms: C_1  and  C_2
REMARK    2  A    between atoms: C_3  and  O_4
REMARK    3  A    between atoms: O_4  and  C_5
REMARK    4  A    between atoms: C_5  and  C_6
REMARK    5  A    between atoms: C_6  and  C_7
REMARK    6  A    between atoms: C_7  and  N_8
REMARK    7  A    between atoms: N_11  and  C_12
REMARK    8  A    between atoms: C_12  and  C_13
REMARK    9  A    between atoms: C_24  and  O_25
REMARK                            x       y       z     vdW  Elec       q    Type
REMARK                         _______ _______ _______ _____ _____    ______ ____
ROOT
ATOM      1  O   UNL     1       6.961   7.718  17.173  0.00  0.00    +0.000 OA
ENDROOT
BRANCH   1   4
ATOM      2  C   UNL     1       4.189   7.567  16.865  0.00  0.00    +0.000 C 
ATOM      3  C   UNL     1       4.998   6.488  17.537  0.00  0.00    +0.000 A 
ATOM      4  C   UNL     1       6.379   6.619  17.730  0.00  0.00    +0.000 A 
ATOM      5  C   UNL     1       7.090   5.629  18.408  0.00  0.00    +0.000 A 
ATOM      6  C   UNL     1       6.440   4.496  18.908  0.00  0.00    +0.000 A 
ATOM      7  C   UNL     1       5.070   4.306  18.697  0.00  0.00    +0.000 A 
ATOM      8  C   UNL     1       4.337   3.093  19.111  0.00  0.00    +0.000 A 
ATOM      9  C   UNL     1       3.064   2.985  18.739  0.00  0.00    +0.000 A 
ATOM     10  N   UNL     1       2.142   1.999  18.901  0.00  0.00    +0.000 NA
ATOM     11  N   UNL     1       1.062   2.349  18.331  0.00  0.00    +0.000 NA
ATOM     12  N   UNL     1       1.183   3.665  17.745  0.00  0.00    +0.000 NA
ATOM     13  C   UNL     1       2.401   4.015  18.011  0.00  0.00    +0.000 A 
ATOM     14  O   UNL     1       2.994   5.192  17.684  0.00  0.00    +0.000 OA
ATOM     15  C   UNL     1       4.371   5.318  17.998  0.00  0.00    +0.000 A 
BRANCH   8  16
ATOM     16  O   UNL     1       4.962   2.093  19.830  0.00  0.00    +0.000 OA
ATOM     17  H   UNL     1       5.713   2.442  20.328  0.00  0.00    +0.000 HD
ENDBRANCH   8  16
ENDBRANCH   1   4
BRANCH   1  18
ATOM     18  C   UNL     1       8.179   8.183  17.756  0.00  0.00    +0.000 C 
BRANCH  18  19
ATOM     19  C   UNL     1       8.034   9.701  17.830  0.00  0.00    +0.000 C 
BRANCH  19  20
ATOM     20  C   UNL     1       9.016  10.368  18.798  0.00  0.00    +0.000 C 
BRANCH  20  21
ATOM     21  N   UNL     1      10.024  11.208  18.132  0.00  0.00    +0.000 NA
ATOM     22  C   UNL     1       9.504  12.542  17.781  0.00  0.00    +0.000 C 
ATOM     23  C   UNL     1       9.224  13.421  19.023  0.00  0.00    +0.000 C 
ATOM     24  N   UNL     1      10.448  13.726  19.791  0.00  0.00    +0.000 NA
ATOM     25  C   UNL     1      11.137  12.450  20.109  0.00  0.00    +0.000 C 
ATOM     26  C   UNL     1      11.235  11.390  18.972  0.00  0.00    +0.000 C 
BRANCH  24  27
ATOM     27  C   UNL     1      11.269  14.661  18.989  0.00  0.00    +0.000 C 
BRANCH  27  28
ATOM     28  C   UNL     1      10.738  16.064  18.855  0.00  0.00    +0.000 A 
ATOM     29  C   UNL     1      10.351  16.794  19.976  0.00  0.00    +0.000 A 
ATOM     30  C   UNL     1       9.867  18.082  19.787  0.00  0.00    +0.000 A 
ATOM     31  C   UNL     1       9.779  18.595  18.496  0.00  0.00    +0.000 A 
ATOM     32  C   UNL     1      10.173  17.801  17.437  0.00  0.00    +0.000 A 
ATOM     33  N   UNL     1      10.658  16.551  17.586  0.00  0.00    +0.000 NA
ENDBRANCH  27  28
ENDBRANCH  24  27
ENDBRANCH  20  21
ENDBRANCH  19  20
ENDBRANCH  18  19
ENDBRANCH   1  18
TORSDOF 8
ENDMDL
MODEL 3
REMARK VINA RESULT:      -8.2      6.546     11.304
REMARK  Name = 
REMARK  9 active torsions:
REMARK  status: ('A' for Active; 'I' for Inactive)
REMARK    1  A    between atoms: C_1  and  C_2
REMARK    2  A    between atoms: C_3  and  O_4
REMARK    3  A    between atoms: O_4  and  C_5
REMARK    4  A    between atoms: C_5  and  C_6
REMARK    5  A    between atoms: C_6  and  C_7
REMARK    6  A    between atoms: C_7  and  N_8
REMARK    7  A    between atoms: N_11  and  C_12
REMARK    8  A    between atoms: C_12  and  C_13
REMARK    9  A    between atoms: C_24  and  O_25
REMARK                            x       y       z     vdW  Elec       q    Type
REMARK                         _______ _______ _______ _____ _____    ______ ____
ROOT
ATOM      1  O   UNL     1       1.179   8.224  19.878  0.00  0.00    +0.000 OA
ENDROOT
BRANCH   1   4
ATOM      2  C   UNL     1       2.622   8.672  17.529  0.00  0.00    +0.000 C 
ATOM      3  C   UNL     1       2.847   7.472  18.412  0.00  0.00    +0.000 A 
ATOM      4  C   UNL     1       2.067   7.244  19.553  0.00  0.00    +0.000 A 
ATOM      5  C   UNL     1       2.261   6.094  20.317  0.00  0.00    +0.000 A 
ATOM      6  C   UNL     1       3.229   5.151  19.958  0.00  0.00    +0.000 A 
ATOM      7  C   UNL     1       4.060   5.364  18.853  0.00  0.00    +0.000 A 
ATOM      8  C   UNL     1       5.165   4.462  18.472  0.00  0.00    +0.000 A 
ATOM      9  C   UNL     1       5.957   4.845  17.473  0.00  0.00    +0.000 A 
ATOM     10  N   UNL     1       7.070   4.292  16.922  0.00  0.00    +0.000 NA
ATOM     11  N   UNL     1       7.499   5.059  16.004  0.00  0.00    +0.000 NA
ATOM     12  N   UNL     1       6.647   6.219  15.853  0.00  0.00    +0.000 NA
ATOM     13  C   UNL     1       5.732   6.054  16.753  0.00  0.00    +0.000 A 
ATOM     14  O   UNL     1       4.679   6.876  16.995  0.00  0.00    +0.000 OA
ATOM     15  C   UNL     1       3.852   6.542  18.098  0.00  0.00    +0.000 A 
BRANCH   8  16
ATOM     16  O   UNL     1       5.387   3.279  19.149  0.00  0.00    +0.000 OA
ATOM     17  H   UNL     1       5.214   2.517  18.581  0.00  0.00    +0.000 HD
ENDBRANCH   8  16
ENDBRANCH   1   4
BRANCH   1  18
ATOM     18  C   UNL     1       1.194   8.707  21.221  0.00  0.00    +0.000 C 
BRANCH  18  19
ATOM     19  C   UNL     1      -0.149   9.408  21.411  0.00  0.00    +0.000 C 
BRANCH  19  20
ATOM     20  C   UNL     1      -0.564  10.279  20.220  0.00  0.00    +0.000 C 
BRANCH  20  21
ATOM     21  N   UNL     1      -0.962  11.644  20.598  0.00  0.00    +0.000 NA
ATOM     22  C   UNL     1       0.119  12.377  21.283  0.00  0.00    +0.000 C 
ATOM     23  C   UNL     1       1.305  12.709  20.346  0.00  0.00    +0.000 C 
ATOM     24  N   UNL     1       0.924  13.617  19.246  0.00  0.00    +0.000 NA
ATOM     25  C   UNL     1      -0.248  13.040  18.540  0.00  0.00    +0.000 C 
ATOM     26  C   UNL     1      -1.387  12.442  19.419  0.00  0.00    +0.000 C 
BRANCH  24  27
ATOM     27  C   UNL     1       0.668  14.955  19.826  0.00  0.00    +0.000 C 
BRANCH  27  28
ATOM     28  C   UNL     1       0.638  16.105  18.853  0.00  0.00    +0.000 A 
ATOM     29  C   UNL     1       1.809  16.577  18.266  0.00  0.00    +0.000 A 
ATOM     30  C   UNL     1       1.717  17.642  17.379  0.00  0.00    +0.000 A 
ATOM     31  C   UNL     1       0.471  18.202  17.113  0.00  0.00    +0.000 A 
ATOM     32  C   UNL     1      -0.640  17.682  17.747  0.00  0.00    +0.000 A 
ATOM     33  N   UNL     1      -0.588  16.643  18.605  0.00  0.00    +0.000 NA
ENDBRANCH  27  28
ENDBRANCH  24  27
ENDBRANCH  20  21
ENDBRANCH  19  20
ENDBRANCH  18  19
ENDBRANCH   1  18
TORSDOF 8
ENDMDL
MODEL 4
REMARK VINA RESULT:      -8.2      6.629     11.420
REMARK  Name = 
REMARK  9 active torsions:
REMARK  status: ('A' for Active; 'I' for Inactive)
REMARK    1  A    between atoms: C_1  and  C_2
REMARK    2  A    between atoms: C_3  and  O_4
REMARK    3  A    between atoms: O_4  and  C_5
REMARK    4  A    between atoms: C_5  and  C_6
REMARK    5  A    between atoms: C_6  and  C_7
REMARK    6  A    between atoms: C_7  and  N_8
REMARK    7  A    between atoms: N_11  and  C_12
REMARK    8  A    between atoms: C_12  and  C_13
REMARK    9  A    between atoms: C_24  and  O_25
REMARK                            x       y       z     vdW  Elec       q    Type
REMARK                         _______ _______ _______ _____ _____    ______ ____
ROOT
ATOM      1  O   UNL     1       1.060   7.855  20.428  0.00  0.00    +0.000 OA
ENDROOT
BRANCH   1   4
ATOM      2  C   UNL     1       2.305   8.540  18.024  0.00  0.00    +0.000 C 
ATOM      3  C   UNL     1       2.650   7.295  18.799  0.00  0.00    +0.000 A 
ATOM      4  C   UNL     1       1.968   6.948  19.972  0.00  0.00    +0.000 A 
ATOM      5  C   UNL     1       2.272   5.760  20.635  0.00  0.00    +0.000 A 
ATOM      6  C   UNL     1       3.255   4.896  20.143  0.00  0.00    +0.000 A 
ATOM      7  C   UNL     1       3.992   5.228  19.001  0.00  0.00    +0.000 A 
ATOM      8  C   UNL     1       5.107   4.414  18.479  0.00  0.00    +0.000 A 
ATOM      9  C   UNL     1       5.805   4.907  17.458  0.00  0.00    +0.000 A 
ATOM     10  N   UNL     1       6.899   4.451  16.791  0.00  0.00    +0.000 NA
ATOM     11  N   UNL     1       7.223   5.302  15.904  0.00  0.00    +0.000 NA
ATOM     12  N   UNL     1       6.308   6.423  15.897  0.00  0.00    +0.000 NA
ATOM     13  C   UNL     1       5.470   6.148  16.845  0.00  0.00    +0.000 A 
ATOM     14  O   UNL     1       4.400   6.895  17.219  0.00  0.00    +0.000 OA
ATOM     15  C   UNL     1       3.673   6.443  18.350  0.00  0.00    +0.000 A 
BRANCH   8  16
ATOM     16  O   UNL     1       5.434   3.201  19.052  0.00  0.00    +0.000 OA
ATOM     17  H   UNL     1       5.819   2.602  18.398  0.00  0.00    +0.000 HD
ENDBRANCH   8  16
ENDBRANCH   1   4
BRANCH   1  18
ATOM     18  C   UNL     1       1.380   8.559  21.629  0.00  0.00    +0.000 C 
BRANCH  18  19
ATOM     19  C   UNL     1       0.094   9.283  22.024  0.00  0.00    +0.000 C 
BRANCH  19  20
ATOM     20  C   UNL     1      -0.217  10.506  21.156  0.00  0.00    +0.000 C 
BRANCH  20  21
ATOM     21  N   UNL     1       0.504  11.721  21.568  0.00  0.00    +0.000 NA
ATOM     22  C   UNL     1       1.305  12.300  20.474  0.00  0.00    +0.000 C 
ATOM     23  C   UNL     1       0.432  12.895  19.343  0.00  0.00    +0.000 C 
ATOM     24  N   UNL     1      -0.391  14.033  19.798  0.00  0.00    +0.000 NA
ATOM     25  C   UNL     1      -1.170  13.607  20.989  0.00  0.00    +0.000 C 
ATOM     26  C   UNL     1      -0.422  12.770  22.069  0.00  0.00    +0.000 C 
BRANCH  24  27
ATOM     27  C   UNL     1       0.513  15.176  20.059  0.00  0.00    +0.000 C 
BRANCH  27  28
ATOM     28  C   UNL     1       0.556  16.244  18.997  0.00  0.00    +0.000 A 
ATOM     29  C   UNL     1      -0.614  16.836  18.530  0.00  0.00    +0.000 A 
ATOM     30  C   UNL     1      -0.508  17.814  17.549  0.00  0.00    +0.000 A 
ATOM     31  C   UNL     1       0.749  18.162  17.064  0.00  0.00    +0.000 A 
ATOM     32  C   UNL     1       1.858  17.517  17.573  0.00  0.00    +0.000 A 
ATOM     33  N   UNL     1       1.794  16.572  18.533  0.00  0.00    +0.000 NA
ENDBRANCH  27  28
ENDBRANCH  24  27
ENDBRANCH  20  21
ENDBRANCH  19  20
ENDBRANCH  18  19
ENDBRANCH   1  18
TORSDOF 8
ENDMDL
MODEL 5
REMARK VINA RESULT:      -8.1      6.920      8.730
REMARK  Name = 
REMARK  9 active torsions:
REMARK  status: ('A' for Active; 'I' for Inactive)
REMARK    1  A    between atoms: C_1  and  C_2
REMARK    2  A    between atoms: C_3  and  O_4
REMARK    3  A    between atoms: O_4  and  C_5
REMARK    4  A    between atoms: C_5  and  C_6
REMARK    5  A    between atoms: C_6  and  C_7
REMARK    6  A    between atoms: C_7  and  N_8
REMARK    7  A    between atoms: N_11  and  C_12
REMARK    8  A    between atoms: C_12  and  C_13
REMARK    9  A    between atoms: C_24  and  O_25
REMARK                            x       y       z     vdW  Elec       q    Type
REMARK                         _______ _______ _______ _____ _____    ______ ____
ROOT
ATOM      1  O   UNL     1       1.902   7.012  20.003  0.00  0.00    +0.000 OA
ENDROOT
BRANCH   1   4
ATOM      2  C   UNL     1       1.831   9.052  18.097  0.00  0.00    +0.000 C 
ATOM      3  C   UNL     1       1.372   9.244  19.519  0.00  0.00    +0.000 A 
ATOM      4  C   UNL     1       1.474   8.219  20.468  0.00  0.00    +0.000 A 
ATOM      5  C   UNL     1       1.095   8.446  21.791  0.00  0.00    +0.000 A 
ATOM      6  C   UNL     1       0.612   9.695  22.192  0.00  0.00    +0.000 A 
ATOM      7  C   UNL     1       0.450  10.731  21.267  0.00  0.00    +0.000 A 
ATOM      8  C   UNL     1      -0.143  12.042  21.597  0.00  0.00    +0.000 A 
ATOM      9  C   UNL     1      -0.353  12.894  20.596  0.00  0.00    +0.000 A 
ATOM     10  N   UNL     1      -0.918  14.129  20.548  0.00  0.00    +0.000 NA
ATOM     11  N   UNL     1      -0.925  14.531  19.342  0.00  0.00    +0.000 NA
ATOM     12  N   UNL     1      -0.310  13.559  18.465  0.00  0.00    +0.000 NA
ATOM     13  C   UNL     1       0.021  12.589  19.256  0.00  0.00    +0.000 A 
ATOM     14  O   UNL     1       0.654  11.441  18.905  0.00  0.00    +0.000 OA
ATOM     15  C   UNL     1       0.832  10.475  19.929  0.00  0.00    +0.000 A 
BRANCH   8  16
ATOM     16  O   UNL     1      -0.496  12.358  22.895  0.00  0.00    +0.000 OA
ATOM     17  H   UNL     1      -0.144  11.708  23.517  0.00  0.00    +0.000 HD
ENDBRANCH   8  16
ENDBRANCH   1   4
BRANCH   1  18
ATOM     18  C   UNL     1       1.535   5.851  20.750  0.00  0.00    +0.000 C 
BRANCH  18  19
ATOM     19  C   UNL     1       2.136   4.675  19.984  0.00  0.00    +0.000 C 
BRANCH  19  20
ATOM     20  C   UNL     1       2.903   5.086  18.723  0.00  0.00    +0.000 C 
BRANCH  20  21
ATOM     21  N   UNL     1       3.920   4.109  18.305  0.00  0.00    +0.000 NA
ATOM     22  C   UNL     1       4.120   4.093  16.844  0.00  0.00    +0.000 C 
ATOM     23  C   UNL     1       4.783   5.388  16.317  0.00  0.00    +0.000 C 
ATOM     24  N   UNL     1       6.148   5.583  16.844  0.00  0.00    +0.000 NA
ATOM     25  C   UNL     1       6.099   5.501  18.326  0.00  0.00    +0.000 C 
ATOM     26  C   UNL     1       5.233   4.367  18.950  0.00  0.00    +0.000 C 
BRANCH  24  27
ATOM     27  C   UNL     1       7.028   4.568  16.222  0.00  0.00    +0.000 C 
BRANCH  27  28
ATOM     28  C   UNL     1       7.074   4.563  14.716  0.00  0.00    +0.000 A 
ATOM     29  C   UNL     1       6.288   3.681  13.979  0.00  0.00    +0.000 A 
ATOM     30  C   UNL     1       6.377   3.723  12.593  0.00  0.00    +0.000 A 
ATOM     31  C   UNL     1       7.243   4.631  11.992  0.00  0.00    +0.000 A 
ATOM     32  C   UNL     1       7.995   5.463  12.796  0.00  0.00    +0.000 A 
ATOM     33  N   UNL     1       7.927   5.457  14.144  0.00  0.00    +0.000 NA
ENDBRANCH  27  28
ENDBRANCH  24  27
ENDBRANCH  20  21
ENDBRANCH  19  20
ENDBRANCH  18  19
ENDBRANCH   1  18
TORSDOF 8
ENDMDL
MODEL 6
REMARK VINA RESULT:      -8.1      1.322      1.967
REMARK  Name = 
REMARK  9 active torsions:
REMARK  status: ('A' for Active; 'I' for Inactive)
REMARK    1  A    between atoms: C_1  and  C_2
REMARK    2  A    between atoms: C_3  and  O_4
REMARK    3  A    between atoms: O_4  and  C_5
REMARK    4  A    between atoms: C_5  and  C_6
REMARK    5  A    between atoms: C_6  and  C_7
REMARK    6  A    between atoms: C_7  and  N_8
REMARK    7  A    between atoms: N_11  and  C_12
REMARK    8  A    between atoms: C_12  and  C_13
REMARK    9  A    between atoms: C_24  and  O_25
REMARK                            x       y       z     vdW  Elec       q    Type
REMARK                         _______ _______ _______ _____ _____    ______ ____
ROOT
ATOM      1  O   UNL     1       9.542   9.898  18.371  0.00  0.00    +0.000 OA
ENDROOT
BRANCH   1   4
ATOM      2  C   UNL     1      11.125  12.026  17.495  0.00  0.00    +0.000 C 
ATOM      3  C   UNL     1      10.424  12.022  18.829  0.00  0.00    +0.000 A 
ATOM      4  C   UNL     1       9.685  10.915  19.266  0.00  0.00    +0.000 A 
ATOM      5  C   UNL     1       9.097  10.919  20.530  0.00  0.00    +0.000 A 
ATOM      6  C   UNL     1       9.236  12.020  21.381  0.00  0.00    +0.000 A 
ATOM      7  C   UNL     1       9.927  13.163  20.965  0.00  0.00    +0.000 A 
ATOM      8  C   UNL     1      10.033  14.396  21.770  0.00  0.00    +0.000 A 
ATOM      9  C   UNL     1      10.612  15.453  21.205  0.00  0.00    +0.000 A 
ATOM     10  N   UNL     1      10.816  16.726  21.637  0.00  0.00    +0.000 NA
ATOM     11  N   UNL     1      11.387  17.386  20.713  0.00  0.00    +0.000 NA
ATOM     12  N   UNL     1      11.641  16.555  19.558  0.00  0.00    +0.000 NA
ATOM     13  C   UNL     1      11.161  15.400  19.892  0.00  0.00    +0.000 A 
ATOM     14  O   UNL     1      11.178  14.270  19.140  0.00  0.00    +0.000 OA
ATOM     15  C   UNL     1      10.507  13.140  19.675  0.00  0.00    +0.000 A 
BRANCH   8  16
ATOM     16  O   UNL     1       9.520  14.458  23.051  0.00  0.00    +0.000 OA
ATOM     17  H   UNL     1       9.878  13.750  23.602  0.00  0.00    +0.000 HD
ENDBRANCH   8  16
ENDBRANCH   1   4
BRANCH   1  18
ATOM     18  C   UNL     1       8.222   9.403  18.143  0.00  0.00    +0.000 C 
BRANCH  18  19
ATOM     19  C   UNL     1       8.305   7.902  18.411  0.00  0.00    +0.000 C 
BRANCH  19  20
ATOM     20  C   UNL     1       7.471   7.055  17.444  0.00  0.00    +0.000 C 
BRANCH  20  21
ATOM     21  N   UNL     1       7.359   5.643  17.842  0.00  0.00    +0.000 NA
ATOM     22  C   UNL     1       6.432   5.447  18.972  0.00  0.00    +0.000 C 
ATOM     23  C   UNL     1       4.958   5.720  18.591  0.00  0.00    +0.000 C 
ATOM     24  N   UNL     1       4.451   4.780  17.570  0.00  0.00    +0.000 NA
ATOM     25  C   UNL     1       5.378   4.797  16.410  0.00  0.00    +0.000 C 
ATOM     26  C   UNL     1       6.905   4.786  16.717  0.00  0.00    +0.000 C 
BRANCH  24  27
ATOM     27  C   UNL     1       4.316   3.448  18.202  0.00  0.00    +0.000 C 
BRANCH  27  28
ATOM     28  C   UNL     1       3.199   3.299  19.203  0.00  0.00    +0.000 A 
ATOM     29  C   UNL     1       1.891   3.640  18.872  0.00  0.00    +0.000 A 
ATOM     30  C   UNL     1       0.906   3.482  19.840  0.00  0.00    +0.000 A 
ATOM     31  C   UNL     1       1.256   2.999  21.097  0.00  0.00    +0.000 A 
ATOM     32  C   UNL     1       2.579   2.695  21.347  0.00  0.00    +0.000 A 
ATOM     33  N   UNL     1       3.559   2.826  20.428  0.00  0.00    +0.000 NA
ENDBRANCH  27  28
ENDBRANCH  24  27
ENDBRANCH  20  21
ENDBRANCH  19  20
ENDBRANCH  18  19
ENDBRANCH   1  18
TORSDOF 8
ENDMDL
MODEL 7
REMARK VINA RESULT:      -8.0      6.504     11.170
REMARK  Name = 
REMARK  9 active torsions:
REMARK  status: ('A' for Active; 'I' for Inactive)
REMARK    1  A    between atoms: C_1  and  C_2
REMARK    2  A    between atoms: C_3  and  O_4
REMARK    3  A    between atoms: O_4  and  C_5
REMARK    4  A    between atoms: C_5  and  C_6
REMARK    5  A    between atoms: C_6  and  C_7
REMARK    6  A    between atoms: C_7  and  N_8
REMARK    7  A    between atoms: N_11  and  C_12
REMARK    8  A    between atoms: C_12  and  C_13
REMARK    9  A    between atoms: C_24  and  O_25
REMARK                            x       y       z     vdW  Elec       q    Type
REMARK                         _______ _______ _______ _____ _____    ______ ____
ROOT
ATOM      1  O   UNL     1       1.112   7.967  20.160  0.00  0.00    +0.000 OA
ENDROOT
BRANCH   1   4
ATOM      2  C   UNL     1       2.489   8.579  17.809  0.00  0.00    +0.000 C 
ATOM      3  C   UNL     1       2.760   7.337  18.617  0.00  0.00    +0.000 A 
ATOM      4  C   UNL     1       2.013   7.027  19.760  0.00  0.00    +0.000 A 
ATOM      5  C   UNL     1       2.249   5.841  20.453  0.00  0.00    +0.000 A 
ATOM      6  C   UNL     1       3.228   4.941  20.021  0.00  0.00    +0.000 A 
ATOM      7  C   UNL     1       4.028   5.234  18.911  0.00  0.00    +0.000 A 
ATOM      8  C   UNL     1       5.143   4.380  18.454  0.00  0.00    +0.000 A 
ATOM      9  C   UNL     1       5.902   4.837  17.461  0.00  0.00    +0.000 A 
ATOM     10  N   UNL     1       7.013   4.340  16.854  0.00  0.00    +0.000 NA
ATOM     11  N   UNL     1       7.404   5.168  15.972  0.00  0.00    +0.000 NA
ATOM     12  N   UNL     1       6.524   6.314  15.906  0.00  0.00    +0.000 NA
ATOM     13  C   UNL     1       5.634   6.079  16.816  0.00  0.00    +0.000 A 
ATOM     14  O   UNL     1       4.570   6.862  17.128  0.00  0.00    +0.000 OA
ATOM     15  C   UNL     1       3.777   6.448  18.229  0.00  0.00    +0.000 A 
BRANCH   8  16
ATOM     16  O   UNL     1       5.405   3.167  19.059  0.00  0.00    +0.000 OA
ATOM     17  H   UNL     1       4.960   2.445  18.595  0.00  0.00    +0.000 HD
ENDBRANCH   8  16
ENDBRANCH   1   4
BRANCH   1  18
ATOM     18  C   UNL     1       1.258   8.501  21.476  0.00  0.00    +0.000 C 
BRANCH  18  19
ATOM     19  C   UNL     1      -0.132   8.999  21.864  0.00  0.00    +0.000 C 
BRANCH  19  20
ATOM     20  C   UNL     1      -0.192  10.503  22.152  0.00  0.00    +0.000 C 
BRANCH  20  21
ATOM     21  N   UNL     1      -1.036  11.252  21.208  0.00  0.00    +0.000 NA
ATOM     22  C   UNL     1      -0.951  12.710  21.410  0.00  0.00    +0.000 C 
ATOM     23  C   UNL     1       0.432  13.288  21.026  0.00  0.00    +0.000 C 
ATOM     24  N   UNL     1       0.737  13.127  19.590  0.00  0.00    +0.000 NA
ATOM     25  C   UNL     1       0.570  11.696  19.229  0.00  0.00    +0.000 C 
ATOM     26  C   UNL     1      -0.679  10.959  19.796  0.00  0.00    +0.000 C 
BRANCH  24  27
ATOM     27  C   UNL     1      -0.147  14.039  18.830  0.00  0.00    +0.000 C 
BRANCH  27  28
ATOM     28  C   UNL     1       0.234  15.497  18.843  0.00  0.00    +0.000 A 
ATOM     29  C   UNL     1      -0.704  16.478  19.153  0.00  0.00    +0.000 A 
ATOM     30  C   UNL     1      -0.292  17.805  19.147  0.00  0.00    +0.000 A 
ATOM     31  C   UNL     1       1.028  18.109  18.828  0.00  0.00    +0.000 A 
ATOM     32  C   UNL     1       1.892  17.076  18.522  0.00  0.00    +0.000 A 
ATOM     33  N   UNL     1       1.529  15.776  18.528  0.00  0.00    +0.000 NA
ENDBRANCH  27  28
ENDBRANCH  24  27
ENDBRANCH  20  21
ENDBRANCH  19  20
ENDBRANCH  18  19
ENDBRANCH   1  18
TORSDOF 8
ENDMDL
MODEL 8
REMARK VINA RESULT:      -7.9      2.842     12.138
REMARK  Name = 
REMARK  9 active torsions:
REMARK  status: ('A' for Active; 'I' for Inactive)
REMARK    1  A    between atoms: C_1  and  C_2
REMARK    2  A    between atoms: C_3  and  O_4
REMARK    3  A    between atoms: O_4  and  C_5
REMARK    4  A    between atoms: C_5  and  C_6
REMARK    5  A    between atoms: C_6  and  C_7
REMARK    6  A    between atoms: C_7  and  N_8
REMARK    7  A    between atoms: N_11  and  C_12
REMARK    8  A    between atoms: C_12  and  C_13
REMARK    9  A    between atoms: C_24  and  O_25
REMARK                            x       y       z     vdW  Elec       q    Type
REMARK                         _______ _______ _______ _____ _____    ______ ____
ROOT
ATOM      1  O   UNL     1       7.570   7.699  17.053  0.00  0.00    +0.000 OA
ENDROOT
BRANCH   1   4
ATOM      2  C   UNL     1       4.894   7.412  16.308  0.00  0.00    +0.000 C 
ATOM      3  C   UNL     1       5.584   6.470  17.260  0.00  0.00    +0.000 A 
ATOM      4  C   UNL     1       6.910   6.673  17.661  0.00  0.00    +0.000 A 
ATOM      5  C   UNL     1       7.502   5.817  18.588  0.00  0.00    +0.000 A 
ATOM      6  C   UNL     1       6.785   4.748  19.136  0.00  0.00    +0.000 A 
ATOM      7  C   UNL     1       5.474   4.483  18.728  0.00  0.00    +0.000 A 
ATOM      8  C   UNL     1       4.691   3.320  19.188  0.00  0.00    +0.000 A 
ATOM      9  C   UNL     1       3.501   3.116  18.627  0.00  0.00    +0.000 A 
ATOM     10  N   UNL     1       2.573   2.134  18.778  0.00  0.00    +0.000 NA
ATOM     11  N   UNL     1       1.603   2.361  17.987  0.00  0.00    +0.000 NA
ATOM     12  N   UNL     1       1.813   3.581  17.241  0.00  0.00    +0.000 NA
ATOM     13  C   UNL     1       2.964   4.006  17.653  0.00  0.00    +0.000 A 
ATOM     14  O   UNL     1       3.595   5.142  17.259  0.00  0.00    +0.000 OA
ATOM     15  C   UNL     1       4.897   5.359  17.778  0.00  0.00    +0.000 A 
BRANCH   8  16
ATOM     16  O   UNL     1       5.190   2.456  20.143  0.00  0.00    +0.000 OA
ATOM     17  H   UNL     1       6.084   2.168  19.915  0.00  0.00    +0.000 HD
ENDBRANCH   8  16
ENDBRANCH   1   4
BRANCH   1  18
ATOM     18  C   UNL     1       7.440   8.998  17.630  0.00  0.00    +0.000 C 
BRANCH  18  19
ATOM     19  C   UNL     1       8.643   9.147  18.558  0.00  0.00    +0.000 C 
BRANCH  19  20
ATOM     20  C   UNL     1       9.541  10.341  18.218  0.00  0.00    +0.000 C 
BRANCH  20  21
ATOM     21  N   UNL     1       9.152  11.585  18.901  0.00  0.00    +0.000 NA
ATOM     22  C   UNL     1      10.134  11.999  19.920  0.00  0.00    +0.000 C 
ATOM     23  C   UNL     1      11.478  12.457  19.306  0.00  0.00    +0.000 C 
ATOM     24  N   UNL     1      11.338  13.661  18.463  0.00  0.00    +0.000 NA
ATOM     25  C   UNL     1      10.278  13.411  17.454  0.00  0.00    +0.000 C 
ATOM     26  C   UNL     1       8.977  12.709  17.945  0.00  0.00    +0.000 C 
BRANCH  24  27
ATOM     27  C   UNL     1      11.052  14.810  19.352  0.00  0.00    +0.000 C 
BRANCH  27  28
ATOM     28  C   UNL     1      10.827  16.136  18.671  0.00  0.00    +0.000 A 
ATOM     29  C   UNL     1      11.867  16.790  18.016  0.00  0.00    +0.000 A 
ATOM     30  C   UNL     1      11.597  18.009  17.409  0.00  0.00    +0.000 A 
ATOM     31  C   UNL     1      10.311  18.537  17.479  0.00  0.00    +0.000 A 
ATOM     32  C   UNL     1       9.339  17.829  18.159  0.00  0.00    +0.000 A 
ATOM     33  N   UNL     1       9.564  16.637  18.750  0.00  0.00    +0.000 NA
ENDBRANCH  27  28
ENDBRANCH  24  27
ENDBRANCH  20  21
ENDBRANCH  19  20
ENDBRANCH  18  19
ENDBRANCH   1  18
TORSDOF 8
ENDMDL
MODEL 9
REMARK VINA RESULT:      -7.9      2.731     11.974
REMARK  Name = 
REMARK  9 active torsions:
REMARK  status: ('A' for Active; 'I' for Inactive)
REMARK    1  A    between atoms: C_1  and  C_2
REMARK    2  A    between atoms: C_3  and  O_4
REMARK    3  A    between atoms: O_4  and  C_5
REMARK    4  A    between atoms: C_5  and  C_6
REMARK    5  A    between atoms: C_6  and  C_7
REMARK    6  A    between atoms: C_7  and  N_8
REMARK    7  A    between atoms: N_11  and  C_12
REMARK    8  A    between atoms: C_12  and  C_13
REMARK    9  A    between atoms: C_24  and  O_25
REMARK                            x       y       z     vdW  Elec       q    Type
REMARK                         _______ _______ _______ _____ _____    ______ ____
ROOT
ATOM      1  O   UNL     1       7.769   7.768  17.304  0.00  0.00    +0.000 OA
ENDROOT
BRANCH   1   4
ATOM      2  C   UNL     1       8.088   5.445  18.820  0.00  0.00    +0.000 C 
ATOM      3  C   UNL     1       6.779   5.835  18.185  0.00  0.00    +0.000 A 
ATOM      4  C   UNL     1       6.664   6.976  17.382  0.00  0.00    +0.000 A 
ATOM      5  C   UNL     1       5.453   7.278  16.761  0.00  0.00    +0.000 A 
ATOM      6  C   UNL     1       4.338   6.451  16.925  0.00  0.00    +0.000 A 
ATOM      7  C   UNL     1       4.397   5.327  17.756  0.00  0.00    +0.000 A 
ATOM      8  C   UNL     1       3.237   4.463  18.053  0.00  0.00    +0.000 A 
ATOM      9  C   UNL     1       3.401   3.500  18.958  0.00  0.00    +0.000 A 
ATOM     10  N   UNL     1       2.545   2.588  19.490  0.00  0.00    +0.000 NA
ATOM     11  N   UNL     1       3.168   1.896  20.355  0.00  0.00    +0.000 NA
ATOM     12  N   UNL     1       4.554   2.298  20.444  0.00  0.00    +0.000 NA
ATOM     13  C   UNL     1       4.656   3.264  19.589  0.00  0.00    +0.000 A 
ATOM     14  O   UNL     1       5.781   3.962  19.288  0.00  0.00    +0.000 OA
ATOM     15  C   UNL     1       5.634   5.045  18.384  0.00  0.00    +0.000 A 
BRANCH   8  16
ATOM     16  O   UNL     1       2.018   4.669  17.438  0.00  0.00    +0.000 OA
ATOM     17  H   UNL     1       1.776   5.605  17.454  0.00  0.00    +0.000 HD
ENDBRANCH   8  16
ENDBRANCH   1   4
BRANCH   1  18
ATOM     18  C   UNL     1       7.616   9.147  17.645  0.00  0.00    +0.000 C 
BRANCH  18  19
ATOM     19  C   UNL     1       8.758   9.450  18.613  0.00  0.00    +0.000 C 
BRANCH  19  20
ATOM     20  C   UNL     1       9.631  10.633  18.185  0.00  0.00    +0.000 C 
BRANCH  20  21
ATOM     21  N   UNL     1       9.220  11.916  18.777  0.00  0.00    +0.000 NA
ATOM     22  C   UNL     1      10.024  12.275  19.960  0.00  0.00    +0.000 C 
ATOM     23  C   UNL     1      11.490  12.619  19.604  0.00  0.00    +0.000 C 
ATOM     24  N   UNL     1      11.601  13.814  18.744  0.00  0.00    +0.000 NA
ATOM     25  C   UNL     1      10.730  13.625  17.556  0.00  0.00    +0.000 C 
ATOM     26  C   UNL     1       9.311  13.031  17.800  0.00  0.00    +0.000 C 
BRANCH  24  27
ATOM     27  C   UNL     1      11.245  14.998  19.558  0.00  0.00    +0.000 C 
BRANCH  27  28
ATOM     28  C   UNL     1      10.971  16.269  18.797  0.00  0.00    +0.000 A 
ATOM     29  C   UNL     1      12.003  16.972  18.181  0.00  0.00    +0.000 A 
ATOM     30  C   UNL     1      11.686  18.138  17.495  0.00  0.00    +0.000 A 
ATOM     31  C   UNL     1      10.363  18.566  17.451  0.00  0.00    +0.000 A 
ATOM     32  C   UNL     1       9.401  17.817  18.099  0.00  0.00    +0.000 A 
ATOM     33  N   UNL     1       9.671  16.674  18.765  0.00  0.00    +0.000 NA
ENDBRANCH  27  28
ENDBRANCH  24  27
ENDBRANCH  20  21
ENDBRANCH  19  20
ENDBRANCH  18  19
ENDBRANCH   1  18
TORSDOF 8
ENDMDL
