MODEL 1
REMARK VINA RESULT:      -8.0      0.000      0.000
REMARK  Name = 
REMARK  8 active torsions:
REMARK  status: ('A' for Active; 'I' for Inactive)
REMARK    1  A    between atoms: C_1  and  O_2
REMARK    2  A    between atoms: O_2  and  C_3
REMARK    3  A    between atoms: C_7  and  C_8
REMARK    4  A    between atoms: C_8  and  N_9
REMARK    5  A    between atoms: N_12  and  C_13
REMARK    6  A    between atoms: C_13  and  C_14
REMARK    7  A    between atoms: C_16  and  C_17
REMARK    8  A    between atoms: C_26  and  C_27
REMARK                            x       y       z     vdW  Elec       q    Type
REMARK                         _______ _______ _______ _____ _____    ______ ____
ROOT
ATOM      1  N   UNL     1      -0.226  11.632  18.940  0.00  0.00    +0.000 N 
ATOM      2  C   UNL     1      -0.904  10.392  18.572  0.00  0.00    +0.000 C 
ATOM      3  C   UNL     1      -0.118   9.542  17.567  0.00  0.00    +0.000 C 
ATOM      4  N   UNL     1       1.308   9.396  17.906  0.00  0.00    +0.000 NA
ATOM      5  C   UNL     1       1.895  10.758  17.969  0.00  0.00    +0.000 C 
ATOM      6  C   UNL     1       1.159  11.739  18.900  0.00  0.00    +0.000 C 
ATOM      7  O   UNL     1       1.774  12.640  19.472  0.00  0.00    +0.000 OA
ENDROOT
BRANCH   1   8
ATOM      8  C   UNL     1      -1.021  12.734  19.471  0.00  0.00    +0.000 C 
BRANCH   8  13
ATOM      9  C   UNL     1      -3.501  12.367  22.353  0.00  0.00    +0.000 A 
ATOM     10  C   UNL     1      -2.669  11.862  23.355  0.00  0.00    +0.000 A 
ATOM     11  C   UNL     1      -1.330  11.578  23.090  0.00  0.00    +0.000 A 
ATOM     12  C   UNL     1      -0.804  11.825  21.822  0.00  0.00    +0.000 A 
ATOM     13  C   UNL     1      -1.622  12.333  20.804  0.00  0.00    +0.000 A 
ATOM     14  C   UNL     1      -2.980  12.575  21.075  0.00  0.00    +0.000 A 
BRANCH   9  16
ATOM     15  C   UNL     1      -5.527  13.544  21.949  0.00  0.00    +0.000 C 
ATOM     16  O   UNL     1      -4.779  12.641  22.753  0.00  0.00    +0.000 OA
ENDBRANCH   9  16
ENDBRANCH   8  13
ENDBRANCH   1   8
BRANCH   4  17
ATOM     17  C   UNL     1       1.556   8.685  19.174  0.00  0.00    +0.000 C 
BRANCH  17  18
ATOM     18  C   UNL     1       2.450   7.496  18.999  0.00  0.00    +0.000 A 
ATOM     19  N   UNL     1       3.461   7.513  18.050  0.00  0.00    +0.000 NA
ATOM     20  C   UNL     1       4.019   6.324  18.148  0.00  0.00    +0.000 A 
ATOM     21  O   UNL     1       3.441   5.514  19.082  0.00  0.00    +0.000 OA
ATOM     22  C   UNL     1       2.440   6.262  19.625  0.00  0.00    +0.000 A 
ATOM     23  C   UNL     1       1.656   5.597  20.679  0.00  0.00    +0.000 C 
BRANCH  20  24
ATOM     24  C   UNL     1       5.097   5.722  17.377  0.00  0.00    +0.000 A 
ATOM     25  C   UNL     1       4.978   5.593  15.980  0.00  0.00    +0.000 A 
ATOM     26  C   UNL     1       5.987   4.978  15.231  0.00  0.00    +0.000 A 
ATOM     27  C   UNL     1       7.131   4.496  15.868  0.00  0.00    +0.000 A 
ATOM     28  C   UNL     1       7.256   4.637  17.245  0.00  0.00    +0.000 A 
ATOM     29  F   UNL     1       8.362   4.178  17.850  0.00  0.00    +0.000 F 
ATOM     30  C   UNL     1       6.256   5.240  17.992  0.00  0.00    +0.000 A 
ATOM     31  F   UNL     1       6.439   5.370  19.317  0.00  0.00    +0.000 F 
ENDBRANCH  20  24
ENDBRANCH  17  18
ENDBRANCH   4  17
TORSDOF 6
ENDMDL
MODEL 2
REMARK VINA RESULT:      -7.9      3.569      9.852
REMARK  Name = 
REMARK  8 active torsions:
REMARK  status: ('A' for Active; 'I' for Inactive)
REMARK    1  A    between atoms: C_1  and  O_2
REMARK    2  A    between atoms: O_2  and  C_3
REMARK    3  A    between atoms: C_7  and  C_8
REMARK    4  A    between atoms: C_8  and  N_9
REMARK    5  A    between atoms: N_12  and  C_13
REMARK    6  A    between atoms: C_13  and  C_14
REMARK    7  A    between atoms: C_16  and  C_17
REMARK    8  A    between atoms: C_26  and  C_27
REMARK                            x       y       z     vdW  Elec       q    Type
REMARK                         _______ _______ _______ _____ _____    ______ ____
ROOT
ATOM      1  N   UNL     1       3.271   3.434  18.413  0.00  0.00    +0.000 N 
ATOM      2  C   UNL     1       2.410   4.509  17.925  0.00  0.00    +0.000 C 
ATOM      3  C   UNL     1       1.224   4.807  18.850  0.00  0.00    +0.000 C 
ATOM      4  N   UNL     1       1.595   4.902  20.273  0.00  0.00    +0.000 NA
ATOM      5  C   UNL     1       2.214   3.609  20.661  0.00  0.00    +0.000 C 
ATOM      6  C   UNL     1       3.384   3.157  19.769  0.00  0.00    +0.000 C 
ATOM      7  O   UNL     1       4.301   2.479  20.236  0.00  0.00    +0.000 OA
ENDROOT
BRANCH   1   8
ATOM      8  C   UNL     1       4.114   2.725  17.456  0.00  0.00    +0.000 C 
BRANCH   8  13
ATOM      9  C   UNL     1       6.802   5.428  17.222  0.00  0.00    +0.000 A 
ATOM     10  C   UNL     1       6.848   5.636  15.842  0.00  0.00    +0.000 A 
ATOM     11  C   UNL     1       6.067   4.867  14.981  0.00  0.00    +0.000 A 
ATOM     12  C   UNL     1       5.208   3.898  15.500  0.00  0.00    +0.000 A 
ATOM     13  C   UNL     1       5.146   3.675  16.882  0.00  0.00    +0.000 A 
ATOM     14  C   UNL     1       5.970   4.430  17.734  0.00  0.00    +0.000 A 
BRANCH   9  16
ATOM     15  C   UNL     1       7.937   5.855  19.268  0.00  0.00    +0.000 C 
ATOM     16  O   UNL     1       7.584   6.276  17.957  0.00  0.00    +0.000 OA
ENDBRANCH   9  16
ENDBRANCH   8  13
ENDBRANCH   1   8
BRANCH   4  17
ATOM     17  C   UNL     1       2.516   6.011  20.583  0.00  0.00    +0.000 C 
BRANCH  17  18
ATOM     18  C   UNL     1       1.956   7.345  20.198  0.00  0.00    +0.000 A 
ATOM     19  N   UNL     1       1.060   7.997  21.031  0.00  0.00    +0.000 NA
ATOM     20  C   UNL     1       0.759   9.104  20.385  0.00  0.00    +0.000 A 
ATOM     21  O   UNL     1       1.379   9.227  19.176  0.00  0.00    +0.000 OA
ATOM     22  C   UNL     1       2.143   8.105  19.056  0.00  0.00    +0.000 A 
ATOM     23  C   UNL     1       2.925   8.004  17.813  0.00  0.00    +0.000 C 
BRANCH  20  24
ATOM     24  C   UNL     1      -0.172  10.170  20.723  0.00  0.00    +0.000 A 
ATOM     25  C   UNL     1      -0.871  10.845  19.703  0.00  0.00    +0.000 A 
ATOM     26  C   UNL     1      -1.738  11.900  20.009  0.00  0.00    +0.000 A 
ATOM     27  C   UNL     1      -1.924  12.285  21.338  0.00  0.00    +0.000 A 
ATOM     28  C   UNL     1      -1.246  11.609  22.346  0.00  0.00    +0.000 A 
ATOM     29  F   UNL     1      -1.436  11.979  23.621  0.00  0.00    +0.000 F 
ATOM     30  C   UNL     1      -0.382  10.567  22.046  0.00  0.00    +0.000 A 
ATOM     31  F   UNL     1       0.231   9.935  23.062  0.00  0.00    +0.000 F 
ENDBRANCH  20  24
ENDBRANCH  17  18
ENDBRANCH   4  17
TORSDOF 6
ENDMDL
MODEL 3
REMARK VINA RESULT:      -7.8      3.627     10.030
REMARK  Name = 
REMARK  8 active torsions:
REMARK  status: ('A' for Active; 'I' for Inactive)
REMARK    1  A    between atoms: C_1  and  O_2
REMARK    2  A    between atoms: O_2  and  C_3
REMARK    3  A    between atoms: C_7  and  C_8
REMARK    4  A    between atoms: C_8  and  N_9
REMARK    5  A    between atoms: N_12  and  C_13
REMARK    6  A    between atoms: C_13  and  C_14
REMARK    7  A    between atoms: C_16  and  C_17
REMARK    8  A    between atoms: C_26  and  C_27
REMARK                            x       y       z     vdW  Elec       q    Type
REMARK                         _______ _______ _______ _____ _____    ______ ____
ROOT
ATOM      1  N   UNL     1       3.431   3.487  18.195  0.00  0.00    +0.000 N 
ATOM      2  C   UNL     1       2.594   4.544  17.632  0.00  0.00    +0.000 C 
ATOM      3  C   UNL     1       1.372   4.879  18.494  0.00  0.00    +0.000 C 
ATOM      4  N   UNL     1       1.684   5.026  19.927  0.00  0.00    +0.000 NA
ATOM      5  C   UNL     1       2.282   3.748  20.389  0.00  0.00    +0.000 C 
ATOM      6  C   UNL     1       3.486   3.260  19.564  0.00  0.00    +0.000 C 
ATOM      7  O   UNL     1       4.381   2.599  20.094  0.00  0.00    +0.000 OA
ENDROOT
BRANCH   1   8
ATOM      8  C   UNL     1       4.311   2.741  17.301  0.00  0.00    +0.000 C 
BRANCH   8  13
ATOM      9  C   UNL     1       6.981   5.434  16.849  0.00  0.00    +0.000 A 
ATOM     10  C   UNL     1       6.912   5.646  15.471  0.00  0.00    +0.000 A 
ATOM     11  C   UNL     1       6.058   4.882  14.676  0.00  0.00    +0.000 A 
ATOM     12  C   UNL     1       5.241   3.915  15.263  0.00  0.00    +0.000 A 
ATOM     13  C   UNL     1       5.295   3.688  16.645  0.00  0.00    +0.000 A 
ATOM     14  C   UNL     1       6.191   4.438  17.426  0.00  0.00    +0.000 A 
BRANCH   9  16
ATOM     15  C   UNL     1       7.825   6.198  18.937  0.00  0.00    +0.000 C 
ATOM     16  O   UNL     1       7.826   6.276  17.518  0.00  0.00    +0.000 OA
ENDBRANCH   9  16
ENDBRANCH   8  13
ENDBRANCH   1   8
BRANCH   4  17
ATOM     17  C   UNL     1       2.595   6.144  20.233  0.00  0.00    +0.000 C 
BRANCH  17  18
ATOM     18  C   UNL     1       1.932   7.479  20.087  0.00  0.00    +0.000 A 
ATOM     19  N   UNL     1       1.162   7.997  21.116  0.00  0.00    +0.000 NA
ATOM     20  C   UNL     1       0.721   9.146  20.648  0.00  0.00    +0.000 A 
ATOM     21  O   UNL     1       1.130   9.420  19.375  0.00  0.00    +0.000 OA
ATOM     22  C   UNL     1       1.904   8.357  19.017  0.00  0.00    +0.000 A 
ATOM     23  C   UNL     1       2.475   8.421  17.662  0.00  0.00    +0.000 C 
BRANCH  20  24
ATOM     24  C   UNL     1      -0.180  10.123  21.241  0.00  0.00    +0.000 A 
ATOM     25  C   UNL     1      -0.393  10.131  22.633  0.00  0.00    +0.000 A 
ATOM     26  C   UNL     1      -1.288  11.037  23.213  0.00  0.00    +0.000 A 
ATOM     27  C   UNL     1      -1.971  11.952  22.410  0.00  0.00    +0.000 A 
ATOM     28  C   UNL     1      -1.749  11.954  21.038  0.00  0.00    +0.000 A 
ATOM     29  F   UNL     1      -2.402  12.841  20.273  0.00  0.00    +0.000 F 
ATOM     30  C   UNL     1      -0.867  11.054  20.459  0.00  0.00    +0.000 A 
ATOM     31  F   UNL     1      -0.674  11.116  19.130  0.00  0.00    +0.000 F 
ENDBRANCH  20  24
ENDBRANCH  17  18
ENDBRANCH   4  17
TORSDOF 6
ENDMDL
MODEL 4
REMARK VINA RESULT:      -7.5      3.544     10.179
REMARK  Name = 
REMARK  8 active torsions:
REMARK  status: ('A' for Active; 'I' for Inactive)
REMARK    1  A    between atoms: C_1  and  O_2
REMARK    2  A    between atoms: O_2  and  C_3
REMARK    3  A    between atoms: C_7  and  C_8
REMARK    4  A    between atoms: C_8  and  N_9
REMARK    5  A    between atoms: N_12  and  C_13
REMARK    6  A    between atoms: C_13  and  C_14
REMARK    7  A    between atoms: C_16  and  C_17
REMARK    8  A    between atoms: C_26  and  C_27
REMARK                            x       y       z     vdW  Elec       q    Type
REMARK                         _______ _______ _______ _____ _____    ______ ____
ROOT
ATOM      1  N   UNL     1       3.468   3.385  18.253  0.00  0.00    +0.000 N 
ATOM      2  C   UNL     1       2.609   4.440  17.720  0.00  0.00    +0.000 C 
ATOM      3  C   UNL     1       1.404   4.754  18.613  0.00  0.00    +0.000 C 
ATOM      4  N   UNL     1       1.746   4.890  20.040  0.00  0.00    +0.000 NA
ATOM      5  C   UNL     1       2.367   3.613  20.475  0.00  0.00    +0.000 C 
ATOM      6  C   UNL     1       3.557   3.145  19.618  0.00  0.00    +0.000 C 
ATOM      7  O   UNL     1       4.469   2.487  20.120  0.00  0.00    +0.000 OA
ENDROOT
BRANCH   1   8
ATOM      8  C   UNL     1       4.334   2.657  17.332  0.00  0.00    +0.000 C 
BRANCH   8  13
ATOM      9  C   UNL     1       6.459   4.412  14.688  0.00  0.00    +0.000 A 
ATOM     10  C   UNL     1       7.310   5.171  15.494  0.00  0.00    +0.000 A 
ATOM     11  C   UNL     1       7.162   5.172  16.880  0.00  0.00    +0.000 A 
ATOM     12  C   UNL     1       6.175   4.387  17.474  0.00  0.00    +0.000 A 
ATOM     13  C   UNL     1       5.312   3.616  16.683  0.00  0.00    +0.000 A 
ATOM     14  C   UNL     1       5.447   3.658  15.285  0.00  0.00    +0.000 A 
BRANCH   9  16
ATOM     15  C   UNL     1       7.871   5.227  12.956  0.00  0.00    +0.000 C 
ATOM     16  O   UNL     1       6.736   4.467  13.349  0.00  0.00    +0.000 OA
ENDBRANCH   9  16
ENDBRANCH   8  13
ENDBRANCH   1   8
BRANCH   4  17
ATOM     17  C   UNL     1       2.654   6.014  20.337  0.00  0.00    +0.000 C 
BRANCH  17  18
ATOM     18  C   UNL     1       2.054   7.341  19.991  0.00  0.00    +0.000 A 
ATOM     19  N   UNL     1       1.176   7.964  20.865  0.00  0.00    +0.000 NA
ATOM     20  C   UNL     1       0.831   9.073  20.244  0.00  0.00    +0.000 A 
ATOM     21  O   UNL     1       1.403   9.223  19.015  0.00  0.00    +0.000 OA
ATOM     22  C   UNL     1       2.184   8.118  18.853  0.00  0.00    +0.000 A 
ATOM     23  C   UNL     1       2.921   8.047  17.580  0.00  0.00    +0.000 C 
BRANCH  20  24
ATOM     24  C   UNL     1      -0.108  10.117  20.630  0.00  0.00    +0.000 A 
ATOM     25  C   UNL     1      -0.818  10.826  19.642  0.00  0.00    +0.000 A 
ATOM     26  C   UNL     1      -1.692  11.860  19.995  0.00  0.00    +0.000 A 
ATOM     27  C   UNL     1      -1.874  12.189  21.338  0.00  0.00    +0.000 A 
ATOM     28  C   UNL     1      -1.186  11.479  22.315  0.00  0.00    +0.000 A 
ATOM     29  F   UNL     1      -1.372  11.795  23.605  0.00  0.00    +0.000 F 
ATOM     30  C   UNL     1      -0.314  10.457  21.969  0.00  0.00    +0.000 A 
ATOM     31  F   UNL     1       0.309   9.789  22.955  0.00  0.00    +0.000 F 
ENDBRANCH  20  24
ENDBRANCH  17  18
ENDBRANCH   4  17
TORSDOF 6
ENDMDL
MODEL 5
REMARK VINA RESULT:      -7.5      2.717      3.650
REMARK  Name = 
REMARK  8 active torsions:
REMARK  status: ('A' for Active; 'I' for Inactive)
REMARK    1  A    between atoms: C_1  and  O_2
REMARK    2  A    between atoms: O_2  and  C_3
REMARK    3  A    between atoms: C_7  and  C_8
REMARK    4  A    between atoms: C_8  and  N_9
REMARK    5  A    between atoms: N_12  and  C_13
REMARK    6  A    between atoms: C_13  and  C_14
REMARK    7  A    between atoms: C_16  and  C_17
REMARK    8  A    between atoms: C_26  and  C_27
REMARK                            x       y       z     vdW  Elec       q    Type
REMARK                         _______ _______ _______ _____ _____    ______ ____
ROOT
ATOM      1  N   UNL     1      -0.727  11.605  21.834  0.00  0.00    +0.000 N 
ATOM      2  C   UNL     1      -0.336  10.768  22.966  0.00  0.00    +0.000 C 
ATOM      3  C   UNL     1      -0.627   9.278  22.751  0.00  0.00    +0.000 C 
ATOM      4  N   UNL     1      -0.205   8.779  21.431  0.00  0.00    +0.000 NA
ATOM      5  C   UNL     1      -0.919   9.577  20.402  0.00  0.00    +0.000 C 
ATOM      6  C   UNL     1      -0.763  11.102  20.540  0.00  0.00    +0.000 C 
ATOM      7  O   UNL     1      -0.794  11.827  19.545  0.00  0.00    +0.000 OA
ENDROOT
BRANCH   1   8
ATOM      8  C   UNL     1      -0.967  13.026  22.066  0.00  0.00    +0.000 C 
BRANCH   8  13
ATOM      9  C   UNL     1      -4.602  12.863  23.226  0.00  0.00    +0.000 A 
ATOM     10  C   UNL     1      -5.246  13.510  22.170  0.00  0.00    +0.000 A 
ATOM     11  C   UNL     1      -4.512  14.055  21.117  0.00  0.00    +0.000 A 
ATOM     12  C   UNL     1      -3.123  13.931  21.101  0.00  0.00    +0.000 A 
ATOM     13  C   UNL     1      -2.458  13.284  22.151  0.00  0.00    +0.000 A 
ATOM     14  C   UNL     1      -3.208  12.776  23.225  0.00  0.00    +0.000 A 
BRANCH   9  16
ATOM     15  C   UNL     1      -6.823  12.628  24.043  0.00  0.00    +0.000 C 
ATOM     16  O   UNL     1      -5.438  12.337  24.173  0.00  0.00    +0.000 OA
ENDBRANCH   9  16
ENDBRANCH   8  13
ENDBRANCH   1   8
BRANCH   4  17
ATOM     17  C   UNL     1       1.249   8.847  21.196  0.00  0.00    +0.000 C 
BRANCH  17  18
ATOM     18  C   UNL     1       1.693   7.947  20.085  0.00  0.00    +0.000 A 
ATOM     19  N   UNL     1       1.815   6.582  20.294  0.00  0.00    +0.000 NA
ATOM     20  C   UNL     1       2.241   6.113  19.139  0.00  0.00    +0.000 A 
ATOM     21  O   UNL     1       2.426   7.070  18.184  0.00  0.00    +0.000 OA
ATOM     22  C   UNL     1       2.075   8.241  18.788  0.00  0.00    +0.000 A 
ATOM     23  C   UNL     1       2.188   9.443  17.945  0.00  0.00    +0.000 C 
BRANCH  20  24
ATOM     24  C   UNL     1       2.607   4.759  18.749  0.00  0.00    +0.000 A 
ATOM     25  C   UNL     1       3.618   4.552  17.790  0.00  0.00    +0.000 A 
ATOM     26  C   UNL     1       3.952   3.259  17.373  0.00  0.00    +0.000 A 
ATOM     27  C   UNL     1       3.289   2.159  17.918  0.00  0.00    +0.000 A 
ATOM     28  C   UNL     1       2.302   2.362  18.876  0.00  0.00    +0.000 A 
ATOM     29  F   UNL     1       1.674   1.300  19.401  0.00  0.00    +0.000 F 
ATOM     30  C   UNL     1       1.963   3.643  19.287  0.00  0.00    +0.000 A 
ATOM     31  F   UNL     1       1.017   3.780  20.232  0.00  0.00    +0.000 F 
ENDBRANCH  20  24
ENDBRANCH  17  18
ENDBRANCH   4  17
TORSDOF 6
ENDMDL
MODEL 6
REMARK VINA RESULT:      -7.5      3.625     10.293
REMARK  Name = 
REMARK  8 active torsions:
REMARK  status: ('A' for Active; 'I' for Inactive)
REMARK    1  A    between atoms: C_1  and  O_2
REMARK    2  A    between atoms: O_2  and  C_3
REMARK    3  A    between atoms: C_7  and  C_8
REMARK    4  A    between atoms: C_8  and  N_9
REMARK    5  A    between atoms: N_12  and  C_13
REMARK    6  A    between atoms: C_13  and  C_14
REMARK    7  A    between atoms: C_16  and  C_17
REMARK    8  A    between atoms: C_26  and  C_27
REMARK                            x       y       z     vdW  Elec       q    Type
REMARK                         _______ _______ _______ _____ _____    ______ ____
ROOT
ATOM      1  N   UNL     1       3.430   3.438  18.158  0.00  0.00    +0.000 N 
ATOM      2  C   UNL     1       2.632   4.533  17.613  0.00  0.00    +0.000 C 
ATOM      3  C   UNL     1       1.393   4.863  18.454  0.00  0.00    +0.000 C 
ATOM      4  N   UNL     1       1.667   4.950  19.898  0.00  0.00    +0.000 NA
ATOM      5  C   UNL     1       2.224   3.642  20.328  0.00  0.00    +0.000 C 
ATOM      6  C   UNL     1       3.441   3.159  19.519  0.00  0.00    +0.000 C 
ATOM      7  O   UNL     1       4.306   2.459  20.047  0.00  0.00    +0.000 OA
ENDROOT
BRANCH   1   8
ATOM      8  C   UNL     1       4.318   2.706  17.261  0.00  0.00    +0.000 C 
BRANCH   8  13
ATOM      9  C   UNL     1       6.454   4.408  14.591  0.00  0.00    +0.000 A 
ATOM     10  C   UNL     1       7.243   5.248  15.379  0.00  0.00    +0.000 A 
ATOM     11  C   UNL     1       7.048   5.319  16.758  0.00  0.00    +0.000 A 
ATOM     12  C   UNL     1       6.076   4.523  17.364  0.00  0.00    +0.000 A 
ATOM     13  C   UNL     1       5.275   3.672  16.591  0.00  0.00    +0.000 A 
ATOM     14  C   UNL     1       5.456   3.643  15.197  0.00  0.00    +0.000 A 
BRANCH   9  16
ATOM     15  C   UNL     1       7.864   5.219  12.856  0.00  0.00    +0.000 C 
ATOM     16  O   UNL     1       6.774   4.401  13.261  0.00  0.00    +0.000 OA
ENDBRANCH   9  16
ENDBRANCH   8  13
ENDBRANCH   1   8
BRANCH   4  17
ATOM     17  C   UNL     1       2.592   6.035  20.272  0.00  0.00    +0.000 C 
BRANCH  17  18
ATOM     18  C   UNL     1       1.985   7.392  20.093  0.00  0.00    +0.000 A 
ATOM     19  N   UNL     1       1.179   7.936  21.081  0.00  0.00    +0.000 NA
ATOM     20  C   UNL     1       0.803   9.099  20.592  0.00  0.00    +0.000 A 
ATOM     21  O   UNL     1       1.289   9.360  19.343  0.00  0.00    +0.000 OA
ATOM     22  C   UNL     1       2.044   8.270  19.025  0.00  0.00    +0.000 A 
ATOM     23  C   UNL     1       2.688   8.314  17.702  0.00  0.00    +0.000 C 
BRANCH  20  24
ATOM     24  C   UNL     1      -0.094  10.108  21.138  0.00  0.00    +0.000 A 
ATOM     25  C   UNL     1      -0.273  10.210  22.531  0.00  0.00    +0.000 A 
ATOM     26  C   UNL     1      -1.164  11.146  23.069  0.00  0.00    +0.000 A 
ATOM     27  C   UNL     1      -1.876  11.996  22.221  0.00  0.00    +0.000 A 
ATOM     28  C   UNL     1      -1.687  11.906  20.847  0.00  0.00    +0.000 A 
ATOM     29  F   UNL     1      -2.368  12.731  20.039  0.00  0.00    +0.000 F 
ATOM     30  C   UNL     1      -0.810  10.975  20.310  0.00  0.00    +0.000 A 
ATOM     31  F   UNL     1      -0.650  10.946  18.976  0.00  0.00    +0.000 F 
ENDBRANCH  20  24
ENDBRANCH  17  18
ENDBRANCH   4  17
TORSDOF 6
ENDMDL
MODEL 7
REMARK VINA RESULT:      -7.5      2.081      2.984
REMARK  Name = 
REMARK  8 active torsions:
REMARK  status: ('A' for Active; 'I' for Inactive)
REMARK    1  A    between atoms: C_1  and  O_2
REMARK    2  A    between atoms: O_2  and  C_3
REMARK    3  A    between atoms: C_7  and  C_8
REMARK    4  A    between atoms: C_8  and  N_9
REMARK    5  A    between atoms: N_12  and  C_13
REMARK    6  A    between atoms: C_13  and  C_14
REMARK    7  A    between atoms: C_16  and  C_17
REMARK    8  A    between atoms: C_26  and  C_27
REMARK                            x       y       z     vdW  Elec       q    Type
REMARK                         _______ _______ _______ _____ _____    ______ ____
ROOT
ATOM      1  N   UNL     1      -0.819  11.731  21.633  0.00  0.00    +0.000 N 
ATOM      2  C   UNL     1      -0.442  10.916  22.785  0.00  0.00    +0.000 C 
ATOM      3  C   UNL     1      -0.666   9.415  22.569  0.00  0.00    +0.000 C 
ATOM      4  N   UNL     1      -0.173   8.925  21.270  0.00  0.00    +0.000 NA
ATOM      5  C   UNL     1      -0.875   9.689  20.207  0.00  0.00    +0.000 C 
ATOM      6  C   UNL     1      -0.783  11.220  20.342  0.00  0.00    +0.000 C 
ATOM      7  O   UNL     1      -0.801  11.938  19.341  0.00  0.00    +0.000 OA
ENDROOT
BRANCH   1   8
ATOM      8  C   UNL     1      -1.122  13.143  21.845  0.00  0.00    +0.000 C 
BRANCH   8  13
ATOM      9  C   UNL     1      -4.736  12.949  23.064  0.00  0.00    +0.000 A 
ATOM     10  C   UNL     1      -4.675  13.755  24.202  0.00  0.00    +0.000 A 
ATOM     11  C   UNL     1      -3.464  14.308  24.617  0.00  0.00    +0.000 A 
ATOM     12  C   UNL     1      -2.305  14.080  23.874  0.00  0.00    +0.000 A 
ATOM     13  C   UNL     1      -2.346  13.275  22.728  0.00  0.00    +0.000 A 
ATOM     14  C   UNL     1      -3.566  12.691  22.346  0.00  0.00    +0.000 A 
BRANCH   9  16
ATOM     15  C   UNL     1      -6.960  12.505  23.781  0.00  0.00    +0.000 C 
ATOM     16  O   UNL     1      -5.989  12.504  22.743  0.00  0.00    +0.000 OA
ENDBRANCH   9  16
ENDBRANCH   8  13
ENDBRANCH   1   8
BRANCH   4  17
ATOM     17  C   UNL     1       1.286   9.048  21.094  0.00  0.00    +0.000 C 
BRANCH  17  18
ATOM     18  C   UNL     1       1.773   8.360  19.856  0.00  0.00    +0.000 A 
ATOM     19  N   UNL     1       2.100   7.013  19.885  0.00  0.00    +0.000 NA
ATOM     20  C   UNL     1       2.506   6.750  18.660  0.00  0.00    +0.000 A 
ATOM     21  O   UNL     1       2.487   7.829  17.825  0.00  0.00    +0.000 OA
ATOM     22  C   UNL     1       2.018   8.857  18.588  0.00  0.00    +0.000 A 
ATOM     23  C   UNL     1       1.902  10.152  17.899  0.00  0.00    +0.000 C 
BRANCH  20  24
ATOM     24  C   UNL     1       3.032   5.521  18.084  0.00  0.00    +0.000 A 
ATOM     25  C   UNL     1       2.172   4.432  17.843  0.00  0.00    +0.000 A 
ATOM     26  C   UNL     1       2.670   3.229  17.329  0.00  0.00    +0.000 A 
ATOM     27  C   UNL     1       4.029   3.107  17.039  0.00  0.00    +0.000 A 
ATOM     28  C   UNL     1       4.875   4.187  17.262  0.00  0.00    +0.000 A 
ATOM     29  F   UNL     1       6.179   4.064  16.973  0.00  0.00    +0.000 F 
ATOM     30  C   UNL     1       4.387   5.378  17.777  0.00  0.00    +0.000 A 
ATOM     31  F   UNL     1       5.246   6.397  17.951  0.00  0.00    +0.000 F 
ENDBRANCH  20  24
ENDBRANCH  17  18
ENDBRANCH   4  17
TORSDOF 6
ENDMDL
MODEL 8
REMARK VINA RESULT:      -7.4      2.269      3.089
REMARK  Name = 
REMARK  8 active torsions:
REMARK  status: ('A' for Active; 'I' for Inactive)
REMARK    1  A    between atoms: C_1  and  O_2
REMARK    2  A    between atoms: O_2  and  C_3
REMARK    3  A    between atoms: C_7  and  C_8
REMARK    4  A    between atoms: C_8  and  N_9
REMARK    5  A    between atoms: N_12  and  C_13
REMARK    6  A    between atoms: C_13  and  C_14
REMARK    7  A    between atoms: C_16  and  C_17
REMARK    8  A    between atoms: C_26  and  C_27
REMARK                            x       y       z     vdW  Elec       q    Type
REMARK                         _______ _______ _______ _____ _____    ______ ____
ROOT
ATOM      1  N   UNL     1      -0.592  13.651  20.287  0.00  0.00    +0.000 N 
ATOM      2  C   UNL     1      -0.444  13.592  18.835  0.00  0.00    +0.000 C 
ATOM      3  C   UNL     1       0.928  13.080  18.382  0.00  0.00    +0.000 C 
ATOM      4  N   UNL     1       1.376  11.876  19.103  0.00  0.00    +0.000 NA
ATOM      5  C   UNL     1       1.425  12.213  20.549  0.00  0.00    +0.000 C 
ATOM      6  C   UNL     1       0.123  12.801  21.121  0.00  0.00    +0.000 C 
ATOM      7  O   UNL     1      -0.184  12.613  22.300  0.00  0.00    +0.000 OA
ENDROOT
BRANCH   1   8
ATOM      8  C   UNL     1      -1.601  14.540  20.851  0.00  0.00    +0.000 C 
BRANCH   8  13
ATOM      9  C   UNL     1      -4.770  12.489  20.275  0.00  0.00    +0.000 A 
ATOM     10  C   UNL     1      -5.371  12.571  21.533  0.00  0.00    +0.000 A 
ATOM     11  C   UNL     1      -4.731  13.227  22.584  0.00  0.00    +0.000 A 
ATOM     12  C   UNL     1      -3.493  13.834  22.374  0.00  0.00    +0.000 A 
ATOM     13  C   UNL     1      -2.875  13.764  21.118  0.00  0.00    +0.000 A 
ATOM     14  C   UNL     1      -3.513  13.064  20.081  0.00  0.00    +0.000 A 
BRANCH   9  16
ATOM     15  C   UNL     1      -4.896  11.612  18.068  0.00  0.00    +0.000 C 
ATOM     16  O   UNL     1      -5.519  11.856  19.322  0.00  0.00    +0.000 OA
ENDBRANCH   9  16
ENDBRANCH   8  13
ENDBRANCH   1   8
BRANCH   4  17
ATOM     17  C   UNL     1       0.520  10.694  18.893  0.00  0.00    +0.000 C 
BRANCH  17  18
ATOM     18  C   UNL     1       1.258   9.408  19.101  0.00  0.00    +0.000 A 
ATOM     19  N   UNL     1       1.926   8.805  18.047  0.00  0.00    +0.000 NA
ATOM     20  C   UNL     1       2.430   7.705  18.567  0.00  0.00    +0.000 A 
ATOM     21  O   UNL     1       2.132   7.527  19.887  0.00  0.00    +0.000 OA
ATOM     22  C   UNL     1       1.384   8.614  20.228  0.00  0.00    +0.000 A 
ATOM     23  C   UNL     1       0.934   8.656  21.629  0.00  0.00    +0.000 C 
BRANCH  20  24
ATOM     24  C   UNL     1       3.188   6.628  17.946  0.00  0.00    +0.000 A 
ATOM     25  C   UNL     1       4.398   6.910  17.282  0.00  0.00    +0.000 A 
ATOM     26  C   UNL     1       5.115   5.893  16.643  0.00  0.00    +0.000 A 
ATOM     27  C   UNL     1       4.638   4.582  16.672  0.00  0.00    +0.000 A 
ATOM     28  C   UNL     1       3.453   4.301  17.340  0.00  0.00    +0.000 A 
ATOM     29  F   UNL     1       3.004   3.037  17.370  0.00  0.00    +0.000 F 
ATOM     30  C   UNL     1       2.735   5.307  17.969  0.00  0.00    +0.000 A 
ATOM     31  F   UNL     1       1.607   4.975  18.619  0.00  0.00    +0.000 F 
ENDBRANCH  20  24
ENDBRANCH  17  18
ENDBRANCH   4  17
TORSDOF 6
ENDMDL
MODEL 9
REMARK VINA RESULT:      -7.4      2.836      3.853
REMARK  Name = 
REMARK  8 active torsions:
REMARK  status: ('A' for Active; 'I' for Inactive)
REMARK    1  A    between atoms: C_1  and  O_2
REMARK    2  A    between atoms: O_2  and  C_3
REMARK    3  A    between atoms: C_7  and  C_8
REMARK    4  A    between atoms: C_8  and  N_9
REMARK    5  A    between atoms: N_12  and  C_13
REMARK    6  A    between atoms: C_13  and  C_14
REMARK    7  A    between atoms: C_16  and  C_17
REMARK    8  A    between atoms: C_26  and  C_27
REMARK                            x       y       z     vdW  Elec       q    Type
REMARK                         _______ _______ _______ _____ _____    ______ ____
ROOT
ATOM      1  N   UNL     1      -0.815  12.086  22.383  0.00  0.00    +0.000 N 
ATOM      2  C   UNL     1      -0.677  10.850  23.149  0.00  0.00    +0.000 C 
ATOM      3  C   UNL     1      -1.025   9.592  22.345  0.00  0.00    +0.000 C 
ATOM      4  N   UNL     1      -0.420   9.564  21.002  0.00  0.00    +0.000 NA
ATOM      5  C   UNL     1      -0.894  10.767  20.272  0.00  0.00    +0.000 C 
ATOM      6  C   UNL     1      -0.663  12.102  21.002  0.00  0.00    +0.000 C 
ATOM      7  O   UNL     1      -0.477  13.139  20.365  0.00  0.00    +0.000 OA
ENDROOT
BRANCH   1   8
ATOM      8  C   UNL     1      -0.997  13.340  23.106  0.00  0.00    +0.000 C 
BRANCH   8  13
ATOM      9  C   UNL     1      -4.755  13.039  23.710  0.00  0.00    +0.000 A 
ATOM     10  C   UNL     1      -5.223  14.169  23.037  0.00  0.00    +0.000 A 
ATOM     11  C   UNL     1      -4.332  15.063  22.445  0.00  0.00    +0.000 A 
ATOM     12  C   UNL     1      -2.960  14.815  22.498  0.00  0.00    +0.000 A 
ATOM     13  C   UNL     1      -2.471  13.685  23.168  0.00  0.00    +0.000 A 
ATOM     14  C   UNL     1      -3.380  12.816  23.795  0.00  0.00    +0.000 A 
BRANCH   9  16
ATOM     15  C   UNL     1      -7.080  12.628  24.003  0.00  0.00    +0.000 C 
ATOM     16  O   UNL     1      -5.733  12.223  24.210  0.00  0.00    +0.000 OA
ENDBRANCH   9  16
ENDBRANCH   8  13
ENDBRANCH   1   8
BRANCH   4  17
ATOM     17  C   UNL     1       1.055   9.531  21.007  0.00  0.00    +0.000 C 
BRANCH  17  18
ATOM     18  C   UNL     1       1.605   8.437  20.144  0.00  0.00    +0.000 A 
ATOM     19  N   UNL     1       1.845   7.179  20.674  0.00  0.00    +0.000 NA
ATOM     20  C   UNL     1       2.340   6.490  19.667  0.00  0.00    +0.000 A 
ATOM     21  O   UNL     1       2.461   7.205  18.511  0.00  0.00    +0.000 OA
ATOM     22  C   UNL     1       1.992   8.448  18.815  0.00  0.00    +0.000 A 
ATOM     23  C   UNL     1       2.017   9.419  17.710  0.00  0.00    +0.000 C 
BRANCH  20  24
ATOM     24  C   UNL     1       2.837   5.122  19.614  0.00  0.00    +0.000 A 
ATOM     25  C   UNL     1       4.197   4.878  19.344  0.00  0.00    +0.000 A 
ATOM     26  C   UNL     1       4.681   3.568  19.247  0.00  0.00    +0.000 A 
ATOM     27  C   UNL     1       3.814   2.491  19.430  0.00  0.00    +0.000 A 
ATOM     28  C   UNL     1       2.474   2.732  19.712  0.00  0.00    +0.000 A 
ATOM     29  F   UNL     1       1.648   1.692  19.895  0.00  0.00    +0.000 F 
ATOM     30  C   UNL     1       1.990   4.028  19.802  0.00  0.00    +0.000 A 
ATOM     31  F   UNL     1       0.690   4.204  20.099  0.00  0.00    +0.000 F 
ENDBRANCH  20  24
ENDBRANCH  17  18
ENDBRANCH   4  17
TORSDOF 6
ENDMDL
