MODEL 1
REMARK VINA RESULT:      -8.8      0.000      0.000
REMARK  Name = 
REMARK  7 active torsions:
REMARK  status: ('A' for Active; 'I' for Inactive)
REMARK    1  A    between atoms: C_1  and  C_2
REMARK    2  A    between atoms: C_2  and  C_3
REMARK    3  A    between atoms: C_2  and  C_27
REMARK    4  A    between atoms: N_5  and  C_6
REMARK    5  A    between atoms: N_5  and  C_7
REMARK    6  A    between atoms: C_12  and  C_13
REMARK    7  A    between atoms: C_21  and  C_22
REMARK                            x       y       z     vdW  Elec       q    Type
REMARK                         _______ _______ _______ _____ _____    ______ ____
ROOT
ATOM      1  C   UNL     1       6.384   5.741  17.394  0.00  0.00    +0.000 A 
ATOM      2  C   UNL     1       7.129   5.223  18.465  0.00  0.00    +0.000 A 
ATOM      3  C   UNL     1       8.070   6.005  19.140  0.00  0.00    +0.000 A 
ATOM      4  C   UNL     1       8.196   7.329  18.717  0.00  0.00    +0.000 A 
ATOM      5  N   UNL     1       9.018   8.353  19.096  0.00  0.00    +0.000 N 
ATOM      6  C   UNL     1       8.670   9.477  18.391  0.00  0.00    +0.000 A 
ATOM      7  N   UNL     1       7.691   9.226  17.548  0.00  0.00    +0.000 NA
ATOM      8  C   UNL     1       7.407   7.894  17.719  0.00  0.00    +0.000 A 
ATOM      9  C   UNL     1       6.480   7.093  17.041  0.00  0.00    +0.000 A 
ATOM     10  H   UNL     1       9.760   8.332  19.780  0.00  0.00    +0.000 HD
ENDROOT
BRANCH   6  11
ATOM     11  C   UNL     1       9.365  10.778  18.582  0.00  0.00    +0.000 A 
ATOM     12  N   UNL     1       9.979  11.385  17.550  0.00  0.00    +0.000 NA
ATOM     13  N   UNL     1      10.410  12.549  18.073  0.00  0.00    +0.000 N 
ATOM     14  C   UNL     1      10.116  12.679  19.393  0.00  0.00    +0.000 A 
ATOM     15  C   UNL     1       9.468  11.525  19.772  0.00  0.00    +0.000 A 
ATOM     16  C   UNL     1       8.995  11.287  21.166  0.00  0.00    +0.000 C 
ATOM     17  C   UNL     1       8.931  12.564  21.999  0.00  0.00    +0.000 C 
ATOM     18  C   UNL     1       8.057  13.681  21.487  0.00  0.00    +0.000 C 
ATOM     19  C   UNL     1       9.562  13.888  21.528  0.00  0.00    +0.000 C 
ATOM     20  C   UNL     1      10.023  14.930  22.514  0.00  0.00    +0.000 C 
ATOM     21  C   UNL     1      10.403  13.855  20.248  0.00  0.00    +0.000 C 
ATOM     22  H   UNL     1      10.882  13.208  17.463  0.00  0.00    +0.000 HD
ENDBRANCH   6  11
BRANCH   1  25
ATOM     23  C   UNL     1       4.664   3.954  17.283  0.00  0.00    +0.000 C 
ATOM     24  O   UNL     1       4.065   3.104  16.617  0.00  0.00    +0.000 OA
ATOM     25  N   UNL     1       5.517   4.882  16.679  0.00  0.00    +0.000 N 
ATOM     26  C   UNL     1       5.730   4.839  15.235  0.00  0.00    +0.000 C 
BRANCH  23  28
ATOM     27  C   UNL     1       4.482   2.700  19.464  0.00  0.00    +0.000 C 
ATOM     28  C   UNL     1       4.387   4.079  18.798  0.00  0.00    +0.000 C 
BRANCH  28  29
ATOM     29  C   UNL     1       3.071   4.852  19.097  0.00  0.00    +0.000 C 
ATOM     30  C   UNL     1       3.356   6.352  19.320  0.00  0.00    +0.000 C 
ATOM     31  C   UNL     1       2.106   7.113  19.740  0.00  0.00    +0.000 C 
ATOM     32  O   UNL     1       1.515   6.516  20.891  0.00  0.00    +0.000 OA
ATOM     33  C   UNL     1       1.079   5.183  20.632  0.00  0.00    +0.000 C 
ATOM     34  C   UNL     1       2.260   4.284  20.274  0.00  0.00    +0.000 C 
ENDBRANCH  28  29
ENDBRANCH  23  28
ENDBRANCH   1  25
TORSDOF 4
ENDMDL
MODEL 2
REMARK VINA RESULT:      -8.7      0.856      1.061
REMARK  Name = 
REMARK  7 active torsions:
REMARK  status: ('A' for Active; 'I' for Inactive)
REMARK    1  A    between atoms: C_1  and  C_2
REMARK    2  A    between atoms: C_2  and  C_3
REMARK    3  A    between atoms: C_2  and  C_27
REMARK    4  A    between atoms: N_5  and  C_6
REMARK    5  A    between atoms: N_5  and  C_7
REMARK    6  A    between atoms: C_12  and  C_13
REMARK    7  A    between atoms: C_21  and  C_22
REMARK                            x       y       z     vdW  Elec       q    Type
REMARK                         _______ _______ _______ _____ _____    ______ ____
ROOT
ATOM      1  C   UNL     1       6.212   5.986  17.446  0.00  0.00    +0.000 A 
ATOM      2  C   UNL     1       6.978   5.389  18.460  0.00  0.00    +0.000 A 
ATOM      3  C   UNL     1       7.999   6.091  19.107  0.00  0.00    +0.000 A 
ATOM      4  C   UNL     1       8.184   7.418  18.717  0.00  0.00    +0.000 A 
ATOM      5  N   UNL     1       9.085   8.378  19.083  0.00  0.00    +0.000 N 
ATOM      6  C   UNL     1       8.771   9.543  18.431  0.00  0.00    +0.000 A 
ATOM      7  N   UNL     1       7.736   9.380  17.634  0.00  0.00    +0.000 NA
ATOM      8  C   UNL     1       7.381   8.062  17.780  0.00  0.00    +0.000 A 
ATOM      9  C   UNL     1       6.373   7.341  17.129  0.00  0.00    +0.000 A 
ATOM     10  H   UNL     1       9.860   8.290  19.725  0.00  0.00    +0.000 HD
ENDROOT
BRANCH   6  11
ATOM     11  C   UNL     1       9.554  10.794  18.623  0.00  0.00    +0.000 A 
ATOM     12  N   UNL     1      10.307  11.292  17.626  0.00  0.00    +0.000 NA
ATOM     13  N   UNL     1      10.786  12.445  18.130  0.00  0.00    +0.000 N 
ATOM     14  C   UNL     1      10.387  12.671  19.408  0.00  0.00    +0.000 A 
ATOM     15  C   UNL     1       9.613  11.596  19.780  0.00  0.00    +0.000 A 
ATOM     16  C   UNL     1       8.997  11.475  21.133  0.00  0.00    +0.000 C 
ATOM     17  C   UNL     1       8.966  12.798  21.893  0.00  0.00    +0.000 C 
ATOM     18  C   UNL     1       8.240  13.951  21.247  0.00  0.00    +0.000 C 
ATOM     19  C   UNL     1       9.747  14.039  21.421  0.00  0.00    +0.000 C 
ATOM     20  C   UNL     1      10.204  15.095  22.393  0.00  0.00    +0.000 C 
ATOM     21  C   UNL     1      10.695  13.867  20.228  0.00  0.00    +0.000 C 
ATOM     22  H   UNL     1      11.366  13.029  17.536  0.00  0.00    +0.000 HD
ENDBRANCH   6  11
BRANCH   1  25
ATOM     23  C   UNL     1       4.172   4.573  17.366  0.00  0.00    +0.000 C 
ATOM     24  O   UNL     1       3.476   3.756  16.755  0.00  0.00    +0.000 OA
ATOM     25  N   UNL     1       5.259   5.205  16.754  0.00  0.00    +0.000 N 
ATOM     26  C   UNL     1       5.601   4.881  15.371  0.00  0.00    +0.000 C 
BRANCH  23  28
ATOM     27  C   UNL     1       3.492   3.760  19.655  0.00  0.00    +0.000 C 
ATOM     28  C   UNL     1       3.778   5.000  18.798  0.00  0.00    +0.000 C 
BRANCH  28  29
ATOM     29  C   UNL     1       2.647   6.067  18.807  0.00  0.00    +0.000 C 
ATOM     30  C   UNL     1       2.990   7.236  17.860  0.00  0.00    +0.000 C 
ATOM     31  C   UNL     1       1.963   8.357  17.944  0.00  0.00    +0.000 C 
ATOM     32  O   UNL     1       1.810   8.801  19.289  0.00  0.00    +0.000 OA
ATOM     33  C   UNL     1       1.312   7.767  20.135  0.00  0.00    +0.000 C 
ATOM     34  C   UNL     1       2.296   6.602  20.206  0.00  0.00    +0.000 C 
ENDBRANCH  28  29
ENDBRANCH  23  28
ENDBRANCH   1  25
TORSDOF 4
ENDMDL
MODEL 3
REMARK VINA RESULT:      -8.6      3.205      9.104
REMARK  Name = 
REMARK  7 active torsions:
REMARK  status: ('A' for Active; 'I' for Inactive)
REMARK    1  A    between atoms: C_1  and  C_2
REMARK    2  A    between atoms: C_2  and  C_3
REMARK    3  A    between atoms: C_2  and  C_27
REMARK    4  A    between atoms: N_5  and  C_6
REMARK    5  A    between atoms: N_5  and  C_7
REMARK    6  A    between atoms: C_12  and  C_13
REMARK    7  A    between atoms: C_21  and  C_22
REMARK                            x       y       z     vdW  Elec       q    Type
REMARK                         _______ _______ _______ _____ _____    ______ ____
ROOT
ATOM      1  C   UNL     1       9.736  11.380  19.011  0.00  0.00    +0.000 A 
ATOM      2  C   UNL     1       8.886  11.917  18.031  0.00  0.00    +0.000 A 
ATOM      3  C   UNL     1       7.999  11.107  17.316  0.00  0.00    +0.000 A 
ATOM      4  C   UNL     1       7.981   9.754  17.657  0.00  0.00    +0.000 A 
ATOM      5  N   UNL     1       7.298   8.679  17.162  0.00  0.00    +0.000 N 
ATOM      6  C   UNL     1       7.610   7.578  17.918  0.00  0.00    +0.000 A 
ATOM      7  N   UNL     1       8.487   7.874  18.853  0.00  0.00    +0.000 NA
ATOM      8  C   UNL     1       8.747   9.212  18.685  0.00  0.00    +0.000 A 
ATOM      9  C   UNL     1       9.642  10.033  19.381  0.00  0.00    +0.000 A 
ATOM     10  H   UNL     1       6.658   8.656  16.382  0.00  0.00    +0.000 HD
ENDROOT
BRANCH   6  11
ATOM     11  C   UNL     1       7.017   6.240  17.649  0.00  0.00    +0.000 A 
ATOM     12  N   UNL     1       7.805   5.161  17.489  0.00  0.00    +0.000 NA
ATOM     13  N   UNL     1       6.933   4.144  17.352  0.00  0.00    +0.000 N 
ATOM     14  C   UNL     1       5.637   4.548  17.391  0.00  0.00    +0.000 A 
ATOM     15  C   UNL     1       5.650   5.916  17.545  0.00  0.00    +0.000 A 
ATOM     16  C   UNL     1       4.404   6.732  17.618  0.00  0.00    +0.000 C 
ATOM     17  C   UNL     1       3.161   5.896  17.911  0.00  0.00    +0.000 C 
ATOM     18  C   UNL     1       3.158   5.083  19.181  0.00  0.00    +0.000 C 
ATOM     19  C   UNL     1       3.169   4.357  17.846  0.00  0.00    +0.000 C 
ATOM     20  C   UNL     1       1.914   3.579  17.547  0.00  0.00    +0.000 C 
ATOM     21  C   UNL     1       4.440   3.677  17.323  0.00  0.00    +0.000 C 
ATOM     22  H   UNL     1       7.298   3.203  17.251  0.00  0.00    +0.000 HD
ENDBRANCH   6  11
BRANCH   1  25
ATOM     23  C   UNL     1      10.350  13.279  20.488  0.00  0.00    +0.000 C 
ATOM     24  O   UNL     1      11.198  14.096  20.862  0.00  0.00    +0.000 OA
ATOM     25  N   UNL     1      10.684  12.223  19.635  0.00  0.00    +0.000 N 
ATOM     26  C   UNL     1      12.056  12.088  19.151  0.00  0.00    +0.000 C 
BRANCH  23  28
ATOM     27  C   UNL     1       8.266  14.687  20.686  0.00  0.00    +0.000 C 
ATOM     28  C   UNL     1       8.915  13.346  21.056  0.00  0.00    +0.000 C 
BRANCH  28  29
ATOM     29  C   UNL     1       8.862  12.999  22.572  0.00  0.00    +0.000 C 
ATOM     30  C   UNL     1       7.849  11.867  22.839  0.00  0.00    +0.000 C 
ATOM     31  C   UNL     1       7.681  11.592  24.327  0.00  0.00    +0.000 C 
ATOM     32  O   UNL     1       7.328  12.784  25.023  0.00  0.00    +0.000 OA
ATOM     33  C   UNL     1       8.351  13.773  24.933  0.00  0.00    +0.000 C 
ATOM     34  C   UNL     1       8.567  14.202  23.484  0.00  0.00    +0.000 C 
ENDBRANCH  28  29
ENDBRANCH  23  28
ENDBRANCH   1  25
TORSDOF 4
ENDMDL
MODEL 4
REMARK VINA RESULT:      -8.6      5.918      9.754
REMARK  Name = 
REMARK  7 active torsions:
REMARK  status: ('A' for Active; 'I' for Inactive)
REMARK    1  A    between atoms: C_1  and  C_2
REMARK    2  A    between atoms: C_2  and  C_3
REMARK    3  A    between atoms: C_2  and  C_27
REMARK    4  A    between atoms: N_5  and  C_6
REMARK    5  A    between atoms: N_5  and  C_7
REMARK    6  A    between atoms: C_12  and  C_13
REMARK    7  A    between atoms: C_21  and  C_22
REMARK                            x       y       z     vdW  Elec       q    Type
REMARK                         _______ _______ _______ _____ _____    ______ ____
ROOT
ATOM      1  C   UNL     1       0.703  11.544  20.362  0.00  0.00    +0.000 A 
ATOM      2  C   UNL     1       0.566  10.914  21.609  0.00  0.00    +0.000 A 
ATOM      3  C   UNL     1       0.853   9.555  21.772  0.00  0.00    +0.000 A 
ATOM      4  C   UNL     1       1.317   8.879  20.642  0.00  0.00    +0.000 A 
ATOM      5  N   UNL     1       1.649   7.574  20.410  0.00  0.00    +0.000 N 
ATOM      6  C   UNL     1       2.115   7.464  19.125  0.00  0.00    +0.000 A 
ATOM      7  N   UNL     1       2.066   8.621  18.499  0.00  0.00    +0.000 NA
ATOM      8  C   UNL     1       1.548   9.499  19.417  0.00  0.00    +0.000 A 
ATOM      9  C   UNL     1       1.240  10.856  19.266  0.00  0.00    +0.000 A 
ATOM     10  H   UNL     1       1.587   6.795  21.049  0.00  0.00    +0.000 HD
ENDROOT
BRANCH   6  11
ATOM     11  C   UNL     1       2.578   6.168  18.559  0.00  0.00    +0.000 A 
ATOM     12  N   UNL     1       1.798   5.073  18.625  0.00  0.00    +0.000 NA
ATOM     13  N   UNL     1       2.498   4.140  17.952  0.00  0.00    +0.000 N 
ATOM     14  C   UNL     1       3.692   4.599  17.496  0.00  0.00    +0.000 A 
ATOM     15  C   UNL     1       3.799   5.908  17.906  0.00  0.00    +0.000 A 
ATOM     16  C   UNL     1       4.989   6.754  17.603  0.00  0.00    +0.000 C 
ATOM     17  C   UNL     1       5.858   6.181  16.487  0.00  0.00    +0.000 C 
ATOM     18  C   UNL     1       5.203   5.954  15.148  0.00  0.00    +0.000 C 
ATOM     19  C   UNL     1       5.671   4.750  15.949  0.00  0.00    +0.000 C 
ATOM     20  C   UNL     1       6.814   3.990  15.327  0.00  0.00    +0.000 C 
ATOM     21  C   UNL     1       4.671   3.844  16.678  0.00  0.00    +0.000 C 
ATOM     22  H   UNL     1       2.088   3.219  17.834  0.00  0.00    +0.000 HD
ENDBRANCH   6  11
BRANCH   1  25
ATOM     23  C   UNL     1      -1.024  13.307  20.088  0.00  0.00    +0.000 C 
ATOM     24  O   UNL     1      -1.307  14.472  19.790  0.00  0.00    +0.000 OA
ATOM     25  N   UNL     1       0.305  12.894  20.226  0.00  0.00    +0.000 N 
ATOM     26  C   UNL     1       1.388  13.845  19.991  0.00  0.00    +0.000 C 
BRANCH  23  28
ATOM     27  C   UNL     1      -2.887  11.889  19.150  0.00  0.00    +0.000 C 
ATOM     28  C   UNL     1      -2.150  12.305  20.429  0.00  0.00    +0.000 C 
BRANCH  28  29
ATOM     29  C   UNL     1      -3.074  12.821  21.570  0.00  0.00    +0.000 C 
ATOM     30  C   UNL     1      -2.713  12.150  22.911  0.00  0.00    +0.000 C 
ATOM     31  C   UNL     1      -3.682  12.538  24.021  0.00  0.00    +0.000 C 
ATOM     32  O   UNL     1      -5.024  12.254  23.639  0.00  0.00    +0.000 OA
ATOM     33  C   UNL     1      -5.424  13.017  22.502  0.00  0.00    +0.000 C 
ATOM     34  C   UNL     1      -4.577  12.662  21.283  0.00  0.00    +0.000 C 
ENDBRANCH  28  29
ENDBRANCH  23  28
ENDBRANCH   1  25
TORSDOF 4
ENDMDL
MODEL 5
REMARK VINA RESULT:      -8.5      5.653     10.198
REMARK  Name = 
REMARK  7 active torsions:
REMARK  status: ('A' for Active; 'I' for Inactive)
REMARK    1  A    between atoms: C_1  and  C_2
REMARK    2  A    between atoms: C_2  and  C_3
REMARK    3  A    between atoms: C_2  and  C_27
REMARK    4  A    between atoms: N_5  and  C_6
REMARK    5  A    between atoms: N_5  and  C_7
REMARK    6  A    between atoms: C_12  and  C_13
REMARK    7  A    between atoms: C_21  and  C_22
REMARK                            x       y       z     vdW  Elec       q    Type
REMARK                         _______ _______ _______ _____ _____    ______ ____
ROOT
ATOM      1  C   UNL     1      -0.528  11.391  19.983  0.00  0.00    +0.000 A 
ATOM      2  C   UNL     1      -0.292  10.834  21.249  0.00  0.00    +0.000 A 
ATOM      3  C   UNL     1       0.489   9.685  21.403  0.00  0.00    +0.000 A 
ATOM      4  C   UNL     1       1.046   9.153  20.239  0.00  0.00    +0.000 A 
ATOM      5  N   UNL     1       1.807   8.045  19.995  0.00  0.00    +0.000 N 
ATOM      6  C   UNL     1       2.142   8.029  18.665  0.00  0.00    +0.000 A 
ATOM      7  N   UNL     1       1.607   9.048  18.026  0.00  0.00    +0.000 NA
ATOM      8  C   UNL     1       0.903   9.736  18.983  0.00  0.00    +0.000 A 
ATOM      9  C   UNL     1       0.104  10.877  18.844  0.00  0.00    +0.000 A 
ATOM     10  H   UNL     1       2.103   7.338  20.652  0.00  0.00    +0.000 HD
ENDROOT
BRANCH   6  11
ATOM     11  C   UNL     1       2.985   6.956  18.073  0.00  0.00    +0.000 A 
ATOM     12  N   UNL     1       4.067   7.263  17.334  0.00  0.00    +0.000 NA
ATOM     13  N   UNL     1       4.611   6.064  17.048  0.00  0.00    +0.000 N 
ATOM     14  C   UNL     1       3.899   5.024  17.553  0.00  0.00    +0.000 A 
ATOM     15  C   UNL     1       2.807   5.564  18.196  0.00  0.00    +0.000 A 
ATOM     16  C   UNL     1       1.774   4.727  18.872  0.00  0.00    +0.000 C 
ATOM     17  C   UNL     1       2.242   3.297  19.130  0.00  0.00    +0.000 C 
ATOM     18  C   UNL     1       3.485   3.115  19.965  0.00  0.00    +0.000 C 
ATOM     19  C   UNL     1       3.524   2.722  18.497  0.00  0.00    +0.000 C 
ATOM     20  C   UNL     1       3.681   1.245  18.249  0.00  0.00    +0.000 C 
ATOM     21  C   UNL     1       4.252   3.588  17.463  0.00  0.00    +0.000 C 
ATOM     22  H   UNL     1       5.476   6.040  16.518  0.00  0.00    +0.000 HD
ENDBRANCH   6  11
BRANCH   1  25
ATOM     23  C   UNL     1      -1.109  13.780  20.331  0.00  0.00    +0.000 C 
ATOM     24  O   UNL     1      -1.973  14.662  20.375  0.00  0.00    +0.000 OA
ATOM     25  N   UNL     1      -1.406  12.494  19.869  0.00  0.00    +0.000 N 
ATOM     26  C   UNL     1      -2.767  12.170  19.452  0.00  0.00    +0.000 C 
BRANCH  23  28
ATOM     27  C   UNL     1       0.402  15.055  21.897  0.00  0.00    +0.000 C 
ATOM     28  C   UNL     1       0.357  14.121  20.680  0.00  0.00    +0.000 C 
BRANCH  28  29
ATOM     29  C   UNL     1       1.157  14.628  19.446  0.00  0.00    +0.000 C 
ATOM     30  C   UNL     1       2.456  13.817  19.266  0.00  0.00    +0.000 C 
ATOM     31  C   UNL     1       3.323  14.372  18.143  0.00  0.00    +0.000 C 
ATOM     32  O   UNL     1       3.594  15.755  18.353  0.00  0.00    +0.000 OA
ATOM     33  C   UNL     1       2.402  16.537  18.334  0.00  0.00    +0.000 C 
ATOM     34  C   UNL     1       1.469  16.134  19.473  0.00  0.00    +0.000 C 
ENDBRANCH  28  29
ENDBRANCH  23  28
ENDBRANCH   1  25
TORSDOF 4
ENDMDL
MODEL 6
REMARK VINA RESULT:      -8.5      5.222      7.192
REMARK  Name = 
REMARK  7 active torsions:
REMARK  status: ('A' for Active; 'I' for Inactive)
REMARK    1  A    between atoms: C_1  and  C_2
REMARK    2  A    between atoms: C_2  and  C_3
REMARK    3  A    between atoms: C_2  and  C_27
REMARK    4  A    between atoms: N_5  and  C_6
REMARK    5  A    between atoms: N_5  and  C_7
REMARK    6  A    between atoms: C_12  and  C_13
REMARK    7  A    between atoms: C_21  and  C_22
REMARK                            x       y       z     vdW  Elec       q    Type
REMARK                         _______ _______ _______ _____ _____    ______ ____
ROOT
ATOM      1  C   UNL     1       2.569   6.518  19.315  0.00  0.00    +0.000 A 
ATOM      2  C   UNL     1       3.108   6.823  18.055  0.00  0.00    +0.000 A 
ATOM      3  C   UNL     1       2.824   8.034  17.417  0.00  0.00    +0.000 A 
ATOM      4  C   UNL     1       2.013   8.929  18.117  0.00  0.00    +0.000 A 
ATOM      5  N   UNL     1       1.499  10.156  17.807  0.00  0.00    +0.000 N 
ATOM      6  C   UNL     1       0.814  10.631  18.896  0.00  0.00    +0.000 A 
ATOM      7  N   UNL     1       0.825   9.760  19.884  0.00  0.00    +0.000 NA
ATOM      8  C   UNL     1       1.540   8.691  19.405  0.00  0.00    +0.000 A 
ATOM      9  C   UNL     1       1.819   7.466  20.023  0.00  0.00    +0.000 A 
ATOM     10  H   UNL     1       1.590  10.667  16.941  0.00  0.00    +0.000 HD
ENDROOT
BRANCH   6  11
ATOM     11  C   UNL     1       0.143  11.959  18.893  0.00  0.00    +0.000 A 
ATOM     12  N   UNL     1      -1.167  12.066  19.181  0.00  0.00    +0.000 NA
ATOM     13  N   UNL     1      -1.392  13.394  19.162  0.00  0.00    +0.000 N 
ATOM     14  C   UNL     1      -0.286  14.115  18.846  0.00  0.00    +0.000 A 
ATOM     15  C   UNL     1       0.729  13.212  18.624  0.00  0.00    +0.000 A 
ATOM     16  C   UNL     1       2.108  13.627  18.238  0.00  0.00    +0.000 C 
ATOM     17  C   UNL     1       2.383  15.104  18.507  0.00  0.00    +0.000 C 
ATOM     18  C   UNL     1       2.222  15.590  19.926  0.00  0.00    +0.000 C 
ATOM     19  C   UNL     1       1.262  16.099  18.863  0.00  0.00    +0.000 C 
ATOM     20  C   UNL     1       1.391  17.568  18.554  0.00  0.00    +0.000 C 
ATOM     21  C   UNL     1      -0.183  15.593  18.791  0.00  0.00    +0.000 C 
ATOM     22  H   UNL     1      -2.322  13.730  19.390  0.00  0.00    +0.000 HD
ENDBRANCH   6  11
BRANCH   1  25
ATOM     23  C   UNL     1       3.068   4.094  19.118  0.00  0.00    +0.000 C 
ATOM     24  O   UNL     1       3.085   2.973  19.637  0.00  0.00    +0.000 OA
ATOM     25  N   UNL     1       2.805   5.241  19.873  0.00  0.00    +0.000 N 
ATOM     26  C   UNL     1       2.520   5.119  21.301  0.00  0.00    +0.000 C 
BRANCH  23  28
ATOM     27  C   UNL     1       2.519   3.420  16.750  0.00  0.00    +0.000 C 
ATOM     28  C   UNL     1       3.454   4.259  17.631  0.00  0.00    +0.000 C 
BRANCH  28  29
ATOM     29  C   UNL     1       4.970   4.013  17.383  0.00  0.00    +0.000 C 
ATOM     30  C   UNL     1       5.826   4.827  18.375  0.00  0.00    +0.000 C 
ATOM     31  C   UNL     1       7.314   4.707  18.076  0.00  0.00    +0.000 C 
ATOM     32  O   UNL     1       7.587   5.073  16.726  0.00  0.00    +0.000 OA
ATOM     33  C   UNL     1       6.942   4.202  15.800  0.00  0.00    +0.000 C 
ATOM     34  C   UNL     1       5.425   4.288  15.939  0.00  0.00    +0.000 C 
ENDBRANCH  28  29
ENDBRANCH  23  28
ENDBRANCH   1  25
TORSDOF 4
ENDMDL
MODEL 7
REMARK VINA RESULT:      -8.4      5.348      8.049
REMARK  Name = 
REMARK  7 active torsions:
REMARK  status: ('A' for Active; 'I' for Inactive)
REMARK    1  A    between atoms: C_1  and  C_2
REMARK    2  A    between atoms: C_2  and  C_3
REMARK    3  A    between atoms: C_2  and  C_27
REMARK    4  A    between atoms: N_5  and  C_6
REMARK    5  A    between atoms: N_5  and  C_7
REMARK    6  A    between atoms: C_12  and  C_13
REMARK    7  A    between atoms: C_21  and  C_22
REMARK                            x       y       z     vdW  Elec       q    Type
REMARK                         _______ _______ _______ _____ _____    ______ ____
ROOT
ATOM      1  C   UNL     1       2.168   6.576  19.300  0.00  0.00    +0.000 A 
ATOM      2  C   UNL     1       2.195   7.188  18.036  0.00  0.00    +0.000 A 
ATOM      3  C   UNL     1       1.833   8.528  17.871  0.00  0.00    +0.000 A 
ATOM      4  C   UNL     1       1.484   9.224  19.029  0.00  0.00    +0.000 A 
ATOM      5  N   UNL     1       1.045  10.499  19.251  0.00  0.00    +0.000 N 
ATOM      6  C   UNL     1       0.913  10.686  20.604  0.00  0.00    +0.000 A 
ATOM      7  N   UNL     1       1.208   9.589  21.268  0.00  0.00    +0.000 NA
ATOM      8  C   UNL     1       1.535   8.668  20.304  0.00  0.00    +0.000 A 
ATOM      9  C   UNL     1       1.884   7.320  20.451  0.00  0.00    +0.000 A 
ATOM     10  H   UNL     1       0.847  11.215  18.568  0.00  0.00    +0.000 HD
ENDROOT
BRANCH   6  11
ATOM     11  C   UNL     1       0.466  11.981  21.184  0.00  0.00    +0.000 A 
ATOM     12  N   UNL     1       1.031  13.138  20.795  0.00  0.00    +0.000 NA
ATOM     13  N   UNL     1       0.327  14.077  21.456  0.00  0.00    +0.000 N 
ATOM     14  C   UNL     1      -0.632  13.552  22.262  0.00  0.00    +0.000 A 
ATOM     15  C   UNL     1      -0.547  12.183  22.142  0.00  0.00    +0.000 A 
ATOM     16  C   UNL     1      -1.438  11.251  22.892  0.00  0.00    +0.000 C 
ATOM     17  C   UNL     1      -2.675  11.941  23.462  0.00  0.00    +0.000 C 
ATOM     18  C   UNL     1      -3.590  12.639  22.488  0.00  0.00    +0.000 C 
ATOM     19  C   UNL     1      -2.821  13.473  23.500  0.00  0.00    +0.000 C 
ATOM     20  C   UNL     1      -3.682  14.153  24.532  0.00  0.00    +0.000 C 
ATOM     21  C   UNL     1      -1.608  14.311  23.080  0.00  0.00    +0.000 C 
ATOM     22  H   UNL     1       0.550  15.054  21.293  0.00  0.00    +0.000 HD
ENDBRANCH   6  11
BRANCH   1  25
ATOM     23  C   UNL     1       3.222   4.483  18.479  0.00  0.00    +0.000 C 
ATOM     24  O   UNL     1       3.285   3.249  18.507  0.00  0.00    +0.000 OA
ATOM     25  N   UNL     1       2.446   5.193  19.400  0.00  0.00    +0.000 N 
ATOM     26  C   UNL     1       1.672   4.470  20.405  0.00  0.00    +0.000 C 
BRANCH  23  28
ATOM     27  C   UNL     1       4.492   4.378  16.302  0.00  0.00    +0.000 C 
ATOM     28  C   UNL     1       4.100   5.274  17.484  0.00  0.00    +0.000 C 
BRANCH  28  29
ATOM     29  C   UNL     1       5.296   5.981  18.185  0.00  0.00    +0.000 C 
ATOM     30  C   UNL     1       6.157   6.746  17.158  0.00  0.00    +0.000 C 
ATOM     31  C   UNL     1       7.406   7.342  17.794  0.00  0.00    +0.000 C 
ATOM     32  O   UNL     1       8.160   6.335  18.463  0.00  0.00    +0.000 OA
ATOM     33  C   UNL     1       7.429   5.752  19.538  0.00  0.00    +0.000 C 
ATOM     34  C   UNL     1       6.179   5.042  19.025  0.00  0.00    +0.000 C 
ENDBRANCH  28  29
ENDBRANCH  23  28
ENDBRANCH   1  25
TORSDOF 4
ENDMDL
MODEL 8
REMARK VINA RESULT:      -8.3      5.634      9.771
REMARK  Name = 
REMARK  7 active torsions:
REMARK  status: ('A' for Active; 'I' for Inactive)
REMARK    1  A    between atoms: C_1  and  C_2
REMARK    2  A    between atoms: C_2  and  C_3
REMARK    3  A    between atoms: C_2  and  C_27
REMARK    4  A    between atoms: N_5  and  C_6
REMARK    5  A    between atoms: N_5  and  C_7
REMARK    6  A    between atoms: C_12  and  C_13
REMARK    7  A    between atoms: C_21  and  C_22
REMARK                            x       y       z     vdW  Elec       q    Type
REMARK                         _______ _______ _______ _____ _____    ______ ____
ROOT
ATOM      1  C   UNL     1      -0.142  11.142  20.098  0.00  0.00    +0.000 A 
ATOM      2  C   UNL     1      -0.039  10.741  21.440  0.00  0.00    +0.000 A 
ATOM      3  C   UNL     1       0.599   9.549  21.794  0.00  0.00    +0.000 A 
ATOM      4  C   UNL     1       1.156   8.809  20.751  0.00  0.00    +0.000 A 
ATOM      5  N   UNL     1       1.802   7.606  20.706  0.00  0.00    +0.000 N 
ATOM      6  C   UNL     1       2.205   7.374  19.415  0.00  0.00    +0.000 A 
ATOM      7  N   UNL     1       1.823   8.347  18.615  0.00  0.00    +0.000 NA
ATOM      8  C   UNL     1       1.149   9.227  19.423  0.00  0.00    +0.000 A 
ATOM      9  C   UNL     1       0.491  10.415  19.082  0.00  0.00    +0.000 A 
ATOM     10  H   UNL     1       1.981   6.968  21.468  0.00  0.00    +0.000 HD
ENDROOT
BRANCH   6  11
ATOM     11  C   UNL     1       2.955   6.149  19.028  0.00  0.00    +0.000 A 
ATOM     12  N   UNL     1       2.543   4.935  19.435  0.00  0.00    +0.000 NA
ATOM     13  N   UNL     1       3.398   4.087  18.833  0.00  0.00    +0.000 N 
ATOM     14  C   UNL     1       4.343   4.723  18.093  0.00  0.00    +0.000 A 
ATOM     15  C   UNL     1       4.111   6.073  18.226  0.00  0.00    +0.000 A 
ATOM     16  C   UNL     1       4.958   7.106  17.562  0.00  0.00    +0.000 C 
ATOM     17  C   UNL     1       5.816   6.537  16.435  0.00  0.00    +0.000 C 
ATOM     18  C   UNL     1       5.100   5.847  15.301  0.00  0.00    +0.000 C 
ATOM     19  C   UNL     1       5.991   5.023  16.215  0.00  0.00    +0.000 C 
ATOM     20  C   UNL     1       7.223   4.465  15.552  0.00  0.00    +0.000 C 
ATOM     21  C   UNL     1       5.394   4.081  17.268  0.00  0.00    +0.000 C 
ATOM     22  H   UNL     1       3.264   3.090  18.964  0.00  0.00    +0.000 HD
ENDBRANCH   6  11
BRANCH   1  25
ATOM     23  C   UNL     1      -0.376  13.604  19.871  0.00  0.00    +0.000 C 
ATOM     24  O   UNL     1      -1.112  14.590  19.762  0.00  0.00    +0.000 OA
ATOM     25  N   UNL     1      -0.883  12.304  19.782  0.00  0.00    +0.000 N 
ATOM     26  C   UNL     1      -2.315  12.097  19.581  0.00  0.00    +0.000 C 
BRANCH  23  28
ATOM     27  C   UNL     1       1.515  14.222  21.422  0.00  0.00    +0.000 C 
ATOM     28  C   UNL     1       1.153  13.795  19.993  0.00  0.00    +0.000 C 
BRANCH  28  29
ATOM     29  C   UNL     1       1.725  14.716  18.878  0.00  0.00    +0.000 C 
ATOM     30  C   UNL     1       3.138  14.259  18.462  0.00  0.00    +0.000 C 
ATOM     31  C   UNL     1       3.776  15.216  17.463  0.00  0.00    +0.000 C 
ATOM     32  O   UNL     1       3.786  16.545  17.976  0.00  0.00    +0.000 OA
ATOM     33  C   UNL     1       2.466  17.041  18.188  0.00  0.00    +0.000 C 
ATOM     34  C   UNL     1       1.735  16.212  19.240  0.00  0.00    +0.000 C 
ENDBRANCH  28  29
ENDBRANCH  23  28
ENDBRANCH   1  25
TORSDOF 4
ENDMDL
MODEL 9
REMARK VINA RESULT:      -8.2      5.803      8.065
REMARK  Name = 
REMARK  7 active torsions:
REMARK  status: ('A' for Active; 'I' for Inactive)
REMARK    1  A    between atoms: C_1  and  C_2
REMARK    2  A    between atoms: C_2  and  C_3
REMARK    3  A    between atoms: C_2  and  C_27
REMARK    4  A    between atoms: N_5  and  C_6
REMARK    5  A    between atoms: N_5  and  C_7
REMARK    6  A    between atoms: C_12  and  C_13
REMARK    7  A    between atoms: C_21  and  C_22
REMARK                            x       y       z     vdW  Elec       q    Type
REMARK                         _______ _______ _______ _____ _____    ______ ____
ROOT
ATOM      1  C   UNL     1       2.518   6.347  19.522  0.00  0.00    +0.000 A 
ATOM      2  C   UNL     1       2.992   6.790  18.277  0.00  0.00    +0.000 A 
ATOM      3  C   UNL     1       2.611   8.029  17.754  0.00  0.00    +0.000 A 
ATOM      4  C   UNL     1       1.773   8.809  18.552  0.00  0.00    +0.000 A 
ATOM      5  N   UNL     1       1.174  10.022  18.363  0.00  0.00    +0.000 N 
ATOM      6  C   UNL     1       0.500  10.360  19.510  0.00  0.00    +0.000 A 
ATOM      7  N   UNL     1       0.600   9.412  20.418  0.00  0.00    +0.000 NA
ATOM      8  C   UNL     1       1.362   8.434  19.828  0.00  0.00    +0.000 A 
ATOM      9  C   UNL     1       1.738   7.183  20.331  0.00  0.00    +0.000 A 
ATOM     10  H   UNL     1       1.202  10.608  17.541  0.00  0.00    +0.000 HD
ENDROOT
BRANCH   6  11
ATOM     11  C   UNL     1      -0.250  11.638  19.640  0.00  0.00    +0.000 A 
ATOM     12  N   UNL     1      -0.579  12.354  18.550  0.00  0.00    +0.000 NA
ATOM     13  N   UNL     1      -1.306  13.374  19.043  0.00  0.00    +0.000 N 
ATOM     14  C   UNL     1      -1.420  13.339  20.396  0.00  0.00    +0.000 A 
ATOM     15  C   UNL     1      -0.710  12.241  20.827  0.00  0.00    +0.000 A 
ATOM     16  C   UNL     1      -0.589  11.874  22.267  0.00  0.00    +0.000 C 
ATOM     17  C   UNL     1      -1.628  12.564  23.147  0.00  0.00    +0.000 C 
ATOM     18  C   UNL     1      -3.080  12.330  22.816  0.00  0.00    +0.000 C 
ATOM     19  C   UNL     1      -2.502  13.724  22.635  0.00  0.00    +0.000 C 
ATOM     20  C   UNL     1      -3.060  14.760  23.576  0.00  0.00    +0.000 C 
ATOM     21  C   UNL     1      -2.194  14.280  21.240  0.00  0.00    +0.000 C 
ATOM     22  H   UNL     1      -1.704  14.044  18.393  0.00  0.00    +0.000 HD
ENDBRANCH   6  11
BRANCH   1  25
ATOM     23  C   UNL     1       3.153   3.984  19.104  0.00  0.00    +0.000 C 
ATOM     24  O   UNL     1       3.258   2.827  19.525  0.00  0.00    +0.000 OA
ATOM     25  N   UNL     1       2.852   5.046  19.962  0.00  0.00    +0.000 N 
ATOM     26  C   UNL     1       2.631   4.790  21.383  0.00  0.00    +0.000 C 
BRANCH  23  28
ATOM     27  C   UNL     1       2.461   3.586  16.711  0.00  0.00    +0.000 C 
ATOM     28  C   UNL     1       3.470   4.295  17.624  0.00  0.00    +0.000 C 
BRANCH  28  29
ATOM     29  C   UNL     1       4.961   4.029  17.270  0.00  0.00    +0.000 C 
ATOM     30  C   UNL     1       5.897   4.778  18.241  0.00  0.00    +0.000 C 
ATOM     31  C   UNL     1       7.360   4.640  17.843  0.00  0.00    +0.000 C 
ATOM     32  O   UNL     1       7.558   5.062  16.497  0.00  0.00    +0.000 OA
ATOM     33  C   UNL     1       6.836   4.248  15.575  0.00  0.00    +0.000 C 
ATOM     34  C   UNL     1       5.332   4.359  15.814  0.00  0.00    +0.000 C 
ENDBRANCH  28  29
ENDBRANCH  23  28
ENDBRANCH   1  25
TORSDOF 4
ENDMDL
