MODEL 1
REMARK VINA RESULT:      -8.1      0.000      0.000
REMARK  Name = 
REMARK  12 active torsions:
REMARK  status: ('A' for Active; 'I' for Inactive)
REMARK    1  A    between atoms: C_2  and  C_3
REMARK    2  A    between atoms: C_3  and  N_4
REMARK    3  A    between atoms: N_11  and  C_12
REMARK    4  A    between atoms: C_12  and  C_13
REMARK    5  A    between atoms: C_12  and  C_26
REMARK    6  A    between atoms: C_16  and  C_17
REMARK    7  A    between atoms: N_19  and  C_20
REMARK    8  A    between atoms: N_19  and  C_22
REMARK    9  A    between atoms: C_20  and  C_21
REMARK   10  A    between atoms: C_22  and  C_23
REMARK   11  A    between atoms: C_30  and  O_31
REMARK   12  A    between atoms: O_31  and  C_32
REMARK                            x       y       z     vdW  Elec       q    Type
REMARK                         _______ _______ _______ _____ _____    ______ ____
ROOT
ATOM      1  C   UNL     1       3.413   6.063  18.769  0.00  0.00    +0.000 C 
ENDROOT
BRANCH   1   9
ATOM      2  N   UNL     1       5.909   5.299  15.480  0.00  0.00    +0.000 NA
ATOM      3  C   UNL     1       5.328   4.107  16.128  0.00  0.00    +0.000 C 
ATOM      4  C   UNL     1       4.749   4.365  17.554  0.00  0.00    +0.000 C 
ATOM      5  C   UNL     1       5.830   4.160  18.634  0.00  0.00    +0.000 C 
ATOM      6  C   UNL     1       6.395   5.552  18.885  0.00  0.00    +0.000 C 
ATOM      7  C   UNL     1       5.729   6.403  17.796  0.00  0.00    +0.000 C 
ATOM      8  C   UNL     1       6.550   6.200  16.454  0.00  0.00    +0.000 C 
ATOM      9  N   UNL     1       4.366   5.810  17.660  0.00  0.00    +0.000 NA
BRANCH   2  10
ATOM     10  C   UNL     1       6.765   4.975  14.342  0.00  0.00    +0.000 C 
BRANCH  10  12
ATOM     11  C   UNL     1       5.973   3.532  12.430  0.00  0.00    +0.000 C 
ATOM     12  C   UNL     1       6.361   3.674  13.705  0.00  0.00    +0.000 C 
ENDBRANCH  10  12
ENDBRANCH   2  10
ENDBRANCH   1   9
BRANCH   1  13
ATOM     13  C   UNL     1       2.742   7.452  18.812  0.00  0.00    +0.000 A 
ATOM     14  C   UNL     1       2.603   8.298  17.703  0.00  0.00    +0.000 A 
ATOM     15  C   UNL     1       1.685   9.376  17.732  0.00  0.00    +0.000 A 
ATOM     16  C   UNL     1       0.902   9.652  18.873  0.00  0.00    +0.000 A 
ATOM     17  C   UNL     1       1.128   8.877  20.007  0.00  0.00    +0.000 A 
ATOM     18  C   UNL     1       2.036   7.809  19.981  0.00  0.00    +0.000 A 
BRANCH  16  19
ATOM     19  C   UNL     1      -0.302  10.546  18.728  0.00  0.00    +0.000 C 
ATOM     20  O   UNL     1      -1.370   9.962  18.512  0.00  0.00    +0.000 OA
ATOM     21  N   UNL     1      -0.275  11.948  18.912  0.00  0.00    +0.000 N 
BRANCH  21  22
ATOM     22  C   UNL     1       0.940  12.773  18.983  0.00  0.00    +0.000 C 
ATOM     23  C   UNL     1       1.652  12.799  20.335  0.00  0.00    +0.000 C 
ENDBRANCH  21  22
BRANCH  21  24
ATOM     24  C   UNL     1      -1.566  12.588  19.225  0.00  0.00    +0.000 C 
ATOM     25  C   UNL     1      -1.920  12.497  20.704  0.00  0.00    +0.000 C 
ENDBRANCH  21  24
ENDBRANCH  16  19
ENDBRANCH   1  13
BRANCH   1  26
ATOM     26  C   UNL     1       2.335   4.960  18.870  0.00  0.00    +0.000 A 
ATOM     27  C   UNL     1       1.610   4.524  17.746  0.00  0.00    +0.000 A 
ATOM     28  C   UNL     1       0.681   3.490  17.848  0.00  0.00    +0.000 A 
ATOM     29  C   UNL     1       0.460   2.857  19.072  0.00  0.00    +0.000 A 
ATOM     30  C   UNL     1       1.170   3.258  20.201  0.00  0.00    +0.000 A 
ATOM     31  C   UNL     1       2.082   4.318  20.100  0.00  0.00    +0.000 A 
BRANCH  30  32
ATOM     32  O   UNL     1       1.047   2.709  21.449  0.00  0.00    +0.000 OA
ATOM     33  C   UNL     1       2.267   2.396  22.118  0.00  0.00    +0.000 C 
ENDBRANCH  30  32
ENDBRANCH   1  26
TORSDOF 9
ENDMDL
MODEL 2
REMARK VINA RESULT:      -7.8      1.111      1.702
REMARK  Name = 
REMARK  12 active torsions:
REMARK  status: ('A' for Active; 'I' for Inactive)
REMARK    1  A    between atoms: C_2  and  C_3
REMARK    2  A    between atoms: C_3  and  N_4
REMARK    3  A    between atoms: N_11  and  C_12
REMARK    4  A    between atoms: C_12  and  C_13
REMARK    5  A    between atoms: C_12  and  C_26
REMARK    6  A    between atoms: C_16  and  C_17
REMARK    7  A    between atoms: N_19  and  C_20
REMARK    8  A    between atoms: N_19  and  C_22
REMARK    9  A    between atoms: C_20  and  C_21
REMARK   10  A    between atoms: C_22  and  C_23
REMARK   11  A    between atoms: C_30  and  O_31
REMARK   12  A    between atoms: O_31  and  C_32
REMARK                            x       y       z     vdW  Elec       q    Type
REMARK                         _______ _______ _______ _____ _____    ______ ____
ROOT
ATOM      1  C   UNL     1       3.294   6.095  18.927  0.00  0.00    +0.000 C 
ENDROOT
BRANCH   1   9
ATOM      2  N   UNL     1       5.645   5.392  15.520  0.00  0.00    +0.000 NA
ATOM      3  C   UNL     1       5.141   4.185  16.205  0.00  0.00    +0.000 C 
ATOM      4  C   UNL     1       4.626   4.435  17.656  0.00  0.00    +0.000 C 
ATOM      5  C   UNL     1       5.768   4.277  18.681  0.00  0.00    +0.000 C 
ATOM      6  C   UNL     1       6.294   5.690  18.893  0.00  0.00    +0.000 C 
ATOM      7  C   UNL     1       5.544   6.508  17.834  0.00  0.00    +0.000 C 
ATOM      8  C   UNL     1       6.303   6.323  16.454  0.00  0.00    +0.000 C 
ATOM      9  N   UNL     1       4.198   5.866  17.772  0.00  0.00    +0.000 NA
BRANCH   2  10
ATOM     10  C   UNL     1       6.453   5.089  14.341  0.00  0.00    +0.000 C 
BRANCH  10  12
ATOM     11  C   UNL     1       6.297   3.490  12.396  0.00  0.00    +0.000 C 
ATOM     12  C   UNL     1       5.959   3.852  13.641  0.00  0.00    +0.000 C 
ENDBRANCH  10  12
ENDBRANCH   2  10
ENDBRANCH   1   9
BRANCH   1  13
ATOM     13  C   UNL     1       2.381   7.337  18.866  0.00  0.00    +0.000 A 
ATOM     14  C   UNL     1       1.717   7.887  19.971  0.00  0.00    +0.000 A 
ATOM     15  C   UNL     1       1.195   9.202  19.915  0.00  0.00    +0.000 A 
ATOM     16  C   UNL     1       1.300   9.993  18.750  0.00  0.00    +0.000 A 
ATOM     17  C   UNL     1       1.862   9.399  17.623  0.00  0.00    +0.000 A 
ATOM     18  C   UNL     1       2.379   8.097  17.676  0.00  0.00    +0.000 A 
BRANCH  16  19
ATOM     19  C   UNL     1       1.078  11.479  18.859  0.00  0.00    +0.000 C 
ATOM     20  O   UNL     1       2.104  12.159  18.973  0.00  0.00    +0.000 OA
ATOM     21  N   UNL     1      -0.188  12.101  18.751  0.00  0.00    +0.000 N 
BRANCH  21  22
ATOM     22  C   UNL     1      -1.483  11.407  18.804  0.00  0.00    +0.000 C 
ATOM     23  C   UNL     1      -2.104  11.045  17.456  0.00  0.00    +0.000 C 
ENDBRANCH  21  22
BRANCH  21  24
ATOM     24  C   UNL     1      -0.181  13.529  18.384  0.00  0.00    +0.000 C 
ATOM     25  C   UNL     1      -0.590  14.431  19.542  0.00  0.00    +0.000 C 
ENDBRANCH  21  24
ENDBRANCH  16  19
ENDBRANCH   1  13
BRANCH   1  26
ATOM     26  C   UNL     1       2.450   4.843  19.259  0.00  0.00    +0.000 A 
ATOM     27  C   UNL     1       1.625   4.228  18.300  0.00  0.00    +0.000 A 
ATOM     28  C   UNL     1       0.914   3.069  18.604  0.00  0.00    +0.000 A 
ATOM     29  C   UNL     1       1.018   2.486  19.868  0.00  0.00    +0.000 A 
ATOM     30  C   UNL     1       1.836   3.066  20.836  0.00  0.00    +0.000 A 
ATOM     31  C   UNL     1       2.526   4.248  20.535  0.00  0.00    +0.000 A 
BRANCH  30  32
ATOM     32  O   UNL     1       2.026   2.583  22.103  0.00  0.00    +0.000 OA
ATOM     33  C   UNL     1       0.881   2.016  22.735  0.00  0.00    +0.000 C 
ENDBRANCH  30  32
ENDBRANCH   1  26
TORSDOF 9
ENDMDL
MODEL 3
REMARK VINA RESULT:      -7.7      1.068      1.622
REMARK  Name = 
REMARK  12 active torsions:
REMARK  status: ('A' for Active; 'I' for Inactive)
REMARK    1  A    between atoms: C_2  and  C_3
REMARK    2  A    between atoms: C_3  and  N_4
REMARK    3  A    between atoms: N_11  and  C_12
REMARK    4  A    between atoms: C_12  and  C_13
REMARK    5  A    between atoms: C_12  and  C_26
REMARK    6  A    between atoms: C_16  and  C_17
REMARK    7  A    between atoms: N_19  and  C_20
REMARK    8  A    between atoms: N_19  and  C_22
REMARK    9  A    between atoms: C_20  and  C_21
REMARK   10  A    between atoms: C_22  and  C_23
REMARK   11  A    between atoms: C_30  and  O_31
REMARK   12  A    between atoms: O_31  and  C_32
REMARK                            x       y       z     vdW  Elec       q    Type
REMARK                         _______ _______ _______ _____ _____    ______ ____
ROOT
ATOM      1  C   UNL     1       3.332   6.049  18.729  0.00  0.00    +0.000 C 
ENDROOT
BRANCH   1   9
ATOM      2  N   UNL     1       5.715   5.376  15.337  0.00  0.00    +0.000 NA
ATOM      3  C   UNL     1       5.223   4.163  16.020  0.00  0.00    +0.000 C 
ATOM      4  C   UNL     1       4.696   4.407  17.468  0.00  0.00    +0.000 C 
ATOM      5  C   UNL     1       5.833   4.266  18.500  0.00  0.00    +0.000 C 
ATOM      6  C   UNL     1       6.338   5.687  18.714  0.00  0.00    +0.000 C 
ATOM      7  C   UNL     1       5.583   6.493  17.649  0.00  0.00    +0.000 C 
ATOM      8  C   UNL     1       6.353   6.318  16.274  0.00  0.00    +0.000 C 
ATOM      9  N   UNL     1       4.246   5.832  17.579  0.00  0.00    +0.000 NA
BRANCH   2  10
ATOM     10  C   UNL     1       6.534   5.084  14.164  0.00  0.00    +0.000 C 
BRANCH  10  12
ATOM     11  C   UNL     1       5.981   3.438  12.334  0.00  0.00    +0.000 C 
ATOM     12  C   UNL     1       6.242   3.712  13.619  0.00  0.00    +0.000 C 
ENDBRANCH  10  12
ENDBRANCH   2  10
ENDBRANCH   1   9
BRANCH   1  13
ATOM     13  C   UNL     1       2.668   7.438  18.841  0.00  0.00    +0.000 A 
ATOM     14  C   UNL     1       2.426   8.289  17.755  0.00  0.00    +0.000 A 
ATOM     15  C   UNL     1       1.515   9.367  17.876  0.00  0.00    +0.000 A 
ATOM     16  C   UNL     1       0.841   9.636  19.087  0.00  0.00    +0.000 A 
ATOM     17  C   UNL     1       1.172   8.854  20.190  0.00  0.00    +0.000 A 
ATOM     18  C   UNL     1       2.074   7.787  20.074  0.00  0.00    +0.000 A 
BRANCH  16  19
ATOM     19  C   UNL     1      -0.371  10.530  19.060  0.00  0.00    +0.000 C 
ATOM     20  O   UNL     1      -0.445  11.347  19.985  0.00  0.00    +0.000 OA
ATOM     21  N   UNL     1      -1.332  10.533  18.022  0.00  0.00    +0.000 N 
BRANCH  21  22
ATOM     22  C   UNL     1      -1.462   9.502  16.982  0.00  0.00    +0.000 C 
ATOM     23  C   UNL     1      -2.538   9.750  15.926  0.00  0.00    +0.000 C 
ENDBRANCH  21  22
BRANCH  21  24
ATOM     24  C   UNL     1      -2.142  11.757  17.889  0.00  0.00    +0.000 C 
ATOM     25  C   UNL     1      -3.452  11.678  18.665  0.00  0.00    +0.000 C 
ENDBRANCH  21  24
ENDBRANCH  16  19
ENDBRANCH   1  13
BRANCH   1  26
ATOM     26  C   UNL     1       2.254   4.946  18.828  0.00  0.00    +0.000 A 
ATOM     27  C   UNL     1       1.472   4.570  17.721  0.00  0.00    +0.000 A 
ATOM     28  C   UNL     1       0.544   3.535  17.817  0.00  0.00    +0.000 A 
ATOM     29  C   UNL     1       0.380   2.841  19.017  0.00  0.00    +0.000 A 
ATOM     30  C   UNL     1       1.148   3.183  20.128  0.00  0.00    +0.000 A 
ATOM     31  C   UNL     1       2.059   4.244  20.035  0.00  0.00    +0.000 A 
BRANCH  30  32
ATOM     32  O   UNL     1       1.085   2.572  21.352  0.00  0.00    +0.000 OA
ATOM     33  C   UNL     1       2.131   2.890  22.266  0.00  0.00    +0.000 C 
ENDBRANCH  30  32
ENDBRANCH   1  26
TORSDOF 9
ENDMDL
MODEL 4
REMARK VINA RESULT:      -7.3      1.324      2.197
REMARK  Name = 
REMARK  12 active torsions:
REMARK  status: ('A' for Active; 'I' for Inactive)
REMARK    1  A    between atoms: C_2  and  C_3
REMARK    2  A    between atoms: C_3  and  N_4
REMARK    3  A    between atoms: N_11  and  C_12
REMARK    4  A    between atoms: C_12  and  C_13
REMARK    5  A    between atoms: C_12  and  C_26
REMARK    6  A    between atoms: C_16  and  C_17
REMARK    7  A    between atoms: N_19  and  C_20
REMARK    8  A    between atoms: N_19  and  C_22
REMARK    9  A    between atoms: C_20  and  C_21
REMARK   10  A    between atoms: C_22  and  C_23
REMARK   11  A    between atoms: C_30  and  O_31
REMARK   12  A    between atoms: O_31  and  C_32
REMARK                            x       y       z     vdW  Elec       q    Type
REMARK                         _______ _______ _______ _____ _____    ______ ____
ROOT
ATOM      1  C   UNL     1       3.576   6.133  19.257  0.00  0.00    +0.000 C 
ENDROOT
BRANCH   1   9
ATOM      2  N   UNL     1       5.690   5.134  15.769  0.00  0.00    +0.000 NA
ATOM      3  C   UNL     1       5.317   3.998  16.634  0.00  0.00    +0.000 C 
ATOM      4  C   UNL     1       4.904   4.400  18.084  0.00  0.00    +0.000 C 
ATOM      5  C   UNL     1       6.131   4.430  19.019  0.00  0.00    +0.000 C 
ATOM      6  C   UNL     1       6.584   5.884  19.014  0.00  0.00    +0.000 C 
ATOM      7  C   UNL     1       5.702   6.523  17.932  0.00  0.00    +0.000 C 
ATOM      8  C   UNL     1       6.360   6.208  16.524  0.00  0.00    +0.000 C 
ATOM      9  N   UNL     1       4.399   5.810  18.064  0.00  0.00    +0.000 NA
BRANCH   2  10
ATOM     10  C   UNL     1       6.419   4.729  14.570  0.00  0.00    +0.000 C 
BRANCH  10  12
ATOM     11  C   UNL     1       5.940   3.392  12.485  0.00  0.00    +0.000 C 
ATOM     12  C   UNL     1       5.524   4.003  13.603  0.00  0.00    +0.000 C 
ENDBRANCH  10  12
ENDBRANCH   2  10
ENDBRANCH   1   9
BRANCH   1  13
ATOM     13  C   UNL     1       2.561   7.286  19.114  0.00  0.00    +0.000 A 
ATOM     14  C   UNL     1       1.803   7.808  20.171  0.00  0.00    +0.000 A 
ATOM     15  C   UNL     1       1.169   9.069  20.048  0.00  0.00    +0.000 A 
ATOM     16  C   UNL     1       1.256   9.829  18.862  0.00  0.00    +0.000 A 
ATOM     17  C   UNL     1       1.917   9.254  17.780  0.00  0.00    +0.000 A 
ATOM     18  C   UNL     1       2.545   8.006  17.899  0.00  0.00    +0.000 A 
BRANCH  16  19
ATOM     19  C   UNL     1       0.898  11.292  18.909  0.00  0.00    +0.000 C 
ATOM     20  O   UNL     1       1.854  12.064  19.040  0.00  0.00    +0.000 OA
ATOM     21  N   UNL     1      -0.412  11.794  18.729  0.00  0.00    +0.000 N 
BRANCH  21  22
ATOM     22  C   UNL     1      -1.641  10.989  18.755  0.00  0.00    +0.000 C 
ATOM     23  C   UNL     1      -2.115  10.447  17.407  0.00  0.00    +0.000 C 
ENDBRANCH  21  22
BRANCH  21  24
ATOM     24  C   UNL     1      -0.515  13.205  18.313  0.00  0.00    +0.000 C 
ATOM     25  C   UNL     1      -0.871  14.131  19.470  0.00  0.00    +0.000 C 
ENDBRANCH  21  24
ENDBRANCH  16  19
ENDBRANCH   1  13
BRANCH   1  26
ATOM     26  C   UNL     1       2.870   4.884  19.830  0.00  0.00    +0.000 A 
ATOM     27  C   UNL     1       2.621   4.736  21.206  0.00  0.00    +0.000 A 
ATOM     28  C   UNL     1       1.934   3.628  21.696  0.00  0.00    +0.000 A 
ATOM     29  C   UNL     1       1.465   2.644  20.824  0.00  0.00    +0.000 A 
ATOM     30  C   UNL     1       1.685   2.767  19.454  0.00  0.00    +0.000 A 
ATOM     31  C   UNL     1       2.403   3.869  18.969  0.00  0.00    +0.000 A 
BRANCH  30  32
ATOM     32  O   UNL     1       1.267   1.876  18.502  0.00  0.00    +0.000 OA
ATOM     33  C   UNL     1       2.091   1.764  17.344  0.00  0.00    +0.000 C 
ENDBRANCH  30  32
ENDBRANCH   1  26
TORSDOF 9
ENDMDL
MODEL 5
REMARK VINA RESULT:      -7.2      1.095      1.202
REMARK  Name = 
REMARK  12 active torsions:
REMARK  status: ('A' for Active; 'I' for Inactive)
REMARK    1  A    between atoms: C_2  and  C_3
REMARK    2  A    between atoms: C_3  and  N_4
REMARK    3  A    between atoms: N_11  and  C_12
REMARK    4  A    between atoms: C_12  and  C_13
REMARK    5  A    between atoms: C_12  and  C_26
REMARK    6  A    between atoms: C_16  and  C_17
REMARK    7  A    between atoms: N_19  and  C_20
REMARK    8  A    between atoms: N_19  and  C_22
REMARK    9  A    between atoms: C_20  and  C_21
REMARK   10  A    between atoms: C_22  and  C_23
REMARK   11  A    between atoms: C_30  and  O_31
REMARK   12  A    between atoms: O_31  and  C_32
REMARK                            x       y       z     vdW  Elec       q    Type
REMARK                         _______ _______ _______ _____ _____    ______ ____
ROOT
ATOM      1  C   UNL     1       3.870   5.897  18.502  0.00  0.00    +0.000 C 
ENDROOT
BRANCH   1   9
ATOM      2  N   UNL     1       5.452   4.667  14.812  0.00  0.00    +0.000 NA
ATOM      3  C   UNL     1       5.687   3.748  15.943  0.00  0.00    +0.000 C 
ATOM      4  C   UNL     1       5.460   4.384  17.350  0.00  0.00    +0.000 C 
ATOM      5  C   UNL     1       6.758   5.026  17.881  0.00  0.00    +0.000 C 
ATOM      6  C   UNL     1       6.657   6.491  17.480  0.00  0.00    +0.000 C 
ATOM      7  C   UNL     1       5.408   6.526  16.588  0.00  0.00    +0.000 C 
ATOM      8  C   UNL     1       5.837   6.052  15.137  0.00  0.00    +0.000 C 
ATOM      9  N   UNL     1       4.495   5.522  17.209  0.00  0.00    +0.000 NA
BRANCH   2  10
ATOM     10  C   UNL     1       6.020   4.189  13.555  0.00  0.00    +0.000 C 
BRANCH  10  12
ATOM     11  C   UNL     1       4.582   3.505  11.599  0.00  0.00    +0.000 C 
ATOM     12  C   UNL     1       5.062   3.284  12.830  0.00  0.00    +0.000 C 
ENDBRANCH  10  12
ENDBRANCH   2  10
ENDBRANCH   1   9
BRANCH   1  13
ATOM     13  C   UNL     1       3.100   7.233  18.545  0.00  0.00    +0.000 A 
ATOM     14  C   UNL     1       2.998   8.123  17.467  0.00  0.00    +0.000 A 
ATOM     15  C   UNL     1       2.005   9.133  17.460  0.00  0.00    +0.000 A 
ATOM     16  C   UNL     1       1.107   9.297  18.536  0.00  0.00    +0.000 A 
ATOM     17  C   UNL     1       1.287   8.482  19.651  0.00  0.00    +0.000 A 
ATOM     18  C   UNL     1       2.269   7.481  19.660  0.00  0.00    +0.000 A 
BRANCH  16  19
ATOM     19  C   UNL     1      -0.141  10.114  18.322  0.00  0.00    +0.000 C 
ATOM     20  O   UNL     1      -0.989   9.597  17.587  0.00  0.00    +0.000 OA
ATOM     21  N   UNL     1      -0.404  11.344  18.970  0.00  0.00    +0.000 N 
BRANCH  21  22
ATOM     22  C   UNL     1       0.583  12.145  19.706  0.00  0.00    +0.000 C 
ATOM     23  C   UNL     1       0.879  11.693  21.136  0.00  0.00    +0.000 C 
ENDBRANCH  21  22
BRANCH  21  24
ATOM     24  C   UNL     1      -1.820  11.748  19.045  0.00  0.00    +0.000 C 
ATOM     25  C   UNL     1      -2.048  12.900  20.016  0.00  0.00    +0.000 C 
ENDBRANCH  21  24
ENDBRANCH  16  19
ENDBRANCH   1  13
BRANCH   1  26
ATOM     26  C   UNL     1       2.981   4.764  19.066  0.00  0.00    +0.000 A 
ATOM     27  C   UNL     1       1.723   4.463  18.514  0.00  0.00    +0.000 A 
ATOM     28  C   UNL     1       0.961   3.403  19.002  0.00  0.00    +0.000 A 
ATOM     29  C   UNL     1       1.441   2.608  20.044  0.00  0.00    +0.000 A 
ATOM     30  C   UNL     1       2.689   2.874  20.604  0.00  0.00    +0.000 A 
ATOM     31  C   UNL     1       3.438   3.960  20.130  0.00  0.00    +0.000 A 
BRANCH  30  32
ATOM     32  O   UNL     1       3.268   2.162  21.620  0.00  0.00    +0.000 OA
ATOM     33  C   UNL     1       4.532   1.570  21.329  0.00  0.00    +0.000 C 
ENDBRANCH  30  32
ENDBRANCH   1  26
TORSDOF 9
ENDMDL
MODEL 6
REMARK VINA RESULT:      -7.1      1.351      1.744
REMARK  Name = 
REMARK  12 active torsions:
REMARK  status: ('A' for Active; 'I' for Inactive)
REMARK    1  A    between atoms: C_2  and  C_3
REMARK    2  A    between atoms: C_3  and  N_4
REMARK    3  A    between atoms: N_11  and  C_12
REMARK    4  A    between atoms: C_12  and  C_13
REMARK    5  A    between atoms: C_12  and  C_26
REMARK    6  A    between atoms: C_16  and  C_17
REMARK    7  A    between atoms: N_19  and  C_20
REMARK    8  A    between atoms: N_19  and  C_22
REMARK    9  A    between atoms: C_20  and  C_21
REMARK   10  A    between atoms: C_22  and  C_23
REMARK   11  A    between atoms: C_30  and  O_31
REMARK   12  A    between atoms: O_31  and  C_32
REMARK                            x       y       z     vdW  Elec       q    Type
REMARK                         _______ _______ _______ _____ _____    ______ ____
ROOT
ATOM      1  C   UNL     1       3.583   5.881  18.782  0.00  0.00    +0.000 C 
ENDROOT
BRANCH   1   9
ATOM      2  N   UNL     1       5.443   5.056  15.109  0.00  0.00    +0.000 NA
ATOM      3  C   UNL     1       5.431   3.944  16.079  0.00  0.00    +0.000 C 
ATOM      4  C   UNL     1       5.112   4.371  17.546  0.00  0.00    +0.000 C 
ATOM      5  C   UNL     1       6.402   4.736  18.307  0.00  0.00    +0.000 C 
ATOM      6  C   UNL     1       6.523   6.247  18.160  0.00  0.00    +0.000 C 
ATOM      7  C   UNL     1       5.404   6.594  17.169  0.00  0.00    +0.000 C 
ATOM      8  C   UNL     1       5.946   6.306  15.707  0.00  0.00    +0.000 C 
ATOM      9  N   UNL     1       4.312   5.637  17.512  0.00  0.00    +0.000 NA
BRANCH   2  10
ATOM     10  C   UNL     1       6.099   4.713  13.850  0.00  0.00    +0.000 C 
BRANCH  10  12
ATOM     11  C   UNL     1       5.738   3.009  12.025  0.00  0.00    +0.000 C 
ATOM     12  C   UNL     1       5.279   3.735  13.053  0.00  0.00    +0.000 C 
ENDBRANCH  10  12
ENDBRANCH   2  10
ENDBRANCH   1   9
BRANCH   1  13
ATOM     13  C   UNL     1       2.619   7.086  18.815  0.00  0.00    +0.000 A 
ATOM     14  C   UNL     1       1.942   7.525  19.961  0.00  0.00    +0.000 A 
ATOM     15  C   UNL     1       1.366   8.818  20.003  0.00  0.00    +0.000 A 
ATOM     16  C   UNL     1       1.429   9.695  18.899  0.00  0.00    +0.000 A 
ATOM     17  C   UNL     1       2.005   9.209  17.728  0.00  0.00    +0.000 A 
ATOM     18  C   UNL     1       2.577   7.929  17.684  0.00  0.00    +0.000 A 
BRANCH  16  19
ATOM     19  C   UNL     1       1.146  11.158  19.116  0.00  0.00    +0.000 C 
ATOM     20  O   UNL     1       1.875  11.935  18.489  0.00  0.00    +0.000 OA
ATOM     21  N   UNL     1       0.076  11.651  19.899  0.00  0.00    +0.000 N 
BRANCH  21  22
ATOM     22  C   UNL     1      -0.732  10.854  20.832  0.00  0.00    +0.000 C 
ATOM     23  C   UNL     1      -0.499  11.124  22.318  0.00  0.00    +0.000 C 
ENDBRANCH  21  22
BRANCH  21  24
ATOM     24  C   UNL     1      -0.356  13.032  19.613  0.00  0.00    +0.000 C 
ATOM     25  C   UNL     1      -1.872  13.185  19.629  0.00  0.00    +0.000 C 
ENDBRANCH  21  24
ENDBRANCH  16  19
ENDBRANCH   1  13
BRANCH   1  26
ATOM     26  C   UNL     1       2.853   4.615  19.283  0.00  0.00    +0.000 A 
ATOM     27  C   UNL     1       1.630   4.193  18.729  0.00  0.00    +0.000 A 
ATOM     28  C   UNL     1       1.015   3.019  19.157  0.00  0.00    +0.000 A 
ATOM     29  C   UNL     1       1.610   2.227  20.141  0.00  0.00    +0.000 A 
ATOM     30  C   UNL     1       2.826   2.612  20.702  0.00  0.00    +0.000 A 
ATOM     31  C   UNL     1       3.426   3.810  20.289  0.00  0.00    +0.000 A 
BRANCH  30  32
ATOM     32  O   UNL     1       3.509   1.916  21.664  0.00  0.00    +0.000 OA
ATOM     33  C   UNL     1       4.790   1.419  21.286  0.00  0.00    +0.000 C 
ENDBRANCH  30  32
ENDBRANCH   1  26
TORSDOF 9
ENDMDL
MODEL 7
REMARK VINA RESULT:      -7.1      1.152      1.505
REMARK  Name = 
REMARK  12 active torsions:
REMARK  status: ('A' for Active; 'I' for Inactive)
REMARK    1  A    between atoms: C_2  and  C_3
REMARK    2  A    between atoms: C_3  and  N_4
REMARK    3  A    between atoms: N_11  and  C_12
REMARK    4  A    between atoms: C_12  and  C_13
REMARK    5  A    between atoms: C_12  and  C_26
REMARK    6  A    between atoms: C_16  and  C_17
REMARK    7  A    between atoms: N_19  and  C_20
REMARK    8  A    between atoms: N_19  and  C_22
REMARK    9  A    between atoms: C_20  and  C_21
REMARK   10  A    between atoms: C_22  and  C_23
REMARK   11  A    between atoms: C_30  and  O_31
REMARK   12  A    between atoms: O_31  and  C_32
REMARK                            x       y       z     vdW  Elec       q    Type
REMARK                         _______ _______ _______ _____ _____    ______ ____
ROOT
ATOM      1  C   UNL     1       3.713   6.109  18.772  0.00  0.00    +0.000 C 
ENDROOT
BRANCH   1   9
ATOM      2  N   UNL     1       5.653   4.690  15.329  0.00  0.00    +0.000 NA
ATOM      3  C   UNL     1       6.109   4.102  16.603  0.00  0.00    +0.000 C 
ATOM      4  C   UNL     1       5.684   4.904  17.872  0.00  0.00    +0.000 C 
ATOM      5  C   UNL     1       6.742   5.967  18.233  0.00  0.00    +0.000 C 
ATOM      6  C   UNL     1       6.248   7.244  17.567  0.00  0.00    +0.000 C 
ATOM      7  C   UNL     1       5.058   6.765  16.726  0.00  0.00    +0.000 C 
ATOM      8  C   UNL     1       5.632   6.163  15.375  0.00  0.00    +0.000 C 
ATOM      9  N   UNL     1       4.446   5.684  17.552  0.00  0.00    +0.000 NA
BRANCH   2  10
ATOM     10  C   UNL     1       6.358   4.159  14.165  0.00  0.00    +0.000 C 
BRANCH  10  12
ATOM     11  C   UNL     1       5.668   3.036  12.015  0.00  0.00    +0.000 C 
ATOM     12  C   UNL     1       5.408   3.862  13.037  0.00  0.00    +0.000 C 
ENDBRANCH  10  12
ENDBRANCH   2  10
ENDBRANCH   1   9
BRANCH   1  13
ATOM     13  C   UNL     1       2.927   7.434  18.689  0.00  0.00    +0.000 A 
ATOM     14  C   UNL     1       2.666   8.127  17.499  0.00  0.00    +0.000 A 
ATOM     15  C   UNL     1       1.660   9.122  17.453  0.00  0.00    +0.000 A 
ATOM     16  C   UNL     1       0.906   9.469  18.594  0.00  0.00    +0.000 A 
ATOM     17  C   UNL     1       1.248   8.855  19.797  0.00  0.00    +0.000 A 
ATOM     18  C   UNL     1       2.244   7.869  19.846  0.00  0.00    +0.000 A 
BRANCH  16  19
ATOM     19  C   UNL     1      -0.376  10.238  18.412  0.00  0.00    +0.000 C 
ATOM     20  O   UNL     1      -1.247   9.663  17.749  0.00  0.00    +0.000 OA
ATOM     21  N   UNL     1      -0.642  11.490  19.014  0.00  0.00    +0.000 N 
BRANCH  21  22
ATOM     22  C   UNL     1       0.359  12.354  19.657  0.00  0.00    +0.000 C 
ATOM     23  C   UNL     1       1.370  13.016  18.721  0.00  0.00    +0.000 C 
ENDBRANCH  21  22
BRANCH  21  24
ATOM     24  C   UNL     1      -2.063  11.857  19.149  0.00  0.00    +0.000 C 
ATOM     25  C   UNL     1      -2.316  12.792  20.326  0.00  0.00    +0.000 C 
ENDBRANCH  21  24
ENDBRANCH  16  19
ENDBRANCH   1  13
BRANCH   1  26
ATOM     26  C   UNL     1       2.795   4.990  19.315  0.00  0.00    +0.000 A 
ATOM     27  C   UNL     1       1.752   5.259  20.220  0.00  0.00    +0.000 A 
ATOM     28  C   UNL     1       0.901   4.245  20.655  0.00  0.00    +0.000 A 
ATOM     29  C   UNL     1       1.061   2.939  20.189  0.00  0.00    +0.000 A 
ATOM     30  C   UNL     1       2.077   2.644  19.283  0.00  0.00    +0.000 A 
ATOM     31  C   UNL     1       2.949   3.661  18.871  0.00  0.00    +0.000 A 
BRANCH  30  32
ATOM     32  O   UNL     1       2.326   1.407  18.749  0.00  0.00    +0.000 OA
ATOM     33  C   UNL     1       3.680   1.140  18.394  0.00  0.00    +0.000 C 
ENDBRANCH  30  32
ENDBRANCH   1  26
TORSDOF 9
ENDMDL
MODEL 8
REMARK VINA RESULT:      -7.1      0.892      1.053
REMARK  Name = 
REMARK  12 active torsions:
REMARK  status: ('A' for Active; 'I' for Inactive)
REMARK    1  A    between atoms: C_2  and  C_3
REMARK    2  A    between atoms: C_3  and  N_4
REMARK    3  A    between atoms: N_11  and  C_12
REMARK    4  A    between atoms: C_12  and  C_13
REMARK    5  A    between atoms: C_12  and  C_26
REMARK    6  A    between atoms: C_16  and  C_17
REMARK    7  A    between atoms: N_19  and  C_20
REMARK    8  A    between atoms: N_19  and  C_22
REMARK    9  A    between atoms: C_20  and  C_21
REMARK   10  A    between atoms: C_22  and  C_23
REMARK   11  A    between atoms: C_30  and  O_31
REMARK   12  A    between atoms: O_31  and  C_32
REMARK                            x       y       z     vdW  Elec       q    Type
REMARK                         _______ _______ _______ _____ _____    ______ ____
ROOT
ATOM      1  C   UNL     1       3.455   5.788  18.573  0.00  0.00    +0.000 C 
ENDROOT
BRANCH   1   9
ATOM      2  N   UNL     1       5.668   4.870  15.124  0.00  0.00    +0.000 NA
ATOM      3  C   UNL     1       5.519   3.770  16.096  0.00  0.00    +0.000 C 
ATOM      4  C   UNL     1       5.060   4.221  17.517  0.00  0.00    +0.000 C 
ATOM      5  C   UNL     1       6.273   4.557  18.409  0.00  0.00    +0.000 C 
ATOM      6  C   UNL     1       6.454   6.062  18.263  0.00  0.00    +0.000 C 
ATOM      7  C   UNL     1       5.457   6.431  17.157  0.00  0.00    +0.000 C 
ATOM      8  C   UNL     1       6.142   6.111  15.763  0.00  0.00    +0.000 C 
ATOM      9  N   UNL     1       4.306   5.510  17.389  0.00  0.00    +0.000 NA
BRANCH   2  10
ATOM     10  C   UNL     1       6.442   4.496  13.944  0.00  0.00    +0.000 C 
BRANCH  10  12
ATOM     11  C   UNL     1       8.289   5.679  12.698  0.00  0.00    +0.000 C 
ATOM     12  C   UNL     1       7.713   5.295  13.845  0.00  0.00    +0.000 C 
ENDBRANCH  10  12
ENDBRANCH   2  10
ENDBRANCH   1   9
BRANCH   1  13
ATOM     13  C   UNL     1       2.830   7.195  18.669  0.00  0.00    +0.000 A 
ATOM     14  C   UNL     1       2.755   8.103  17.604  0.00  0.00    +0.000 A 
ATOM     15  C   UNL     1       1.873   9.209  17.662  0.00  0.00    +0.000 A 
ATOM     16  C   UNL     1       1.062   9.452  18.791  0.00  0.00    +0.000 A 
ATOM     17  C   UNL     1       1.223   8.610  19.888  0.00  0.00    +0.000 A 
ATOM     18  C   UNL     1       2.096   7.514  19.833  0.00  0.00    +0.000 A 
BRANCH  16  19
ATOM     19  C   UNL     1      -0.106  10.394  18.657  0.00  0.00    +0.000 C 
ATOM     20  O   UNL     1      -0.786  10.248  17.634  0.00  0.00    +0.000 OA
ATOM     21  N   UNL     1      -0.489  11.328  19.647  0.00  0.00    +0.000 N 
BRANCH  21  22
ATOM     22  C   UNL     1       0.328  11.726  20.802  0.00  0.00    +0.000 C 
ATOM     23  C   UNL     1       0.044  10.987  22.109  0.00  0.00    +0.000 C 
ENDBRANCH  21  22
BRANCH  21  24
ATOM     24  C   UNL     1      -1.886  11.797  19.593  0.00  0.00    +0.000 C 
ATOM     25  C   UNL     1      -2.105  13.077  20.390  0.00  0.00    +0.000 C 
ENDBRANCH  21  24
ENDBRANCH  16  19
ENDBRANCH   1  13
BRANCH   1  26
ATOM     26  C   UNL     1       2.358   4.716  18.763  0.00  0.00    +0.000 A 
ATOM     27  C   UNL     1       1.564   4.267  17.692  0.00  0.00    +0.000 A 
ATOM     28  C   UNL     1       0.618   3.260  17.873  0.00  0.00    +0.000 A 
ATOM     29  C   UNL     1       0.447   2.667  19.125  0.00  0.00    +0.000 A 
ATOM     30  C   UNL     1       1.227   3.081  20.203  0.00  0.00    +0.000 A 
ATOM     31  C   UNL     1       2.157   4.115  20.022  0.00  0.00    +0.000 A 
BRANCH  30  32
ATOM     32  O   UNL     1       1.159   2.570  21.471  0.00  0.00    +0.000 OA
ATOM     33  C   UNL     1       2.288   2.812  22.306  0.00  0.00    +0.000 C 
ENDBRANCH  30  32
ENDBRANCH   1  26
TORSDOF 9
ENDMDL
MODEL 9
REMARK VINA RESULT:      -6.9      1.022      1.605
REMARK  Name = 
REMARK  12 active torsions:
REMARK  status: ('A' for Active; 'I' for Inactive)
REMARK    1  A    between atoms: C_2  and  C_3
REMARK    2  A    between atoms: C_3  and  N_4
REMARK    3  A    between atoms: N_11  and  C_12
REMARK    4  A    between atoms: C_12  and  C_13
REMARK    5  A    between atoms: C_12  and  C_26
REMARK    6  A    between atoms: C_16  and  C_17
REMARK    7  A    between atoms: N_19  and  C_20
REMARK    8  A    between atoms: N_19  and  C_22
REMARK    9  A    between atoms: C_20  and  C_21
REMARK   10  A    between atoms: C_22  and  C_23
REMARK   11  A    between atoms: C_30  and  O_31
REMARK   12  A    between atoms: O_31  and  C_32
REMARK                            x       y       z     vdW  Elec       q    Type
REMARK                         _______ _______ _______ _____ _____    ______ ____
ROOT
ATOM      1  C   UNL     1       3.626   6.215  18.874  0.00  0.00    +0.000 C 
ENDROOT
BRANCH   1   9
ATOM      2  N   UNL     1       5.143   4.737  15.249  0.00  0.00    +0.000 NA
ATOM      3  C   UNL     1       5.307   3.848  16.416  0.00  0.00    +0.000 C 
ATOM      4  C   UNL     1       5.115   4.553  17.795  0.00  0.00    +0.000 C 
ATOM      5  C   UNL     1       6.450   5.124  18.314  0.00  0.00    +0.000 C 
ATOM      6  C   UNL     1       6.453   6.576  17.855  0.00  0.00    +0.000 C 
ATOM      7  C   UNL     1       5.216   6.662  16.952  0.00  0.00    +0.000 C 
ATOM      8  C   UNL     1       5.621   6.104  15.523  0.00  0.00    +0.000 C 
ATOM      9  N   UNL     1       4.232   5.748  17.602  0.00  0.00    +0.000 NA
BRANCH   2  10
ATOM     10  C   UNL     1       5.685   4.172  14.016  0.00  0.00    +0.000 C 
BRANCH  10  12
ATOM     11  C   UNL     1       7.579   5.008  12.575  0.00  0.00    +0.000 C 
ATOM     12  C   UNL     1       7.092   4.644  13.769  0.00  0.00    +0.000 C 
ENDBRANCH  10  12
ENDBRANCH   2  10
ENDBRANCH   1   9
BRANCH   1  13
ATOM     13  C   UNL     1       2.821   7.530  18.824  0.00  0.00    +0.000 A 
ATOM     14  C   UNL     1       2.650   8.310  17.672  0.00  0.00    +0.000 A 
ATOM     15  C   UNL     1       1.630   9.291  17.613  0.00  0.00    +0.000 A 
ATOM     16  C   UNL     1       0.773   9.536  18.706  0.00  0.00    +0.000 A 
ATOM     17  C   UNL     1       1.021   8.836  19.884  0.00  0.00    +0.000 A 
ATOM     18  C   UNL     1       2.030   7.864  19.945  0.00  0.00    +0.000 A 
BRANCH  16  19
ATOM     19  C   UNL     1      -0.505  10.298  18.470  0.00  0.00    +0.000 C 
ATOM     20  O   UNL     1      -1.368   9.694  17.824  0.00  0.00    +0.000 OA
ATOM     21  N   UNL     1      -0.776  11.577  19.010  0.00  0.00    +0.000 N 
BRANCH  21  22
ATOM     22  C   UNL     1       0.217  12.469  19.624  0.00  0.00    +0.000 C 
ATOM     23  C   UNL     1       0.986  13.376  18.664  0.00  0.00    +0.000 C 
ENDBRANCH  21  22
BRANCH  21  24
ATOM     24  C   UNL     1      -2.199  11.953  19.108  0.00  0.00    +0.000 C 
ATOM     25  C   UNL     1      -2.502  12.774  20.356  0.00  0.00    +0.000 C 
ENDBRANCH  21  24
ENDBRANCH  16  19
ENDBRANCH   1  13
BRANCH   1  26
ATOM     26  C   UNL     1       2.781   5.112  19.552  0.00  0.00    +0.000 A 
ATOM     27  C   UNL     1       2.819   4.895  20.941  0.00  0.00    +0.000 A 
ATOM     28  C   UNL     1       2.009   3.932  21.539  0.00  0.00    +0.000 A 
ATOM     29  C   UNL     1       1.129   3.170  20.769  0.00  0.00    +0.000 A 
ATOM     30  C   UNL     1       1.059   3.370  19.392  0.00  0.00    +0.000 A 
ATOM     31  C   UNL     1       1.898   4.319  18.791  0.00  0.00    +0.000 A 
BRANCH  30  32
ATOM     32  O   UNL     1       0.232   2.694  18.535  0.00  0.00    +0.000 OA
ATOM     33  C   UNL     1       0.585   1.339  18.264  0.00  0.00    +0.000 C 
ENDBRANCH  30  32
ENDBRANCH   1  26
TORSDOF 9
ENDMDL
