MODEL 1
REMARK VINA RESULT:      -8.5      0.000      0.000
REMARK  Name = 
REMARK  5 active torsions:
REMARK  status: ('A' for Active; 'I' for Inactive)
REMARK    1  A    between atoms: C_1  and  C_2
REMARK    2  A    between atoms: C_2  and  C_4
REMARK    3  A    between atoms: N_6  and  C_7
REMARK    4  A    between atoms: N_16  and  C_17
REMARK    5  A    between atoms: C_17  and  C_18
REMARK                            x       y       z     vdW  Elec       q    Type
REMARK                         _______ _______ _______ _____ _____    ______ ____
ROOT
ATOM      1  C   UNL     1       2.822   3.811  19.695  0.00  0.00    +0.000 A 
ATOM      2  C   UNL     1       2.234   5.002  19.525  0.00  0.00    +0.000 A 
ATOM      3  N   UNL     1       2.896   6.139  19.075  0.00  0.00    +0.000 N 
ATOM      4  C   UNL     1       4.243   6.043  18.647  0.00  0.00    +0.000 A 
ATOM      5  O   UNL     1       4.933   7.006  18.305  0.00  0.00    +0.000 OA
ATOM      6  N   UNL     1       4.815   4.768  18.704  0.00  0.00    +0.000 N 
ATOM      7  C   UNL     1       4.259   3.703  19.386  0.00  0.00    +0.000 A 
ATOM      8  O   UNL     1       4.903   2.716  19.737  0.00  0.00    +0.000 OA
ENDROOT
BRANCH   3   9
ATOM      9  C   UNL     1       2.243   7.439  19.101  0.00  0.00    +0.000 A 
ATOM     10  C   UNL     1       1.721   7.993  20.284  0.00  0.00    +0.000 A 
ATOM     11  C   UNL     1       0.994   9.190  20.281  0.00  0.00    +0.000 A 
ATOM     12  C   UNL     1       0.799   9.877  19.091  0.00  0.00    +0.000 A 
ATOM     13 CL   UNL     1      -0.127  11.326  19.077  0.00  0.00    +0.000 Cl
ATOM     14  C   UNL     1       1.348   9.388  17.912  0.00  0.00    +0.000 A 
ATOM     15  C   UNL     1       2.065   8.183  17.917  0.00  0.00    +0.000 A 
ENDBRANCH   3   9
BRANCH   1  17
ATOM     16  C   UNL     1       1.581   2.687  21.674  0.00  0.00    +0.000 C 
ATOM     17  C   UNL     1       1.986   2.691  20.223  0.00  0.00    +0.000 C 
ATOM     18  O   UNL     1       1.610   1.790  19.470  0.00  0.00    +0.000 OA
ENDBRANCH   1  17
BRANCH   6  19
ATOM     19  C   UNL     1       6.185   4.627  18.212  0.00  0.00    +0.000 C 
BRANCH  19  20
ATOM     20  C   UNL     1       6.211   4.490  16.702  0.00  0.00    +0.000 A 
ATOM     21  C   UNL     1       5.230   3.735  16.039  0.00  0.00    +0.000 A 
ATOM     22  C   UNL     1       5.307   3.521  14.661  0.00  0.00    +0.000 A 
ATOM     23  C   UNL     1       6.364   4.067  13.937  0.00  0.00    +0.000 A 
ATOM     24 BR   UNL     1       6.512   3.718  12.085  0.00  0.00    +0.000 Br
ATOM     25  C   UNL     1       7.327   4.849  14.573  0.00  0.00    +0.000 A 
ATOM     26  C   UNL     1       7.252   5.058  15.953  0.00  0.00    +0.000 A 
ENDBRANCH  19  20
ENDBRANCH   6  19
TORSDOF 4
ENDMDL
MODEL 2
REMARK VINA RESULT:      -8.2      0.172      1.347
REMARK  Name = 
REMARK  5 active torsions:
REMARK  status: ('A' for Active; 'I' for Inactive)
REMARK    1  A    between atoms: C_1  and  C_2
REMARK    2  A    between atoms: C_2  and  C_4
REMARK    3  A    between atoms: N_6  and  C_7
REMARK    4  A    between atoms: N_16  and  C_17
REMARK    5  A    between atoms: C_17  and  C_18
REMARK                            x       y       z     vdW  Elec       q    Type
REMARK                         _______ _______ _______ _____ _____    ______ ____
ROOT
ATOM      1  C   UNL     1       2.833   3.857  19.650  0.00  0.00    +0.000 A 
ATOM      2  C   UNL     1       2.217   5.030  19.451  0.00  0.00    +0.000 A 
ATOM      3  N   UNL     1       2.860   6.183  19.020  0.00  0.00    +0.000 N 
ATOM      4  C   UNL     1       4.224   6.126  18.643  0.00  0.00    +0.000 A 
ATOM      5  O   UNL     1       4.897   7.108  18.321  0.00  0.00    +0.000 OA
ATOM      6  N   UNL     1       4.832   4.870  18.728  0.00  0.00    +0.000 N 
ATOM      7  C   UNL     1       4.284   3.792  19.395  0.00  0.00    +0.000 A 
ATOM      8  O   UNL     1       4.943   2.826  19.776  0.00  0.00    +0.000 OA
ENDROOT
BRANCH   3   9
ATOM      9  C   UNL     1       2.168   7.464  19.014  0.00  0.00    +0.000 A 
ATOM     10  C   UNL     1       2.057   8.252  17.855  0.00  0.00    +0.000 A 
ATOM     11  C   UNL     1       1.491   9.533  17.885  0.00  0.00    +0.000 A 
ATOM     12  C   UNL     1       0.993  10.041  19.076  0.00  0.00    +0.000 A 
ATOM     13 CL   UNL     1       0.333  11.628  19.124  0.00  0.00    +0.000 Cl
ATOM     14  C   UNL     1       1.035   9.268  20.230  0.00  0.00    +0.000 A 
ATOM     15  C   UNL     1       1.614   7.991  20.199  0.00  0.00    +0.000 A 
ENDBRANCH   3   9
BRANCH   1  17
ATOM     16  C   UNL     1       1.628   2.660  21.608  0.00  0.00    +0.000 C 
ATOM     17  C   UNL     1       2.012   2.715  20.152  0.00  0.00    +0.000 C 
ATOM     18  O   UNL     1       1.631   1.836  19.376  0.00  0.00    +0.000 OA
ENDBRANCH   1  17
BRANCH   6  19
ATOM     19  C   UNL     1       6.223   4.769  18.289  0.00  0.00    +0.000 C 
BRANCH  19  20
ATOM     20  C   UNL     1       6.305   4.450  16.809  0.00  0.00    +0.000 A 
ATOM     21  C   UNL     1       7.314   5.015  16.014  0.00  0.00    +0.000 A 
ATOM     22  C   UNL     1       7.334   4.806  14.633  0.00  0.00    +0.000 A 
ATOM     23  C   UNL     1       6.346   4.025  14.040  0.00  0.00    +0.000 A 
ATOM     24 BR   UNL     1       6.328   3.802  12.162  0.00  0.00    +0.000 Br
ATOM     25  C   UNL     1       5.356   3.427  14.818  0.00  0.00    +0.000 A 
ATOM     26  C   UNL     1       5.335   3.641  16.199  0.00  0.00    +0.000 A 
ENDBRANCH  19  20
ENDBRANCH   6  19
TORSDOF 4
ENDMDL
MODEL 3
REMARK VINA RESULT:      -7.9      0.758      1.228
REMARK  Name = 
REMARK  5 active torsions:
REMARK  status: ('A' for Active; 'I' for Inactive)
REMARK    1  A    between atoms: C_1  and  C_2
REMARK    2  A    between atoms: C_2  and  C_4
REMARK    3  A    between atoms: N_6  and  C_7
REMARK    4  A    between atoms: N_16  and  C_17
REMARK    5  A    between atoms: C_17  and  C_18
REMARK                            x       y       z     vdW  Elec       q    Type
REMARK                         _______ _______ _______ _____ _____    ______ ____
ROOT
ATOM      1  C   UNL     1       3.180   4.197  19.969  0.00  0.00    +0.000 A 
ATOM      2  C   UNL     1       2.463   5.304  19.738  0.00  0.00    +0.000 A 
ATOM      3  N   UNL     1       2.961   6.434  19.100  0.00  0.00    +0.000 N 
ATOM      4  C   UNL     1       4.262   6.407  18.540  0.00  0.00    +0.000 A 
ATOM      5  O   UNL     1       4.815   7.380  18.024  0.00  0.00    +0.000 OA
ATOM      6  N   UNL     1       4.960   5.202  18.670  0.00  0.00    +0.000 N 
ATOM      7  C   UNL     1       4.583   4.180  19.518  0.00  0.00    +0.000 A 
ATOM      8  O   UNL     1       5.353   3.301  19.900  0.00  0.00    +0.000 OA
ENDROOT
BRANCH   3   9
ATOM      9  C   UNL     1       2.188   7.666  19.059  0.00  0.00    +0.000 A 
ATOM     10  C   UNL     1       2.071   8.440  17.890  0.00  0.00    +0.000 A 
ATOM     11  C   UNL     1       1.423   9.682  17.889  0.00  0.00    +0.000 A 
ATOM     12  C   UNL     1       0.847  10.163  19.056  0.00  0.00    +0.000 A 
ATOM     13 CL   UNL     1       0.085  11.704  19.067  0.00  0.00    +0.000 Cl
ATOM     14  C   UNL     1       0.895   9.400  20.216  0.00  0.00    +0.000 A 
ATOM     15  C   UNL     1       1.556   8.163  20.217  0.00  0.00    +0.000 A 
ENDBRANCH   3   9
BRANCH   1  17
ATOM     16  C   UNL     1       1.510   2.213  19.985  0.00  0.00    +0.000 C 
ATOM     17  C   UNL     1       2.515   3.077  20.702  0.00  0.00    +0.000 C 
ATOM     18  O   UNL     1       2.806   2.846  21.878  0.00  0.00    +0.000 OA
ENDBRANCH   1  17
BRANCH   6  19
ATOM     19  C   UNL     1       6.282   5.126  18.049  0.00  0.00    +0.000 C 
BRANCH  19  20
ATOM     20  C   UNL     1       6.173   4.783  16.576  0.00  0.00    +0.000 A 
ATOM     21  C   UNL     1       5.046   4.107  16.083  0.00  0.00    +0.000 A 
ATOM     22  C   UNL     1       4.987   3.700  14.749  0.00  0.00    +0.000 A 
ATOM     23  C   UNL     1       6.054   3.971  13.897  0.00  0.00    +0.000 A 
ATOM     24 BR   UNL     1       6.009   3.355  12.110  0.00  0.00    +0.000 Br
ATOM     25  C   UNL     1       7.167   4.672  14.361  0.00  0.00    +0.000 A 
ATOM     26  C   UNL     1       7.227   5.075  15.697  0.00  0.00    +0.000 A 
ENDBRANCH  19  20
ENDBRANCH   6  19
TORSDOF 4
ENDMDL
MODEL 4
REMARK VINA RESULT:      -6.9      1.101      1.504
REMARK  Name = 
REMARK  5 active torsions:
REMARK  status: ('A' for Active; 'I' for Inactive)
REMARK    1  A    between atoms: C_1  and  C_2
REMARK    2  A    between atoms: C_2  and  C_4
REMARK    3  A    between atoms: N_6  and  C_7
REMARK    4  A    between atoms: N_16  and  C_17
REMARK    5  A    between atoms: C_17  and  C_18
REMARK                            x       y       z     vdW  Elec       q    Type
REMARK                         _______ _______ _______ _____ _____    ______ ____
ROOT
ATOM      1  C   UNL     1       3.710   4.513  19.588  0.00  0.00    +0.000 A 
ATOM      2  C   UNL     1       2.844   5.532  19.501  0.00  0.00    +0.000 A 
ATOM      3  N   UNL     1       3.123   6.737  18.868  0.00  0.00    +0.000 N 
ATOM      4  C   UNL     1       4.338   6.892  18.158  0.00  0.00    +0.000 A 
ATOM      5  O   UNL     1       4.704   7.945  17.631  0.00  0.00    +0.000 OA
ATOM      6  N   UNL     1       5.184   5.779  18.141  0.00  0.00    +0.000 N 
ATOM      7  C   UNL     1       5.039   4.687  18.974  0.00  0.00    +0.000 A 
ATOM      8  O   UNL     1       5.948   3.896  19.216  0.00  0.00    +0.000 OA
ENDROOT
BRANCH   3   9
ATOM      9  C   UNL     1       2.210   7.866  18.983  0.00  0.00    +0.000 A 
ATOM     10  C   UNL     1       1.691   8.288  20.220  0.00  0.00    +0.000 A 
ATOM     11  C   UNL     1       0.725   9.299  20.309  0.00  0.00    +0.000 A 
ATOM     12  C   UNL     1       0.280   9.933  19.158  0.00  0.00    +0.000 A 
ATOM     13 CL   UNL     1      -0.933  11.146  19.260  0.00  0.00    +0.000 Cl
ATOM     14  C   UNL     1       0.812   9.579  17.924  0.00  0.00    +0.000 A 
ATOM     15  C   UNL     1       1.769   8.558  17.837  0.00  0.00    +0.000 A 
ENDBRANCH   3   9
BRANCH   1  17
ATOM     16  C   UNL     1       3.694   1.933  19.838  0.00  0.00    +0.000 C 
ATOM     17  C   UNL     1       3.279   3.294  20.335  0.00  0.00    +0.000 C 
ATOM     18  O   UNL     1       2.608   3.402  21.364  0.00  0.00    +0.000 OA
ENDBRANCH   1  17
BRANCH   6  19
ATOM     19  C   UNL     1       6.419   5.890  17.365  0.00  0.00    +0.000 C 
BRANCH  19  20
ATOM     20  C   UNL     1       6.313   5.124  16.061  0.00  0.00    +0.000 A 
ATOM     21  C   UNL     1       7.357   5.167  15.124  0.00  0.00    +0.000 A 
ATOM     22  C   UNL     1       7.223   4.547  13.879  0.00  0.00    +0.000 A 
ATOM     23  C   UNL     1       6.044   3.876  13.567  0.00  0.00    +0.000 A 
ATOM     24 BR   UNL     1       5.831   3.101  11.856  0.00  0.00    +0.000 Br
ATOM     25  C   UNL     1       5.011   3.794  14.499  0.00  0.00    +0.000 A 
ATOM     26  C   UNL     1       5.144   4.418  15.742  0.00  0.00    +0.000 A 
ENDBRANCH  19  20
ENDBRANCH   6  19
TORSDOF 4
ENDMDL
MODEL 5
REMARK VINA RESULT:      -6.7      5.281      8.362
REMARK  Name = 
REMARK  5 active torsions:
REMARK  status: ('A' for Active; 'I' for Inactive)
REMARK    1  A    between atoms: C_1  and  C_2
REMARK    2  A    between atoms: C_2  and  C_4
REMARK    3  A    between atoms: N_6  and  C_7
REMARK    4  A    between atoms: N_16  and  C_17
REMARK    5  A    between atoms: C_17  and  C_18
REMARK                            x       y       z     vdW  Elec       q    Type
REMARK                         _______ _______ _______ _____ _____    ______ ____
ROOT
ATOM      1  C   UNL     1       1.756  13.189  20.526  0.00  0.00    +0.000 A 
ATOM      2  C   UNL     1       0.660  13.214  21.294  0.00  0.00    +0.000 A 
ATOM      3  N   UNL     1      -0.494  12.486  21.027  0.00  0.00    +0.000 N 
ATOM      4  C   UNL     1      -0.507  11.562  19.953  0.00  0.00    +0.000 A 
ATOM      5  O   UNL     1      -1.503  10.930  19.594  0.00  0.00    +0.000 OA
ATOM      6  N   UNL     1       0.684  11.444  19.232  0.00  0.00    +0.000 N 
ATOM      7  C   UNL     1       1.733  12.338  19.322  0.00  0.00    +0.000 A 
ATOM      8  O   UNL     1       2.604  12.448  18.462  0.00  0.00    +0.000 OA
ENDROOT
BRANCH   3   9
ATOM      9  C   UNL     1      -1.711  12.712  21.794  0.00  0.00    +0.000 A 
ATOM     10  C   UNL     1      -1.987  12.016  22.984  0.00  0.00    +0.000 A 
ATOM     11  C   UNL     1      -3.210  12.155  23.653  0.00  0.00    +0.000 A 
ATOM     12  C   UNL     1      -4.174  13.022  23.159  0.00  0.00    +0.000 A 
ATOM     13 CL   UNL     1      -5.691  13.165  23.956  0.00  0.00    +0.000 Cl
ATOM     14  C   UNL     1      -3.913  13.767  22.015  0.00  0.00    +0.000 A 
ATOM     15  C   UNL     1      -2.693  13.616  21.341  0.00  0.00    +0.000 A 
ENDBRANCH   3   9
BRANCH   1  17
ATOM     16  C   UNL     1       3.094  15.393  20.255  0.00  0.00    +0.000 C 
ATOM     17  C   UNL     1       2.905  14.056  20.924  0.00  0.00    +0.000 C 
ATOM     18  O   UNL     1       3.680  13.691  21.812  0.00  0.00    +0.000 OA
ENDBRANCH   1  17
BRANCH   6  19
ATOM     19  C   UNL     1       0.719  10.454  18.156  0.00  0.00    +0.000 C 
BRANCH  19  20
ATOM     20  C   UNL     1       1.462   9.205  18.589  0.00  0.00    +0.000 A 
ATOM     21  C   UNL     1       2.298   8.526  17.688  0.00  0.00    +0.000 A 
ATOM     22  C   UNL     1       2.904   7.320  18.049  0.00  0.00    +0.000 A 
ATOM     23  C   UNL     1       2.681   6.789  19.317  0.00  0.00    +0.000 A 
ATOM     24 BR   UNL     1       3.440   5.121  19.782  0.00  0.00    +0.000 Br
ATOM     25  C   UNL     1       1.882   7.468  20.236  0.00  0.00    +0.000 A 
ATOM     26  C   UNL     1       1.273   8.671  19.872  0.00  0.00    +0.000 A 
ENDBRANCH  19  20
ENDBRANCH   6  19
TORSDOF 4
ENDMDL
MODEL 6
REMARK VINA RESULT:      -6.6      5.015      8.075
REMARK  Name = 
REMARK  5 active torsions:
REMARK  status: ('A' for Active; 'I' for Inactive)
REMARK    1  A    between atoms: C_1  and  C_2
REMARK    2  A    between atoms: C_2  and  C_4
REMARK    3  A    between atoms: N_6  and  C_7
REMARK    4  A    between atoms: N_16  and  C_17
REMARK    5  A    between atoms: C_17  and  C_18
REMARK                            x       y       z     vdW  Elec       q    Type
REMARK                         _______ _______ _______ _____ _____    ______ ____
ROOT
ATOM      1  C   UNL     1       1.725  12.856  20.301  0.00  0.00    +0.000 A 
ATOM      2  C   UNL     1       0.619  12.857  21.056  0.00  0.00    +0.000 A 
ATOM      3  N   UNL     1      -0.505  12.085  20.790  0.00  0.00    +0.000 N 
ATOM      4  C   UNL     1      -0.473  11.141  19.735  0.00  0.00    +0.000 A 
ATOM      5  O   UNL     1      -1.442  10.467  19.377  0.00  0.00    +0.000 OA
ATOM      6  N   UNL     1       0.730  11.050  19.029  0.00  0.00    +0.000 N 
ATOM      7  C   UNL     1       1.746  11.982  19.114  0.00  0.00    +0.000 A 
ATOM      8  O   UNL     1       2.623  12.105  18.261  0.00  0.00    +0.000 OA
ENDROOT
BRANCH   3   9
ATOM      9  C   UNL     1      -1.738  12.283  21.538  0.00  0.00    +0.000 A 
ATOM     10  C   UNL     1      -2.829  12.998  21.012  0.00  0.00    +0.000 A 
ATOM     11  C   UNL     1      -3.965  13.283  21.780  0.00  0.00    +0.000 A 
ATOM     12  C   UNL     1      -4.046  12.829  23.089  0.00  0.00    +0.000 A 
ATOM     13 CL   UNL     1      -5.421  13.210  24.047  0.00  0.00    +0.000 Cl
ATOM     14  C   UNL     1      -3.010  12.072  23.624  0.00  0.00    +0.000 A 
ATOM     15  C   UNL     1      -1.869  11.800  22.856  0.00  0.00    +0.000 A 
ENDBRANCH   3   9
BRANCH   1  17
ATOM     16  C   UNL     1       3.192  14.936  19.808  0.00  0.00    +0.000 C 
ATOM     17  C   UNL     1       2.839  13.770  20.695  0.00  0.00    +0.000 C 
ATOM     18  O   UNL     1       3.448  13.586  21.752  0.00  0.00    +0.000 OA
ENDBRANCH   1  17
BRANCH   6  19
ATOM     19  C   UNL     1       0.812  10.041  17.974  0.00  0.00    +0.000 C 
BRANCH  19  20
ATOM     20  C   UNL     1       1.655   8.859  18.414  0.00  0.00    +0.000 A 
ATOM     21  C   UNL     1       2.581   8.279  17.534  0.00  0.00    +0.000 A 
ATOM     22  C   UNL     1       3.285   7.129  17.898  0.00  0.00    +0.000 A 
ATOM     23  C   UNL     1       3.070   6.556  19.148  0.00  0.00    +0.000 A 
ATOM     24 BR   UNL     1       3.966   4.957  19.614  0.00  0.00    +0.000 Br
ATOM     25  C   UNL     1       2.180   7.139  20.048  0.00  0.00    +0.000 A 
ATOM     26  C   UNL     1       1.472   8.287  19.681  0.00  0.00    +0.000 A 
ENDBRANCH  19  20
ENDBRANCH   6  19
TORSDOF 4
ENDMDL
MODEL 7
REMARK VINA RESULT:      -6.6      4.980      8.330
REMARK  Name = 
REMARK  5 active torsions:
REMARK  status: ('A' for Active; 'I' for Inactive)
REMARK    1  A    between atoms: C_1  and  C_2
REMARK    2  A    between atoms: C_2  and  C_4
REMARK    3  A    between atoms: N_6  and  C_7
REMARK    4  A    between atoms: N_16  and  C_17
REMARK    5  A    between atoms: C_17  and  C_18
REMARK                            x       y       z     vdW  Elec       q    Type
REMARK                         _______ _______ _______ _____ _____    ______ ____
ROOT
ATOM      1  C   UNL     1       0.168   9.939  21.593  0.00  0.00    +0.000 A 
ATOM      2  C   UNL     1       0.929   8.878  21.294  0.00  0.00    +0.000 A 
ATOM      3  N   UNL     1       1.381   8.581  20.014  0.00  0.00    +0.000 N 
ATOM      4  C   UNL     1       1.144   9.493  18.957  0.00  0.00    +0.000 A 
ATOM      5  O   UNL     1       1.440   9.282  17.779  0.00  0.00    +0.000 OA
ATOM      6  N   UNL     1       0.461  10.664  19.300  0.00  0.00    +0.000 N 
ATOM      7  C   UNL     1      -0.212  10.843  20.492  0.00  0.00    +0.000 A 
ATOM      8  O   UNL     1      -1.088  11.690  20.653  0.00  0.00    +0.000 OA
ENDROOT
BRANCH   3   9
ATOM      9  C   UNL     1       2.037   7.312  19.733  0.00  0.00    +0.000 A 
ATOM     10  C   UNL     1       1.819   6.165  20.517  0.00  0.00    +0.000 A 
ATOM     11  C   UNL     1       2.540   4.981  20.310  0.00  0.00    +0.000 A 
ATOM     12  C   UNL     1       3.476   4.912  19.289  0.00  0.00    +0.000 A 
ATOM     13 CL   UNL     1       4.390   3.474  19.058  0.00  0.00    +0.000 Cl
ATOM     14  C   UNL     1       3.678   6.008  18.460  0.00  0.00    +0.000 A 
ATOM     15  C   UNL     1       2.964   7.195  18.677  0.00  0.00    +0.000 A 
ENDBRANCH   3   9
BRANCH   1  17
ATOM     16  C   UNL     1      -1.533  10.871  23.313  0.00  0.00    +0.000 C 
ATOM     17  C   UNL     1      -0.272  10.104  23.011  0.00  0.00    +0.000 C 
ATOM     18  O   UNL     1       0.380   9.594  23.926  0.00  0.00    +0.000 OA
ENDBRANCH   1  17
BRANCH   6  19
ATOM     19  C   UNL     1       0.255  11.652  18.242  0.00  0.00    +0.000 C 
BRANCH  19  20
ATOM     20  C   UNL     1       1.167  12.849  18.428  0.00  0.00    +0.000 A 
ATOM     21  C   UNL     1       0.637  14.099  18.782  0.00  0.00    +0.000 A 
ATOM     22  C   UNL     1       1.459  15.226  18.855  0.00  0.00    +0.000 A 
ATOM     23  C   UNL     1       2.819  15.107  18.580  0.00  0.00    +0.000 A 
ATOM     24 BR   UNL     1       3.920  16.643  18.605  0.00  0.00    +0.000 Br
ATOM     25  C   UNL     1       3.368  13.866  18.261  0.00  0.00    +0.000 A 
ATOM     26  C   UNL     1       2.544  12.740  18.184  0.00  0.00    +0.000 A 
ENDBRANCH  19  20
ENDBRANCH   6  19
TORSDOF 4
ENDMDL
MODEL 8
REMARK VINA RESULT:      -6.5      5.037      8.486
REMARK  Name = 
REMARK  5 active torsions:
REMARK  status: ('A' for Active; 'I' for Inactive)
REMARK    1  A    between atoms: C_1  and  C_2
REMARK    2  A    between atoms: C_2  and  C_4
REMARK    3  A    between atoms: N_6  and  C_7
REMARK    4  A    between atoms: N_16  and  C_17
REMARK    5  A    between atoms: C_17  and  C_18
REMARK                            x       y       z     vdW  Elec       q    Type
REMARK                         _______ _______ _______ _____ _____    ______ ____
ROOT
ATOM      1  C   UNL     1       0.136  10.049  21.536  0.00  0.00    +0.000 A 
ATOM      2  C   UNL     1       0.913   9.003  21.226  0.00  0.00    +0.000 A 
ATOM      3  N   UNL     1       1.367   8.725  19.942  0.00  0.00    +0.000 N 
ATOM      4  C   UNL     1       1.114   9.644  18.894  0.00  0.00    +0.000 A 
ATOM      5  O   UNL     1       1.410   9.449  17.713  0.00  0.00    +0.000 OA
ATOM      6  N   UNL     1       0.414  10.801  19.249  0.00  0.00    +0.000 N 
ATOM      7  C   UNL     1      -0.259  10.958  20.445  0.00  0.00    +0.000 A 
ATOM      8  O   UNL     1      -1.148  11.791  20.616  0.00  0.00    +0.000 OA
ENDROOT
BRANCH   3   9
ATOM      9  C   UNL     1       2.041   7.469  19.647  0.00  0.00    +0.000 A 
ATOM     10  C   UNL     1       2.883   7.313  18.532  0.00  0.00    +0.000 A 
ATOM     11  C   UNL     1       3.435   6.071  18.191  0.00  0.00    +0.000 A 
ATOM     12  C   UNL     1       3.179   4.961  18.982  0.00  0.00    +0.000 A 
ATOM     13 CL   UNL     1       3.822   3.427  18.545  0.00  0.00    +0.000 Cl
ATOM     14  C   UNL     1       2.395   5.089  20.122  0.00  0.00    +0.000 A 
ATOM     15  C   UNL     1       1.834   6.331  20.453  0.00  0.00    +0.000 A 
ENDBRANCH   3   9
BRANCH   1  17
ATOM     16  C   UNL     1      -1.541  10.992  23.273  0.00  0.00    +0.000 C 
ATOM     17  C   UNL     1      -0.303  10.194  22.956  0.00  0.00    +0.000 C 
ATOM     18  O   UNL     1       0.330   9.643  23.860  0.00  0.00    +0.000 OA
ENDBRANCH   1  17
BRANCH   6  19
ATOM     19  C   UNL     1       0.190  11.795  18.201  0.00  0.00    +0.000 C 
BRANCH  19  20
ATOM     20  C   UNL     1       1.094  12.998  18.390  0.00  0.00    +0.000 A 
ATOM     21  C   UNL     1       2.482  12.881  18.214  0.00  0.00    +0.000 A 
ATOM     22  C   UNL     1       3.327  13.959  18.485  0.00  0.00    +0.000 A 
ATOM     23  C   UNL     1       2.788  15.164  18.930  0.00  0.00    +0.000 A 
ATOM     24 BR   UNL     1       3.936  16.600  19.369  0.00  0.00    +0.000 Br
ATOM     25  C   UNL     1       1.409  15.309  19.076  0.00  0.00    +0.000 A 
ATOM     26  C   UNL     1       0.565  14.228  18.809  0.00  0.00    +0.000 A 
ENDBRANCH  19  20
ENDBRANCH   6  19
TORSDOF 4
ENDMDL
MODEL 9
REMARK VINA RESULT:      -6.5      4.911      8.276
REMARK  Name = 
REMARK  5 active torsions:
REMARK  status: ('A' for Active; 'I' for Inactive)
REMARK    1  A    between atoms: C_1  and  C_2
REMARK    2  A    between atoms: C_2  and  C_4
REMARK    3  A    between atoms: N_6  and  C_7
REMARK    4  A    between atoms: N_16  and  C_17
REMARK    5  A    between atoms: C_17  and  C_18
REMARK                            x       y       z     vdW  Elec       q    Type
REMARK                         _______ _______ _______ _____ _____    ______ ____
ROOT
ATOM      1  C   UNL     1       0.540   9.729  21.423  0.00  0.00    +0.000 A 
ATOM      2  C   UNL     1       1.291   8.698  21.014  0.00  0.00    +0.000 A 
ATOM      3  N   UNL     1       1.661   8.481  19.692  0.00  0.00    +0.000 N 
ATOM      4  C   UNL     1       1.345   9.449  18.708  0.00  0.00    +0.000 A 
ATOM      5  O   UNL     1       1.564   9.311  17.502  0.00  0.00    +0.000 OA
ATOM      6  N   UNL     1       0.672  10.588  19.162  0.00  0.00    +0.000 N 
ATOM      7  C   UNL     1       0.078  10.689  20.404  0.00  0.00    +0.000 A 
ATOM      8  O   UNL     1      -0.795  11.513  20.671  0.00  0.00    +0.000 OA
ENDROOT
BRANCH   3   9
ATOM      9  C   UNL     1       2.310   7.240  19.295  0.00  0.00    +0.000 A 
ATOM     10  C   UNL     1       3.142   7.157  18.164  0.00  0.00    +0.000 A 
ATOM     11  C   UNL     1       3.669   5.936  17.724  0.00  0.00    +0.000 A 
ATOM     12  C   UNL     1       3.398   4.772  18.428  0.00  0.00    +0.000 A 
ATOM     13 CL   UNL     1       4.010   3.266  17.868  0.00  0.00    +0.000 Cl
ATOM     14  C   UNL     1       2.625   4.825  19.581  0.00  0.00    +0.000 A 
ATOM     15  C   UNL     1       2.089   6.047  20.012  0.00  0.00    +0.000 A 
ENDBRANCH   3   9
BRANCH   1  17
ATOM     16  C   UNL     1      -1.171  10.295  23.287  0.00  0.00    +0.000 C 
ATOM     17  C   UNL     1       0.193   9.806  22.874  0.00  0.00    +0.000 C 
ATOM     18  O   UNL     1       1.009   9.447  23.726  0.00  0.00    +0.000 OA
ENDBRANCH   1  17
BRANCH   6  19
ATOM     19  C   UNL     1       0.386  11.632  18.178  0.00  0.00    +0.000 C 
BRANCH  19  20
ATOM     20  C   UNL     1       1.262  12.849  18.404  0.00  0.00    +0.000 A 
ATOM     21  C   UNL     1       0.694  14.076  18.779  0.00  0.00    +0.000 A 
ATOM     22  C   UNL     1       1.483  15.223  18.888  0.00  0.00    +0.000 A 
ATOM     23  C   UNL     1       2.849  15.147  18.629  0.00  0.00    +0.000 A 
ATOM     24 BR   UNL     1       3.907  16.712  18.704  0.00  0.00    +0.000 Br
ATOM     25  C   UNL     1       3.437  13.929  18.290  0.00  0.00    +0.000 A 
ATOM     26  C   UNL     1       2.645  12.783  18.176  0.00  0.00    +0.000 A 
ENDBRANCH  19  20
ENDBRANCH   6  19
TORSDOF 4
ENDMDL
