MODEL 1
REMARK VINA RESULT:      -7.7      0.000      0.000
REMARK  Name = 
REMARK  3 active torsions:
REMARK  status: ('A' for Active; 'I' for Inactive)
REMARK    1  A    between atoms: C_1  and  O_2
REMARK    2  A    between atoms: O_2  and  C_3
REMARK    3  A    between atoms: C_12  and  C_13
REMARK                            x       y       z     vdW  Elec       q    Type
REMARK                         _______ _______ _______ _____ _____    ______ ____
ROOT
ATOM      1  C   UNL     1      -1.232  11.401  22.633  0.00  0.00    +0.000 A 
ATOM      2  C   UNL     1      -1.173  11.952  21.349  0.00  0.00    +0.000 A 
ATOM      3  C   UNL     1      -0.441  11.348  20.319  0.00  0.00    +0.000 A 
ATOM      4  C   UNL     1       0.224  10.155  20.632  0.00  0.00    +0.000 A 
ATOM      5  C   UNL     1       0.188   9.586  21.899  0.00  0.00    +0.000 A 
ATOM      6  C   UNL     1      -0.542  10.217  22.922  0.00  0.00    +0.000 A 
ATOM      7  N   UNL     1       0.907   8.416  21.944  0.00  0.00    +0.000 NA
ATOM      8  C   UNL     1       1.381   8.231  20.730  0.00  0.00    +0.000 A 
ATOM      9  N   UNL     1       2.133   7.187  20.258  0.00  0.00    +0.000 NA
ATOM     10  C   UNL     1       2.478   7.252  19.001  0.00  0.00    +0.000 A 
ATOM     11  C   UNL     1       2.112   8.352  18.047  0.00  0.00    +0.000 A 
ATOM     12  C   UNL     1       1.369   9.339  18.560  0.00  0.00    +0.000 A 
ATOM     13  N   UNL     1       0.998   9.285  19.895  0.00  0.00    +0.000 N 
ENDROOT
BRANCH  10  14
ATOM     14  C   UNL     1       3.309   6.117  18.402  0.00  0.00    +0.000 C 
ATOM     15  O   UNL     1       3.479   5.118  19.088  0.00  0.00    +0.000 OA
ATOM     16  N   UNL     1       3.824   6.396  17.156  0.00  0.00    +0.000 N 
ATOM     17  C   UNL     1       4.693   5.527  16.477  0.00  0.00    +0.000 A 
ATOM     18  C   UNL     1       5.395   6.003  15.380  0.00  0.00    +0.000 A 
ATOM     19  C   UNL     1       6.337   5.177  14.769  0.00  0.00    +0.000 A 
ATOM     20  C   UNL     1       6.506   3.898  15.261  0.00  0.00    +0.000 A 
ATOM     21  N   UNL     1       5.787   3.435  16.294  0.00  0.00    +0.000 NA
ATOM     22  N   UNL     1       4.883   4.264  16.908  0.00  0.00    +0.000 NA
ATOM     23  H   UNL     1       3.628   7.313  16.770  0.00  0.00    +0.000 HD
ENDBRANCH  10  14
BRANCH   1  25
ATOM     24  C   UNL     1      -3.159  12.749  22.987  0.00  0.00    +0.000 C 
ATOM     25  O   UNL     1      -2.004  12.108  23.518  0.00  0.00    +0.000 OA
ENDBRANCH   1  25
TORSDOF 2
ENDMDL
MODEL 2
REMARK VINA RESULT:      -7.4      2.034      3.336
REMARK  Name = 
REMARK  3 active torsions:
REMARK  status: ('A' for Active; 'I' for Inactive)
REMARK    1  A    between atoms: C_1  and  O_2
REMARK    2  A    between atoms: O_2  and  C_3
REMARK    3  A    between atoms: C_12  and  C_13
REMARK                            x       y       z     vdW  Elec       q    Type
REMARK                         _______ _______ _______ _____ _____    ______ ____
ROOT
ATOM      1  C   UNL     1      -0.051   9.696  21.047  0.00  0.00    +0.000 A 
ATOM      2  C   UNL     1       0.317   8.531  21.729  0.00  0.00    +0.000 A 
ATOM      3  C   UNL     1       1.230   7.617  21.191  0.00  0.00    +0.000 A 
ATOM      4  C   UNL     1       1.770   7.928  19.936  0.00  0.00    +0.000 A 
ATOM      5  C   UNL     1       1.422   9.074  19.232  0.00  0.00    +0.000 A 
ATOM      6  C   UNL     1       0.492   9.972  19.786  0.00  0.00    +0.000 A 
ATOM      7  N   UNL     1       2.098   9.155  18.038  0.00  0.00    +0.000 NA
ATOM      8  C   UNL     1       2.874   8.092  17.984  0.00  0.00    +0.000 A 
ATOM      9  N   UNL     1       3.766   7.737  17.008  0.00  0.00    +0.000 NA
ATOM     10  C   UNL     1       4.412   6.619  17.202  0.00  0.00    +0.000 A 
ATOM     11  C   UNL     1       4.266   5.717  18.393  0.00  0.00    +0.000 A 
ATOM     12  C   UNL     1       3.388   6.119  19.319  0.00  0.00    +0.000 A 
ATOM     13  N   UNL     1       2.692   7.303  19.124  0.00  0.00    +0.000 N 
ENDROOT
BRANCH  10  14
ATOM     14  C   UNL     1       5.433   6.164  16.158  0.00  0.00    +0.000 C 
ATOM     15  O   UNL     1       6.500   6.761  16.113  0.00  0.00    +0.000 OA
ATOM     16  N   UNL     1       4.986   5.151  15.340  0.00  0.00    +0.000 N 
ATOM     17  C   UNL     1       5.731   4.658  14.257  0.00  0.00    +0.000 A 
ATOM     18  C   UNL     1       5.099   3.861  13.315  0.00  0.00    +0.000 A 
ATOM     19  C   UNL     1       5.807   3.459  12.184  0.00  0.00    +0.000 A 
ATOM     20  C   UNL     1       7.130   3.841  12.067  0.00  0.00    +0.000 A 
ATOM     21  N   UNL     1       7.742   4.574  13.009  0.00  0.00    +0.000 NA
ATOM     22  N   UNL     1       7.028   4.990  14.104  0.00  0.00    +0.000 NA
ATOM     23  H   UNL     1       4.037   4.825  15.487  0.00  0.00    +0.000 HD
ENDBRANCH  10  14
BRANCH   1  25
ATOM     24  C   UNL     1      -0.883  10.453  23.142  0.00  0.00    +0.000 C 
ATOM     25  O   UNL     1      -0.942  10.490  21.721  0.00  0.00    +0.000 OA
ENDBRANCH   1  25
TORSDOF 2
ENDMDL
MODEL 3
REMARK VINA RESULT:      -7.4      2.231      9.062
REMARK  Name = 
REMARK  3 active torsions:
REMARK  status: ('A' for Active; 'I' for Inactive)
REMARK    1  A    between atoms: C_1  and  O_2
REMARK    2  A    between atoms: O_2  and  C_3
REMARK    3  A    between atoms: C_12  and  C_13
REMARK                            x       y       z     vdW  Elec       q    Type
REMARK                         _______ _______ _______ _____ _____    ______ ____
ROOT
ATOM      1  C   UNL     1       5.506   5.372  15.803  0.00  0.00    +0.000 A 
ATOM      2  C   UNL     1       5.203   4.315  16.667  0.00  0.00    +0.000 A 
ATOM      3  C   UNL     1       4.367   4.485  17.777  0.00  0.00    +0.000 A 
ATOM      4  C   UNL     1       3.838   5.767  17.979  0.00  0.00    +0.000 A 
ATOM      5  C   UNL     1       4.124   6.838  17.142  0.00  0.00    +0.000 A 
ATOM      6  C   UNL     1       4.977   6.647  16.040  0.00  0.00    +0.000 A 
ATOM      7  N   UNL     1       3.474   7.979  17.546  0.00  0.00    +0.000 NA
ATOM      8  C   UNL     1       2.773   7.644  18.609  0.00  0.00    +0.000 A 
ATOM      9  N   UNL     1       1.931   8.425  19.356  0.00  0.00    +0.000 NA
ATOM     10  C   UNL     1       1.358   7.840  20.372  0.00  0.00    +0.000 A 
ATOM     11  C   UNL     1       1.536   6.403  20.771  0.00  0.00    +0.000 A 
ATOM     12  C   UNL     1       2.362   5.687  20.001  0.00  0.00    +0.000 A 
ATOM     13  N   UNL     1       2.980   6.297  18.919  0.00  0.00    +0.000 N 
ENDROOT
BRANCH  10  14
ATOM     14  C   UNL     1       0.396   8.647  21.245  0.00  0.00    +0.000 C 
ATOM     15  O   UNL     1      -0.526   8.043  21.776  0.00  0.00    +0.000 OA
ATOM     16  N   UNL     1       0.664   9.997  21.275  0.00  0.00    +0.000 N 
ATOM     17  C   UNL     1      -0.157  10.924  21.936  0.00  0.00    +0.000 A 
ATOM     18  C   UNL     1       0.010  12.275  21.673  0.00  0.00    +0.000 A 
ATOM     19  C   UNL     1      -0.873  13.190  22.245  0.00  0.00    +0.000 A 
ATOM     20  C   UNL     1      -1.859  12.712  23.087  0.00  0.00    +0.000 A 
ATOM     21  N   UNL     1      -1.979  11.407  23.370  0.00  0.00    +0.000 NA
ATOM     22  N   UNL     1      -1.125  10.511  22.778  0.00  0.00    +0.000 NA
ATOM     23  H   UNL     1       1.440  10.325  20.711  0.00  0.00    +0.000 HD
ENDBRANCH  10  14
BRANCH   1  25
ATOM     24  C   UNL     1       6.005   3.834  14.059  0.00  0.00    +0.000 C 
ATOM     25  O   UNL     1       6.325   5.032  14.758  0.00  0.00    +0.000 OA
ENDBRANCH   1  25
TORSDOF 2
ENDMDL
MODEL 4
REMARK VINA RESULT:      -7.3      2.811      3.417
REMARK  Name = 
REMARK  3 active torsions:
REMARK  status: ('A' for Active; 'I' for Inactive)
REMARK    1  A    between atoms: C_1  and  O_2
REMARK    2  A    between atoms: O_2  and  C_3
REMARK    3  A    between atoms: C_12  and  C_13
REMARK                            x       y       z     vdW  Elec       q    Type
REMARK                         _______ _______ _______ _____ _____    ______ ____
ROOT
ATOM      1  C   UNL     1      -2.327  13.459  22.510  0.00  0.00    +0.000 A 
ATOM      2  C   UNL     1      -2.242  13.673  21.130  0.00  0.00    +0.000 A 
ATOM      3  C   UNL     1      -1.502  12.828  20.295  0.00  0.00    +0.000 A 
ATOM      4  C   UNL     1      -0.854  11.745  20.906  0.00  0.00    +0.000 A 
ATOM      5  C   UNL     1      -0.916  11.508  22.274  0.00  0.00    +0.000 A 
ATOM      6  C   UNL     1      -1.654  12.379  23.095  0.00  0.00    +0.000 A 
ATOM      7  N   UNL     1      -0.210  10.381  22.620  0.00  0.00    +0.000 NA
ATOM      8  C   UNL     1       0.281   9.897  21.498  0.00  0.00    +0.000 A 
ATOM      9  N   UNL     1       1.028   8.765  21.314  0.00  0.00    +0.000 NA
ATOM     10  C   UNL     1       1.393   8.513  20.086  0.00  0.00    +0.000 A 
ATOM     11  C   UNL     1       1.053   9.344  18.882  0.00  0.00    +0.000 A 
ATOM     12  C   UNL     1       0.313  10.433  19.121  0.00  0.00    +0.000 A 
ATOM     13  N   UNL     1      -0.079  10.714  20.422  0.00  0.00    +0.000 N 
ENDROOT
BRANCH  10  14
ATOM     14  C   UNL     1       2.221   7.259  19.801  0.00  0.00    +0.000 C 
ATOM     15  O   UNL     1       2.912   7.255  18.792  0.00  0.00    +0.000 OA
ATOM     16  N   UNL     1       2.031   6.243  20.712  0.00  0.00    +0.000 N 
ATOM     17  C   UNL     1       2.621   4.977  20.576  0.00  0.00    +0.000 A 
ATOM     18  C   UNL     1       2.152   3.932  21.358  0.00  0.00    +0.000 A 
ATOM     19  C   UNL     1       2.661   2.651  21.150  0.00  0.00    +0.000 A 
ATOM     20  C   UNL     1       3.646   2.482  20.197  0.00  0.00    +0.000 A 
ATOM     21  N   UNL     1       4.124   3.511  19.481  0.00  0.00    +0.000 NA
ATOM     22  N   UNL     1       3.596   4.762  19.670  0.00  0.00    +0.000 NA
ATOM     23  H   UNL     1       1.361   6.409  21.454  0.00  0.00    +0.000 HD
ENDBRANCH  10  14
BRANCH   1  25
ATOM     24  C   UNL     1      -4.459  14.001  23.413  0.00  0.00    +0.000 C 
ATOM     25  O   UNL     1      -3.105  14.369  23.177  0.00  0.00    +0.000 OA
ENDBRANCH   1  25
TORSDOF 2
ENDMDL
MODEL 5
REMARK VINA RESULT:      -7.3      2.098      9.137
REMARK  Name = 
REMARK  3 active torsions:
REMARK  status: ('A' for Active; 'I' for Inactive)
REMARK    1  A    between atoms: C_1  and  O_2
REMARK    2  A    between atoms: O_2  and  C_3
REMARK    3  A    between atoms: C_12  and  C_13
REMARK                            x       y       z     vdW  Elec       q    Type
REMARK                         _______ _______ _______ _____ _____    ______ ____
ROOT
ATOM      1  C   UNL     1       5.989   4.599  14.944  0.00  0.00    +0.000 A 
ATOM      2  C   UNL     1       5.631   3.570  15.821  0.00  0.00    +0.000 A 
ATOM      3  C   UNL     1       4.851   3.807  16.958  0.00  0.00    +0.000 A 
ATOM      4  C   UNL     1       4.434   5.128  17.175  0.00  0.00    +0.000 A 
ATOM      5  C   UNL     1       4.778   6.172  16.326  0.00  0.00    +0.000 A 
ATOM      6  C   UNL     1       5.574   5.913  15.195  0.00  0.00    +0.000 A 
ATOM      7  N   UNL     1       4.236   7.362  16.749  0.00  0.00    +0.000 NA
ATOM      8  C   UNL     1       3.549   7.085  17.837  0.00  0.00    +0.000 A 
ATOM      9  N   UNL     1       2.799   7.931  18.610  0.00  0.00    +0.000 NA
ATOM     10  C   UNL     1       2.216   7.394  19.647  0.00  0.00    +0.000 A 
ATOM     11  C   UNL     1       2.290   5.948  20.043  0.00  0.00    +0.000 A 
ATOM     12  C   UNL     1       3.028   5.167  19.247  0.00  0.00    +0.000 A 
ATOM     13  N   UNL     1       3.656   5.725  18.143  0.00  0.00    +0.000 N 
ENDROOT
BRANCH  10  14
ATOM     14  C   UNL     1       1.353   8.277  20.550  0.00  0.00    +0.000 C 
ATOM     15  O   UNL     1       1.044   7.831  21.647  0.00  0.00    +0.000 OA
ATOM     16  N   UNL     1       0.974   9.469  19.975  0.00  0.00    +0.000 N 
ATOM     17  C   UNL     1       0.103  10.375  20.598  0.00  0.00    +0.000 A 
ATOM     18  C   UNL     1      -0.459  11.393  19.843  0.00  0.00    +0.000 A 
ATOM     19  C   UNL     1      -1.407  12.228  20.432  0.00  0.00    +0.000 A 
ATOM     20  C   UNL     1      -1.720  12.031  21.763  0.00  0.00    +0.000 A 
ATOM     21  N   UNL     1      -1.134  11.071  22.494  0.00  0.00    +0.000 NA
ATOM     22  N   UNL     1      -0.224  10.235  21.898  0.00  0.00    +0.000 NA
ATOM     23  H   UNL     1       1.276   9.636  19.021  0.00  0.00    +0.000 HD
ENDBRANCH  10  14
BRANCH   1  25
ATOM     24  C   UNL     1       6.047   3.540  12.816  0.00  0.00    +0.000 C 
ATOM     25  O   UNL     1       6.741   4.194  13.872  0.00  0.00    +0.000 OA
ENDBRANCH   1  25
TORSDOF 2
ENDMDL
MODEL 6
REMARK VINA RESULT:      -7.2      2.222      2.543
REMARK  Name = 
REMARK  3 active torsions:
REMARK  status: ('A' for Active; 'I' for Inactive)
REMARK    1  A    between atoms: C_1  and  O_2
REMARK    2  A    between atoms: O_2  and  C_3
REMARK    3  A    between atoms: C_12  and  C_13
REMARK                            x       y       z     vdW  Elec       q    Type
REMARK                         _______ _______ _______ _____ _____    ______ ____
ROOT
ATOM      1  C   UNL     1      -1.713  12.633  22.324  0.00  0.00    +0.000 A 
ATOM      2  C   UNL     1      -1.451  13.111  21.036  0.00  0.00    +0.000 A 
ATOM      3  C   UNL     1      -0.682  12.382  20.120  0.00  0.00    +0.000 A 
ATOM      4  C   UNL     1      -0.193  11.141  20.552  0.00  0.00    +0.000 A 
ATOM      5  C   UNL     1      -0.433  10.642  21.826  0.00  0.00    +0.000 A 
ATOM      6  C   UNL     1      -1.197  11.398  22.734  0.00  0.00    +0.000 A 
ATOM      7  N   UNL     1       0.141   9.405  21.997  0.00  0.00    +0.000 NA
ATOM      8  C   UNL     1       0.723   9.111  20.853  0.00  0.00    +0.000 A 
ATOM      9  N   UNL     1       1.400   7.971  20.511  0.00  0.00    +0.000 NA
ATOM     10  C   UNL     1       1.888   7.936  19.301  0.00  0.00    +0.000 A 
ATOM     11  C   UNL     1       1.755   9.021  18.271  0.00  0.00    +0.000 A 
ATOM     12  C   UNL     1       1.075  10.106  18.658  0.00  0.00    +0.000 A 
ATOM     13  N   UNL     1       0.554  10.157  19.942  0.00  0.00    +0.000 N 
ENDROOT
BRANCH  10  14
ATOM     14  C   UNL     1       2.648   6.690  18.844  0.00  0.00    +0.000 C 
ATOM     15  O   UNL     1       3.534   6.841  18.013  0.00  0.00    +0.000 OA
ATOM     16  N   UNL     1       2.185   5.517  19.396  0.00  0.00    +0.000 N 
ATOM     17  C   UNL     1       2.681   4.255  19.034  0.00  0.00    +0.000 A 
ATOM     18  C   UNL     1       1.971   3.123  19.405  0.00  0.00    +0.000 A 
ATOM     19  C   UNL     1       2.402   1.876  18.956  0.00  0.00    +0.000 A 
ATOM     20  C   UNL     1       3.548   1.815  18.187  0.00  0.00    +0.000 A 
ATOM     21  N   UNL     1       4.251   2.913  17.874  0.00  0.00    +0.000 NA
ATOM     22  N   UNL     1       3.803   4.140  18.296  0.00  0.00    +0.000 NA
ATOM     23  H   UNL     1       1.390   5.584  20.021  0.00  0.00    +0.000 HD
ENDBRANCH  10  14
BRANCH   1  25
ATOM     24  C   UNL     1      -3.465  12.838  23.919  0.00  0.00    +0.000 C 
ATOM     25  O   UNL     1      -2.494  13.462  23.087  0.00  0.00    +0.000 OA
ENDBRANCH   1  25
TORSDOF 2
ENDMDL
MODEL 7
REMARK VINA RESULT:      -7.2      2.063      9.021
REMARK  Name = 
REMARK  3 active torsions:
REMARK  status: ('A' for Active; 'I' for Inactive)
REMARK    1  A    between atoms: C_1  and  O_2
REMARK    2  A    between atoms: O_2  and  C_3
REMARK    3  A    between atoms: C_12  and  C_13
REMARK                            x       y       z     vdW  Elec       q    Type
REMARK                         _______ _______ _______ _____ _____    ______ ____
ROOT
ATOM      1  C   UNL     1       5.653   4.900  16.636  0.00  0.00    +0.000 A 
ATOM      2  C   UNL     1       5.401   6.025  15.843  0.00  0.00    +0.000 A 
ATOM      3  C   UNL     1       4.493   7.016  16.236  0.00  0.00    +0.000 A 
ATOM      4  C   UNL     1       3.854   6.835  17.469  0.00  0.00    +0.000 A 
ATOM      5  C   UNL     1       4.080   5.728  18.277  0.00  0.00    +0.000 A 
ATOM      6  C   UNL     1       4.985   4.737  17.856  0.00  0.00    +0.000 A 
ATOM      7  N   UNL     1       3.344   5.792  19.436  0.00  0.00    +0.000 NA
ATOM      8  C   UNL     1       2.672   6.924  19.380  0.00  0.00    +0.000 A 
ATOM      9  N   UNL     1       1.824   7.458  20.313  0.00  0.00    +0.000 NA
ATOM     10  C   UNL     1       1.280   8.603  20.003  0.00  0.00    +0.000 A 
ATOM     11  C   UNL     1       1.518   9.372  18.736  0.00  0.00    +0.000 A 
ATOM     12  C   UNL     1       2.363   8.807  17.866  0.00  0.00    +0.000 A 
ATOM     13  N   UNL     1       2.945   7.589  18.181  0.00  0.00    +0.000 N 
ENDROOT
BRANCH  10  14
ATOM     14  C   UNL     1       0.329   9.266  21.001  0.00  0.00    +0.000 C 
ATOM     15  O   UNL     1      -0.475   8.546  21.578  0.00  0.00    +0.000 OA
ATOM     16  N   UNL     1       0.463  10.634  21.081  0.00  0.00    +0.000 N 
ATOM     17  C   UNL     1      -0.379  11.439  21.863  0.00  0.00    +0.000 A 
ATOM     18  C   UNL     1      -0.372  12.811  21.661  0.00  0.00    +0.000 A 
ATOM     19  C   UNL     1      -1.284  13.602  22.359  0.00  0.00    +0.000 A 
ATOM     20  C   UNL     1      -2.133  12.987  23.258  0.00  0.00    +0.000 A 
ATOM     21  N   UNL     1      -2.097  11.665  23.478  0.00  0.00    +0.000 NA
ATOM     22  N   UNL     1      -1.218  10.890  22.764  0.00  0.00    +0.000 NA
ATOM     23  H   UNL     1       1.148  11.066  20.470  0.00  0.00    +0.000 HD
ENDBRANCH  10  14
BRANCH   1  25
ATOM     24  C   UNL     1       7.044   4.315  14.798  0.00  0.00    +0.000 C 
ATOM     25  O   UNL     1       6.579   4.036  16.114  0.00  0.00    +0.000 OA
ENDBRANCH   1  25
TORSDOF 2
ENDMDL
MODEL 8
REMARK VINA RESULT:      -7.2      1.211      1.877
REMARK  Name = 
REMARK  3 active torsions:
REMARK  status: ('A' for Active; 'I' for Inactive)
REMARK    1  A    between atoms: C_1  and  O_2
REMARK    2  A    between atoms: O_2  and  C_3
REMARK    3  A    between atoms: C_12  and  C_13
REMARK                            x       y       z     vdW  Elec       q    Type
REMARK                         _______ _______ _______ _____ _____    ______ ____
ROOT
ATOM      1  C   UNL     1      -0.797  11.833  22.415  0.00  0.00    +0.000 A 
ATOM      2  C   UNL     1      -0.819  10.709  23.247  0.00  0.00    +0.000 A 
ATOM      3  C   UNL     1      -0.283   9.480  22.844  0.00  0.00    +0.000 A 
ATOM      4  C   UNL     1       0.289   9.429  21.565  0.00  0.00    +0.000 A 
ATOM      5  C   UNL     1       0.322  10.526  20.713  0.00  0.00    +0.000 A 
ATOM      6  C   UNL     1      -0.235  11.748  21.135  0.00  0.00    +0.000 A 
ATOM      7  N   UNL     1       0.946  10.223  19.527  0.00  0.00    +0.000 NA
ATOM      8  C   UNL     1       1.318   8.963  19.622  0.00  0.00    +0.000 A 
ATOM      9  N   UNL     1       2.007   8.208  18.711  0.00  0.00    +0.000 NA
ATOM     10  C   UNL     1       2.247   6.972  19.056  0.00  0.00    +0.000 A 
ATOM     11  C   UNL     1       1.847   6.331  20.353  0.00  0.00    +0.000 A 
ATOM     12  C   UNL     1       1.185   7.119  21.208  0.00  0.00    +0.000 A 
ATOM     13  N   UNL     1       0.921   8.433  20.853  0.00  0.00    +0.000 N 
ENDROOT
BRANCH  10  14
ATOM     14  C   UNL     1       3.022   6.071  18.093  0.00  0.00    +0.000 C 
ATOM     15  O   UNL     1       2.518   4.998  17.795  0.00  0.00    +0.000 OA
ATOM     16  N   UNL     1       4.250   6.572  17.721  0.00  0.00    +0.000 N 
ATOM     17  C   UNL     1       5.156   5.857  16.923  0.00  0.00    +0.000 A 
ATOM     18  C   UNL     1       6.469   6.295  16.842  0.00  0.00    +0.000 A 
ATOM     19  C   UNL     1       7.396   5.528  16.137  0.00  0.00    +0.000 A 
ATOM     20  C   UNL     1       6.957   4.377  15.513  0.00  0.00    +0.000 A 
ATOM     21  N   UNL     1       5.674   3.990  15.561  0.00  0.00    +0.000 NA
ATOM     22  N   UNL     1       4.775   4.735  16.281  0.00  0.00    +0.000 NA
ATOM     23  H   UNL     1       4.528   7.459  18.127  0.00  0.00    +0.000 HD
ENDBRANCH  10  14
BRANCH   1  25
ATOM     24  C   UNL     1      -0.674  14.188  22.721  0.00  0.00    +0.000 C 
ATOM     25  O   UNL     1      -1.348  12.959  22.969  0.00  0.00    +0.000 OA
ENDBRANCH   1  25
TORSDOF 2
ENDMDL
MODEL 9
REMARK VINA RESULT:      -7.1      1.633      2.781
REMARK  Name = 
REMARK  3 active torsions:
REMARK  status: ('A' for Active; 'I' for Inactive)
REMARK    1  A    between atoms: C_1  and  O_2
REMARK    2  A    between atoms: O_2  and  C_3
REMARK    3  A    between atoms: C_12  and  C_13
REMARK                            x       y       z     vdW  Elec       q    Type
REMARK                         _______ _______ _______ _____ _____    ______ ____
ROOT
ATOM      1  C   UNL     1      -2.643  13.037  22.278  0.00  0.00    +0.000 A 
ATOM      2  C   UNL     1      -2.209  12.156  23.274  0.00  0.00    +0.000 A 
ATOM      3  C   UNL     1      -1.335  11.099  22.995  0.00  0.00    +0.000 A 
ATOM      4  C   UNL     1      -0.904  10.969  21.668  0.00  0.00    +0.000 A 
ATOM      5  C   UNL     1      -1.319  11.825  20.656  0.00  0.00    +0.000 A 
ATOM      6  C   UNL     1      -2.209  12.872  20.957  0.00  0.00    +0.000 A 
ATOM      7  N   UNL     1      -0.746  11.495  19.452  0.00  0.00    +0.000 NA
ATOM      8  C   UNL     1       0.033  10.460  19.689  0.00  0.00    +0.000 A 
ATOM      9  N   UNL     1       0.845   9.787  18.815  0.00  0.00    +0.000 NA
ATOM     10  C   UNL     1       1.515   8.784  19.313  0.00  0.00    +0.000 A 
ATOM     11  C   UNL     1       1.477   8.328  20.743  0.00  0.00    +0.000 A 
ATOM     12  C   UNL     1       0.674   9.028  21.553  0.00  0.00    +0.000 A 
ATOM     13  N   UNL     1      -0.046  10.095  21.036  0.00  0.00    +0.000 N 
ENDROOT
BRANCH  10  14
ATOM     14  C   UNL     1       2.451   7.991  18.399  0.00  0.00    +0.000 C 
ATOM     15  O   UNL     1       2.791   8.516  17.347  0.00  0.00    +0.000 OA
ATOM     16  N   UNL     1       2.751   6.729  18.861  0.00  0.00    +0.000 N 
ATOM     17  C   UNL     1       3.512   5.808  18.125  0.00  0.00    +0.000 A 
ATOM     18  C   UNL     1       3.517   4.478  18.518  0.00  0.00    +0.000 A 
ATOM     19  C   UNL     1       4.185   3.542  17.728  0.00  0.00    +0.000 A 
ATOM     20  C   UNL     1       4.849   3.988  16.602  0.00  0.00    +0.000 A 
ATOM     21  N   UNL     1       4.873   5.284  16.259  0.00  0.00    +0.000 NA
ATOM     22  N   UNL     1       4.189   6.194  17.026  0.00  0.00    +0.000 NA
ATOM     23  H   UNL     1       2.317   6.442  19.731  0.00  0.00    +0.000 HD
ENDBRANCH  10  14
BRANCH   1  25
ATOM     24  C   UNL     1      -4.597  13.611  23.505  0.00  0.00    +0.000 C 
ATOM     25  O   UNL     1      -3.483  14.025  22.722  0.00  0.00    +0.000 OA
ENDBRANCH   1  25
TORSDOF 2
ENDMDL
