MODEL 1
REMARK VINA RESULT:      -7.9      0.000      0.000
REMARK  Name = 
REMARK  5 active torsions:
REMARK  status: ('A' for Active; 'I' for Inactive)
REMARK    1  A    between atoms: C_1  and  C_2
REMARK    2  A    between atoms: C_2  and  N_3
REMARK    3  A    between atoms: N_8  and  C_9
REMARK    4  A    between atoms: N_18  and  C_19
REMARK    5  A    between atoms: C_24  and  N_25
REMARK                            x       y       z     vdW  Elec       q    Type
REMARK                         _______ _______ _______ _____ _____    ______ ____
ROOT
ATOM      1  N   UNL     1       1.794   4.439  19.643  0.00  0.00    +0.000 N 
ATOM      2  C   UNL     1       2.397   3.639  18.711  0.00  0.00    +0.000 A 
ATOM      3  N   UNL     1       3.055   4.343  17.822  0.00  0.00    +0.000 NA
ATOM      4  C   UNL     1       2.880   5.659  18.203  0.00  0.00    +0.000 A 
ATOM      5  C   UNL     1       3.370   6.873  17.698  0.00  0.00    +0.000 A 
ATOM      6  N   UNL     1       4.223   6.965  16.586  0.00  0.00    +0.000 N 
ATOM      7  N   UNL     1       2.974   8.019  18.315  0.00  0.00    +0.000 NA
ATOM      8  C   UNL     1       2.131   7.972  19.370  0.00  0.00    +0.000 A 
ATOM      9  N   UNL     1       1.804   9.212  19.913  0.00  0.00    +0.000 N 
ATOM     10  N   UNL     1       1.658   6.853  19.947  0.00  0.00    +0.000 NA
ATOM     11  C   UNL     1       2.066   5.738  19.321  0.00  0.00    +0.000 A 
ATOM     12  H   UNL     1       4.422   7.934  16.365  0.00  0.00    +0.000 HD
ATOM     13  H   UNL     1       2.608   9.458  20.485  0.00  0.00    +0.000 HD
ENDROOT
BRANCH   6  14
ATOM     14  C   UNL     1       5.255   6.068  16.239  0.00  0.00    +0.000 A 
ATOM     15  C   UNL     1       6.297   5.839  17.144  0.00  0.00    +0.000 A 
ATOM     16  C   UNL     1       7.359   4.989  16.813  0.00  0.00    +0.000 A 
ATOM     17  C   UNL     1       7.377   4.341  15.578  0.00  0.00    +0.000 A 
ATOM     18  C   UNL     1       6.332   4.542  14.684  0.00  0.00    +0.000 A 
ATOM     19 CL   UNL     1       6.344   3.747  13.157  0.00  0.00    +0.000 Cl
ATOM     20  C   UNL     1       5.274   5.389  15.013  0.00  0.00    +0.000 A 
ENDBRANCH   6  14
BRANCH   9  21
ATOM     21  C   UNL     1       0.546   9.315  20.676  0.00  0.00    +0.000 C 
ATOM     22  C   UNL     1       0.023  10.765  20.630  0.00  0.00    +0.000 C 
ATOM     23  C   UNL     1      -1.164  10.991  21.564  0.00  0.00    +0.000 C 
ATOM     24  C   UNL     1      -0.848  10.594  23.000  0.00  0.00    +0.000 C 
ATOM     25  C   UNL     1      -0.351   9.153  23.078  0.00  0.00    +0.000 C 
ATOM     26  C   UNL     1       0.842   8.878  22.153  0.00  0.00    +0.000 C 
BRANCH  26  27
ATOM     27  N   UNL     1       2.066   9.514  22.684  0.00  0.00    +0.000 NA
ATOM     28  H   UNL     1       2.002   9.576  23.700  0.00  0.00    +0.000 HD
ATOM     29  H   UNL     1       2.037  10.496  22.390  0.00  0.00    +0.000 HD
ENDBRANCH  26  27
ENDBRANCH   9  21
BRANCH   1  31
ATOM     30  C   UNL     1       1.815   2.934  21.582  0.00  0.00    +0.000 C 
ATOM     31  C   UNL     1       1.043   3.966  20.782  0.00  0.00    +0.000 C 
ENDBRANCH   1  31
TORSDOF 4
ENDMDL
MODEL 2
REMARK VINA RESULT:      -7.5      1.022      1.375
REMARK  Name = 
REMARK  5 active torsions:
REMARK  status: ('A' for Active; 'I' for Inactive)
REMARK    1  A    between atoms: C_1  and  C_2
REMARK    2  A    between atoms: C_2  and  N_3
REMARK    3  A    between atoms: N_8  and  C_9
REMARK    4  A    between atoms: N_18  and  C_19
REMARK    5  A    between atoms: C_24  and  N_25
REMARK                            x       y       z     vdW  Elec       q    Type
REMARK                         _______ _______ _______ _____ _____    ______ ____
ROOT
ATOM      1  N   UNL     1       1.798   4.514  19.715  0.00  0.00    +0.000 N 
ATOM      2  C   UNL     1       2.408   3.711  18.791  0.00  0.00    +0.000 A 
ATOM      3  N   UNL     1       3.048   4.412  17.887  0.00  0.00    +0.000 NA
ATOM      4  C   UNL     1       2.853   5.731  18.248  0.00  0.00    +0.000 A 
ATOM      5  C   UNL     1       3.317   6.945  17.721  0.00  0.00    +0.000 A 
ATOM      6  N   UNL     1       4.162   7.034  16.602  0.00  0.00    +0.000 N 
ATOM      7  N   UNL     1       2.905   8.094  18.323  0.00  0.00    +0.000 NA
ATOM      8  C   UNL     1       2.071   8.049  19.384  0.00  0.00    +0.000 A 
ATOM      9  N   UNL     1       1.726   9.290  19.910  0.00  0.00    +0.000 N 
ATOM     10  N   UNL     1       1.621   6.930  19.982  0.00  0.00    +0.000 NA
ATOM     11  C   UNL     1       2.045   5.813  19.371  0.00  0.00    +0.000 A 
ATOM     12  H   UNL     1       4.342   8.003  16.364  0.00  0.00    +0.000 HD
ATOM     13  H   UNL     1       2.528   9.559  20.472  0.00  0.00    +0.000 HD
ENDROOT
BRANCH   6  14
ATOM     14  C   UNL     1       5.206   6.150  16.262  0.00  0.00    +0.000 A 
ATOM     15  C   UNL     1       5.292   5.658  14.955  0.00  0.00    +0.000 A 
ATOM     16  C   UNL     1       6.290   4.745  14.597  0.00  0.00    +0.000 A 
ATOM     17  C   UNL     1       7.230   4.331  15.540  0.00  0.00    +0.000 A 
ATOM     18  C   UNL     1       7.169   4.836  16.834  0.00  0.00    +0.000 A 
ATOM     19 CL   UNL     1       8.325   4.331  18.007  0.00  0.00    +0.000 Cl
ATOM     20  C   UNL     1       6.175   5.744  17.192  0.00  0.00    +0.000 A 
ENDBRANCH   6  14
BRANCH   9  21
ATOM     21  C   UNL     1       0.471   9.384  20.679  0.00  0.00    +0.000 C 
ATOM     22  C   UNL     1      -0.044  10.837  20.669  0.00  0.00    +0.000 C 
ATOM     23  C   UNL     1      -1.226  11.049  21.612  0.00  0.00    +0.000 C 
ATOM     24  C   UNL     1      -0.907  10.618  23.037  0.00  0.00    +0.000 C 
ATOM     25  C   UNL     1      -0.418   9.173  23.080  0.00  0.00    +0.000 C 
ATOM     26  C   UNL     1       0.769   8.912  22.145  0.00  0.00    +0.000 C 
BRANCH  26  27
ATOM     27  N   UNL     1       1.999   9.529  22.686  0.00  0.00    +0.000 NA
ATOM     28  H   UNL     1       2.138   9.220  23.648  0.00  0.00    +0.000 HD
ATOM     29  H   UNL     1       1.804  10.530  22.790  0.00  0.00    +0.000 HD
ENDBRANCH  26  27
ENDBRANCH   9  21
BRANCH   1  31
ATOM     30  C   UNL     1       1.739   2.862  21.529  0.00  0.00    +0.000 C 
ATOM     31  C   UNL     1       1.062   4.046  20.866  0.00  0.00    +0.000 C 
ENDBRANCH   1  31
TORSDOF 4
ENDMDL
MODEL 3
REMARK VINA RESULT:      -7.4      2.985      7.757
REMARK  Name = 
REMARK  5 active torsions:
REMARK  status: ('A' for Active; 'I' for Inactive)
REMARK    1  A    between atoms: C_1  and  C_2
REMARK    2  A    between atoms: C_2  and  N_3
REMARK    3  A    between atoms: N_8  and  C_9
REMARK    4  A    between atoms: N_18  and  C_19
REMARK    5  A    between atoms: C_24  and  N_25
REMARK                            x       y       z     vdW  Elec       q    Type
REMARK                         _______ _______ _______ _____ _____    ______ ____
ROOT
ATOM      1  N   UNL     1       1.601   6.575  20.739  0.00  0.00    +0.000 N 
ATOM      2  C   UNL     1       0.827   7.530  21.337  0.00  0.00    +0.000 A 
ATOM      3  N   UNL     1       0.809   8.643  20.644  0.00  0.00    +0.000 NA
ATOM      4  C   UNL     1       1.600   8.393  19.540  0.00  0.00    +0.000 A 
ATOM      5  C   UNL     1       1.934   9.155  18.411  0.00  0.00    +0.000 A 
ATOM      6  N   UNL     1       1.462  10.460  18.187  0.00  0.00    +0.000 N 
ATOM      7  N   UNL     1       2.777   8.598  17.499  0.00  0.00    +0.000 NA
ATOM      8  C   UNL     1       3.273   7.357  17.695  0.00  0.00    +0.000 A 
ATOM      9  N   UNL     1       4.121   6.902  16.690  0.00  0.00    +0.000 N 
ATOM     10  N   UNL     1       2.965   6.542  18.720  0.00  0.00    +0.000 NA
ATOM     11  C   UNL     1       2.130   7.114  19.601  0.00  0.00    +0.000 A 
ATOM     12  H   UNL     1       1.857  10.843  17.335  0.00  0.00    +0.000 HD
ATOM     13  H   UNL     1       3.495   6.603  15.947  0.00  0.00    +0.000 HD
ENDROOT
BRANCH   6  14
ATOM     14  C   UNL     1       0.184  10.961  18.509  0.00  0.00    +0.000 A 
ATOM     15  C   UNL     1       0.074  12.050  19.381  0.00  0.00    +0.000 A 
ATOM     16  C   UNL     1      -1.181  12.543  19.756  0.00  0.00    +0.000 A 
ATOM     17  C   UNL     1      -2.341  11.964  19.243  0.00  0.00    +0.000 A 
ATOM     18  C   UNL     1      -2.240  10.899  18.356  0.00  0.00    +0.000 A 
ATOM     19 CL   UNL     1      -3.667  10.176  17.717  0.00  0.00    +0.000 Cl
ATOM     20  C   UNL     1      -0.991  10.407  17.982  0.00  0.00    +0.000 A 
ENDBRANCH   6  14
BRANCH   9  21
ATOM     21  C   UNL     1       5.089   5.845  17.038  0.00  0.00    +0.000 C 
ATOM     22  C   UNL     1       6.384   6.480  17.585  0.00  0.00    +0.000 C 
ATOM     23  C   UNL     1       7.504   5.460  17.774  0.00  0.00    +0.000 C 
ATOM     24  C   UNL     1       7.800   4.689  16.496  0.00  0.00    +0.000 C 
ATOM     25  C   UNL     1       6.539   4.028  15.945  0.00  0.00    +0.000 C 
ATOM     26  C   UNL     1       5.384   5.016  15.740  0.00  0.00    +0.000 C 
BRANCH  26  27
ATOM     27  N   UNL     1       5.648   5.887  14.575  0.00  0.00    +0.000 NA
ATOM     28  H   UNL     1       5.781   5.310  13.744  0.00  0.00    +0.000 HD
ATOM     29  H   UNL     1       6.576   6.299  14.721  0.00  0.00    +0.000 HD
ENDBRANCH  26  27
ENDBRANCH   9  21
BRANCH   1  31
ATOM     30  C   UNL     1       0.955   4.227  20.435  0.00  0.00    +0.000 C 
ATOM     31  C   UNL     1       1.779   5.226  21.225  0.00  0.00    +0.000 C 
ENDBRANCH   1  31
TORSDOF 4
ENDMDL
MODEL 4
REMARK VINA RESULT:      -7.2      3.337      7.941
REMARK  Name = 
REMARK  5 active torsions:
REMARK  status: ('A' for Active; 'I' for Inactive)
REMARK    1  A    between atoms: C_1  and  C_2
REMARK    2  A    between atoms: C_2  and  N_3
REMARK    3  A    between atoms: N_8  and  C_9
REMARK    4  A    between atoms: N_18  and  C_19
REMARK    5  A    between atoms: C_24  and  N_25
REMARK                            x       y       z     vdW  Elec       q    Type
REMARK                         _______ _______ _______ _____ _____    ______ ____
ROOT
ATOM      1  N   UNL     1       1.605   6.595  20.748  0.00  0.00    +0.000 N 
ATOM      2  C   UNL     1       0.836   7.553  21.349  0.00  0.00    +0.000 A 
ATOM      3  N   UNL     1       0.819   8.666  20.656  0.00  0.00    +0.000 NA
ATOM      4  C   UNL     1       1.603   8.412  19.548  0.00  0.00    +0.000 A 
ATOM      5  C   UNL     1       1.933   9.173  18.417  0.00  0.00    +0.000 A 
ATOM      6  N   UNL     1       1.464  10.479  18.194  0.00  0.00    +0.000 N 
ATOM      7  N   UNL     1       2.770   8.614  17.501  0.00  0.00    +0.000 NA
ATOM      8  C   UNL     1       3.264   7.372  17.695  0.00  0.00    +0.000 A 
ATOM      9  N   UNL     1       4.105   6.913  16.686  0.00  0.00    +0.000 N 
ATOM     10  N   UNL     1       2.959   6.557  18.722  0.00  0.00    +0.000 NA
ATOM     11  C   UNL     1       2.130   7.132  19.607  0.00  0.00    +0.000 A 
ATOM     12  H   UNL     1       1.856  10.861  17.340  0.00  0.00    +0.000 HD
ATOM     13  H   UNL     1       3.476   6.615  15.946  0.00  0.00    +0.000 HD
ENDROOT
BRANCH   6  14
ATOM     14  C   UNL     1       0.189  10.984  18.523  0.00  0.00    +0.000 A 
ATOM     15  C   UNL     1      -0.951  10.353  18.013  0.00  0.00    +0.000 A 
ATOM     16  C   UNL     1      -2.229  10.854  18.284  0.00  0.00    +0.000 A 
ATOM     17  C   UNL     1      -2.381  11.983  19.089  0.00  0.00    +0.000 A 
ATOM     18  C   UNL     1      -1.255  12.601  19.621  0.00  0.00    +0.000 A 
ATOM     19 CL   UNL     1      -1.431  13.996  20.616  0.00  0.00    +0.000 Cl
ATOM     20  C   UNL     1       0.019  12.102  19.351  0.00  0.00    +0.000 A 
ENDBRANCH   6  14
BRANCH   9  21
ATOM     21  C   UNL     1       5.073   5.854  17.030  0.00  0.00    +0.000 C 
ATOM     22  C   UNL     1       6.375   6.486  17.561  0.00  0.00    +0.000 C 
ATOM     23  C   UNL     1       7.493   5.462  17.745  0.00  0.00    +0.000 C 
ATOM     24  C   UNL     1       7.774   4.683  16.467  0.00  0.00    +0.000 C 
ATOM     25  C   UNL     1       6.505   4.026  15.931  0.00  0.00    +0.000 C 
ATOM     26  C   UNL     1       5.352   5.017  15.733  0.00  0.00    +0.000 C 
BRANCH  26  27
ATOM     27  N   UNL     1       5.608   5.882  14.561  0.00  0.00    +0.000 NA
ATOM     28  H   UNL     1       6.198   6.665  14.841  0.00  0.00    +0.000 HD
ATOM     29  H   UNL     1       4.717   6.333  14.330  0.00  0.00    +0.000 HD
ENDBRANCH  26  27
ENDBRANCH   9  21
BRANCH   1  31
ATOM     30  C   UNL     1       0.969   4.246  20.435  0.00  0.00    +0.000 C 
ATOM     31  C   UNL     1       1.782   5.247  21.234  0.00  0.00    +0.000 C 
ENDBRANCH   1  31
TORSDOF 4
ENDMDL
MODEL 5
REMARK VINA RESULT:      -7.0      3.634      6.294
REMARK  Name = 
REMARK  5 active torsions:
REMARK  status: ('A' for Active; 'I' for Inactive)
REMARK    1  A    between atoms: C_1  and  C_2
REMARK    2  A    between atoms: C_2  and  N_3
REMARK    3  A    between atoms: N_8  and  C_9
REMARK    4  A    between atoms: N_18  and  C_19
REMARK    5  A    between atoms: C_24  and  N_25
REMARK                            x       y       z     vdW  Elec       q    Type
REMARK                         _______ _______ _______ _____ _____    ______ ____
ROOT
ATOM      1  N   UNL     1      -1.337  10.802  18.229  0.00  0.00    +0.000 N 
ATOM      2  C   UNL     1      -0.513   9.975  17.516  0.00  0.00    +0.000 A 
ATOM      3  N   UNL     1       0.372   9.391  18.286  0.00  0.00    +0.000 NA
ATOM      4  C   UNL     1       0.101   9.852  19.560  0.00  0.00    +0.000 A 
ATOM      5  C   UNL     1       0.654   9.566  20.817  0.00  0.00    +0.000 A 
ATOM      6  N   UNL     1       1.703   8.652  21.016  0.00  0.00    +0.000 N 
ATOM      7  N   UNL     1       0.153  10.231  21.894  0.00  0.00    +0.000 NA
ATOM      8  C   UNL     1      -0.835  11.137  21.738  0.00  0.00    +0.000 A 
ATOM      9  N   UNL     1      -1.261  11.746  22.915  0.00  0.00    +0.000 N 
ATOM     10  N   UNL     1      -1.455  11.433  20.580  0.00  0.00    +0.000 NA
ATOM     11  C   UNL     1      -0.944  10.761  19.537  0.00  0.00    +0.000 A 
ATOM     12  H   UNL     1       1.978   8.627  21.991  0.00  0.00    +0.000 HD
ATOM     13  H   UNL     1      -1.873  11.060  23.348  0.00  0.00    +0.000 HD
ENDROOT
BRANCH   6  14
ATOM     14  C   UNL     1       1.905   7.439  20.326  0.00  0.00    +0.000 A 
ATOM     15  C   UNL     1       2.574   7.452  19.097  0.00  0.00    +0.000 A 
ATOM     16  C   UNL     1       2.752   6.271  18.366  0.00  0.00    +0.000 A 
ATOM     17  C   UNL     1       2.281   5.059  18.870  0.00  0.00    +0.000 A 
ATOM     18  C   UNL     1       1.639   5.033  20.103  0.00  0.00    +0.000 A 
ATOM     19 CL   UNL     1       1.053   3.542  20.734  0.00  0.00    +0.000 Cl
ATOM     20  C   UNL     1       1.461   6.209  20.831  0.00  0.00    +0.000 A 
ENDBRANCH   6  14
BRANCH   9  21
ATOM     21  C   UNL     1      -1.917  13.063  22.807  0.00  0.00    +0.000 C 
ATOM     22  C   UNL     1      -1.369  14.013  23.890  0.00  0.00    +0.000 C 
ATOM     23  C   UNL     1      -2.145  15.326  23.969  0.00  0.00    +0.000 C 
ATOM     24  C   UNL     1      -3.636  15.099  24.179  0.00  0.00    +0.000 C 
ATOM     25  C   UNL     1      -4.212  14.180  23.104  0.00  0.00    +0.000 C 
ATOM     26  C   UNL     1      -3.460  12.848  22.988  0.00  0.00    +0.000 C 
BRANCH  26  27
ATOM     27  N   UNL     1      -3.766  11.978  24.143  0.00  0.00    +0.000 NA
ATOM     28  H   UNL     1      -4.753  11.720  24.121  0.00  0.00    +0.000 HD
ATOM     29  H   UNL     1      -3.700  12.567  24.980  0.00  0.00    +0.000 HD
ENDBRANCH  26  27
ENDBRANCH   9  21
BRANCH   1  31
ATOM     30  C   UNL     1      -2.818  11.063  16.290  0.00  0.00    +0.000 C 
ATOM     31  C   UNL     1      -2.447  11.544  17.679  0.00  0.00    +0.000 C 
ENDBRANCH   1  31
TORSDOF 4
ENDMDL
MODEL 6
REMARK VINA RESULT:      -6.8      0.938      1.079
REMARK  Name = 
REMARK  5 active torsions:
REMARK  status: ('A' for Active; 'I' for Inactive)
REMARK    1  A    between atoms: C_1  and  C_2
REMARK    2  A    between atoms: C_2  and  N_3
REMARK    3  A    between atoms: N_8  and  C_9
REMARK    4  A    between atoms: N_18  and  C_19
REMARK    5  A    between atoms: C_24  and  N_25
REMARK                            x       y       z     vdW  Elec       q    Type
REMARK                         _______ _______ _______ _____ _____    ______ ____
ROOT
ATOM      1  N   UNL     1       1.837   4.951  19.622  0.00  0.00    +0.000 N 
ATOM      2  C   UNL     1       2.480   4.069  18.798  0.00  0.00    +0.000 A 
ATOM      3  N   UNL     1       3.136   4.685  17.845  0.00  0.00    +0.000 NA
ATOM      4  C   UNL     1       2.918   6.030  18.069  0.00  0.00    +0.000 A 
ATOM      5  C   UNL     1       3.383   7.192  17.436  0.00  0.00    +0.000 A 
ATOM      6  N   UNL     1       4.256   7.181  16.335  0.00  0.00    +0.000 N 
ATOM      7  N   UNL     1       2.943   8.389  17.911  0.00  0.00    +0.000 NA
ATOM      8  C   UNL     1       2.081   8.439  18.949  0.00  0.00    +0.000 A 
ATOM      9  N   UNL     1       1.710   9.721  19.341  0.00  0.00    +0.000 N 
ATOM     10  N   UNL     1       1.628   7.379  19.644  0.00  0.00    +0.000 NA
ATOM     11  C   UNL     1       2.080   6.213  19.157  0.00  0.00    +0.000 A 
ATOM     12  H   UNL     1       4.432   8.125  16.007  0.00  0.00    +0.000 HD
ATOM     13  H   UNL     1       2.494  10.055  19.894  0.00  0.00    +0.000 HD
ENDROOT
BRANCH   6  14
ATOM     14  C   UNL     1       5.319   6.282  16.112  0.00  0.00    +0.000 A 
ATOM     15  C   UNL     1       6.333   6.168  17.068  0.00  0.00    +0.000 A 
ATOM     16  C   UNL     1       7.425   5.317  16.856  0.00  0.00    +0.000 A 
ATOM     17  C   UNL     1       7.501   4.554  15.692  0.00  0.00    +0.000 A 
ATOM     18  C   UNL     1       6.483   4.642  14.748  0.00  0.00    +0.000 A 
ATOM     19 CL   UNL     1       6.567   3.704  13.306  0.00  0.00    +0.000 Cl
ATOM     20  C   UNL     1       5.397   5.489  14.958  0.00  0.00    +0.000 A 
ENDBRANCH   6  14
BRANCH   9  21
ATOM     21  C   UNL     1       0.434   9.874  20.065  0.00  0.00    +0.000 C 
ATOM     22  C   UNL     1      -0.573  10.654  19.196  0.00  0.00    +0.000 C 
ATOM     23  C   UNL     1      -1.843  11.026  19.958  0.00  0.00    +0.000 C 
ATOM     24  C   UNL     1      -1.541  11.802  21.233  0.00  0.00    +0.000 C 
ATOM     25  C   UNL     1      -0.564  11.040  22.125  0.00  0.00    +0.000 C 
ATOM     26  C   UNL     1       0.728  10.644  21.400  0.00  0.00    +0.000 C 
BRANCH  26  27
ATOM     27  N   UNL     1       1.582  11.830  21.178  0.00  0.00    +0.000 NA
ATOM     28  H   UNL     1       1.569  12.417  22.012  0.00  0.00    +0.000 HD
ATOM     29  H   UNL     1       1.104  12.409  20.480  0.00  0.00    +0.000 HD
ENDBRANCH  26  27
ENDBRANCH   9  21
BRANCH   1  31
ATOM     30  C   UNL     1       1.435   3.204  21.298  0.00  0.00    +0.000 C 
ATOM     31  C   UNL     1       1.076   4.589  20.795  0.00  0.00    +0.000 C 
ENDBRANCH   1  31
TORSDOF 4
ENDMDL
MODEL 7
REMARK VINA RESULT:      -6.8      3.253      6.009
REMARK  Name = 
REMARK  5 active torsions:
REMARK  status: ('A' for Active; 'I' for Inactive)
REMARK    1  A    between atoms: C_1  and  C_2
REMARK    2  A    between atoms: C_2  and  N_3
REMARK    3  A    between atoms: N_8  and  C_9
REMARK    4  A    between atoms: N_18  and  C_19
REMARK    5  A    between atoms: C_24  and  N_25
REMARK                            x       y       z     vdW  Elec       q    Type
REMARK                         _______ _______ _______ _____ _____    ______ ____
ROOT
ATOM      1  N   UNL     1      -1.058  10.724  18.189  0.00  0.00    +0.000 N 
ATOM      2  C   UNL     1      -0.204   9.893  17.517  0.00  0.00    +0.000 A 
ATOM      3  N   UNL     1       0.596   9.256  18.337  0.00  0.00    +0.000 NA
ATOM      4  C   UNL     1       0.235   9.685  19.600  0.00  0.00    +0.000 A 
ATOM      5  C   UNL     1       0.673   9.342  20.887  0.00  0.00    +0.000 A 
ATOM      6  N   UNL     1       1.674   8.387  21.139  0.00  0.00    +0.000 N 
ATOM      7  N   UNL     1       0.106   9.989  21.941  0.00  0.00    +0.000 NA
ATOM      8  C   UNL     1      -0.839  10.932  21.736  0.00  0.00    +0.000 A 
ATOM      9  N   UNL     1      -1.342  11.517  22.894  0.00  0.00    +0.000 N 
ATOM     10  N   UNL     1      -1.351  11.284  20.542  0.00  0.00    +0.000 NA
ATOM     11  C   UNL     1      -0.776  10.629  19.522  0.00  0.00    +0.000 A 
ATOM     12  H   UNL     1       1.866   8.323  22.133  0.00  0.00    +0.000 HD
ATOM     13  H   UNL     1      -2.008  10.839  23.253  0.00  0.00    +0.000 HD
ENDROOT
BRANCH   6  14
ATOM     14  C   UNL     1       1.895   7.191  20.428  0.00  0.00    +0.000 A 
ATOM     15  C   UNL     1       1.233   6.024  20.825  0.00  0.00    +0.000 A 
ATOM     16  C   UNL     1       1.464   4.810  20.167  0.00  0.00    +0.000 A 
ATOM     17  C   UNL     1       2.346   4.756  19.088  0.00  0.00    +0.000 A 
ATOM     18  C   UNL     1       2.987   5.917  18.670  0.00  0.00    +0.000 A 
ATOM     19 CL   UNL     1       4.078   5.862  17.338  0.00  0.00    +0.000 Cl
ATOM     20  C   UNL     1       2.758   7.126  19.324  0.00  0.00    +0.000 A 
ENDBRANCH   6  14
BRANCH   9  21
ATOM     21  C   UNL     1      -1.946  12.858  22.778  0.00  0.00    +0.000 C 
ATOM     22  C   UNL     1      -1.322  13.807  23.820  0.00  0.00    +0.000 C 
ATOM     23  C   UNL     1      -2.040  15.153  23.895  0.00  0.00    +0.000 C 
ATOM     24  C   UNL     1      -3.531  14.993  24.159  0.00  0.00    +0.000 C 
ATOM     25  C   UNL     1      -4.181  14.077  23.126  0.00  0.00    +0.000 C 
ATOM     26  C   UNL     1      -3.490  12.712  23.015  0.00  0.00    +0.000 C 
BRANCH  26  27
ATOM     27  N   UNL     1      -3.792  11.881  24.200  0.00  0.00    +0.000 NA
ATOM     28  H   UNL     1      -2.963  11.345  24.458  0.00  0.00    +0.000 HD
ATOM     29  H   UNL     1      -4.447  11.156  23.890  0.00  0.00    +0.000 HD
ENDBRANCH  26  27
ENDBRANCH   9  21
BRANCH   1  31
ATOM     30  C   UNL     1      -2.667  10.852  16.339  0.00  0.00    +0.000 C 
ATOM     31  C   UNL     1      -2.096  11.520  17.576  0.00  0.00    +0.000 C 
ENDBRANCH   1  31
TORSDOF 4
ENDMDL
MODEL 8
REMARK VINA RESULT:      -6.7      8.938     12.001
REMARK  Name = 
REMARK  5 active torsions:
REMARK  status: ('A' for Active; 'I' for Inactive)
REMARK    1  A    between atoms: C_1  and  C_2
REMARK    2  A    between atoms: C_2  and  N_3
REMARK    3  A    between atoms: N_8  and  C_9
REMARK    4  A    between atoms: N_18  and  C_19
REMARK    5  A    between atoms: C_24  and  N_25
REMARK                            x       y       z     vdW  Elec       q    Type
REMARK                         _______ _______ _______ _____ _____    ______ ____
ROOT
ATOM      1  N   UNL     1       7.138  17.173  20.522  0.00  0.00    +0.000 N 
ATOM      2  C   UNL     1       6.079  18.000  20.271  0.00  0.00    +0.000 A 
ATOM      3  N   UNL     1       5.314  17.531  19.314  0.00  0.00    +0.000 NA
ATOM      4  C   UNL     1       5.900  16.338  18.937  0.00  0.00    +0.000 A 
ATOM      5  C   UNL     1       5.540  15.348  18.011  0.00  0.00    +0.000 A 
ATOM      6  N   UNL     1       4.382  15.411  17.217  0.00  0.00    +0.000 N 
ATOM      7  N   UNL     1       6.374  14.283  17.869  0.00  0.00    +0.000 NA
ATOM      8  C   UNL     1       7.510  14.202  18.596  0.00  0.00    +0.000 A 
ATOM      9  N   UNL     1       8.276  13.064  18.360  0.00  0.00    +0.000 N 
ATOM     10  N   UNL     1       7.903  15.079  19.539  0.00  0.00    +0.000 NA
ATOM     11  C   UNL     1       7.061  16.116  19.660  0.00  0.00    +0.000 A 
ATOM     12  H   UNL     1       4.335  14.616  16.588  0.00  0.00    +0.000 HD
ATOM     13  H   UNL     1       7.810  12.332  18.889  0.00  0.00    +0.000 HD
ENDROOT
BRANCH   6  14
ATOM     14  C   UNL     1       3.126  15.924  17.597  0.00  0.00    +0.000 A 
ATOM     15  C   UNL     1       2.700  17.152  17.078  0.00  0.00    +0.000 A 
ATOM     16  C   UNL     1       1.478  17.710  17.469  0.00  0.00    +0.000 A 
ATOM     17  C   UNL     1       0.657  17.033  18.370  0.00  0.00    +0.000 A 
ATOM     18  C   UNL     1       1.060  15.800  18.870  0.00  0.00    +0.000 A 
ATOM     19 CL   UNL     1       0.053  14.956  19.984  0.00  0.00    +0.000 Cl
ATOM     20  C   UNL     1       2.277  15.244  18.481  0.00  0.00    +0.000 A 
ENDBRANCH   6  14
BRANCH   9  21
ATOM     21  C   UNL     1       9.715  13.129  18.677  0.00  0.00    +0.000 C 
ATOM     22  C   UNL     1      10.540  12.648  17.467  0.00  0.00    +0.000 C 
ATOM     23  C   UNL     1      12.025  12.495  17.791  0.00  0.00    +0.000 C 
ATOM     24  C   UNL     1      12.260  11.576  18.982  0.00  0.00    +0.000 C 
ATOM     25  C   UNL     1      11.473  12.043  20.204  0.00  0.00    +0.000 C 
ATOM     26  C   UNL     1       9.974  12.213  19.924  0.00  0.00    +0.000 C 
BRANCH  26  27
ATOM     27  N   UNL     1       9.320  10.895  19.789  0.00  0.00    +0.000 NA
ATOM     28  H   UNL     1       8.885  10.825  18.869  0.00  0.00    +0.000 HD
ATOM     29  H   UNL     1       8.515  10.900  20.425  0.00  0.00    +0.000 HD
ENDBRANCH  26  27
ENDBRANCH   9  21
BRANCH   1  31
ATOM     30  C   UNL     1       9.284  18.236  21.062  0.00  0.00    +0.000 C 
ATOM     31  C   UNL     1       8.129  17.382  21.552  0.00  0.00    +0.000 C 
ENDBRANCH   1  31
TORSDOF 4
ENDMDL
MODEL 9
REMARK VINA RESULT:      -6.6      1.450      1.821
REMARK  Name = 
REMARK  5 active torsions:
REMARK  status: ('A' for Active; 'I' for Inactive)
REMARK    1  A    between atoms: C_1  and  C_2
REMARK    2  A    between atoms: C_2  and  N_3
REMARK    3  A    between atoms: N_8  and  C_9
REMARK    4  A    between atoms: N_18  and  C_19
REMARK    5  A    between atoms: C_24  and  N_25
REMARK                            x       y       z     vdW  Elec       q    Type
REMARK                         _______ _______ _______ _____ _____    ______ ____
ROOT
ATOM      1  N   UNL     1       1.824   4.952  19.634  0.00  0.00    +0.000 N 
ATOM      2  C   UNL     1       2.473   4.042  18.846  0.00  0.00    +0.000 A 
ATOM      3  N   UNL     1       3.149   4.627  17.887  0.00  0.00    +0.000 NA
ATOM      4  C   UNL     1       2.938   5.979  18.070  0.00  0.00    +0.000 A 
ATOM      5  C   UNL     1       3.423   7.119  17.412  0.00  0.00    +0.000 A 
ATOM      6  N   UNL     1       4.314   7.071  16.326  0.00  0.00    +0.000 N 
ATOM      7  N   UNL     1       2.985   8.333  17.845  0.00  0.00    +0.000 NA
ATOM      8  C   UNL     1       2.107   8.418  18.868  0.00  0.00    +0.000 A 
ATOM      9  N   UNL     1       1.739   9.714  19.217  0.00  0.00    +0.000 N 
ATOM     10  N   UNL     1       1.633   7.381  19.584  0.00  0.00    +0.000 NA
ATOM     11  C   UNL     1       2.084   6.199  19.138  0.00  0.00    +0.000 A 
ATOM     12  H   UNL     1       4.503   8.003  15.975  0.00  0.00    +0.000 HD
ATOM     13  H   UNL     1       2.517  10.057  19.773  0.00  0.00    +0.000 HD
ENDROOT
BRANCH   6  14
ATOM     14  C   UNL     1       5.373   6.158  16.146  0.00  0.00    +0.000 A 
ATOM     15  C   UNL     1       5.542   5.541  14.901  0.00  0.00    +0.000 A 
ATOM     16  C   UNL     1       6.556   4.597  14.701  0.00  0.00    +0.000 A 
ATOM     17  C   UNL     1       7.427   4.276  15.742  0.00  0.00    +0.000 A 
ATOM     18  C   UNL     1       7.283   4.904  16.974  0.00  0.00    +0.000 A 
ATOM     19 CL   UNL     1       8.353   4.515  18.266  0.00  0.00    +0.000 Cl
ATOM     20  C   UNL     1       6.273   5.844  17.174  0.00  0.00    +0.000 A 
ENDBRANCH   6  14
BRANCH   9  21
ATOM     21  C   UNL     1       0.453   9.896  19.915  0.00  0.00    +0.000 C 
ATOM     22  C   UNL     1      -0.532  10.662  19.009  0.00  0.00    +0.000 C 
ATOM     23  C   UNL     1      -1.811  11.065  19.740  0.00  0.00    +0.000 C 
ATOM     24  C   UNL     1      -1.523  11.872  20.998  0.00  0.00    +0.000 C 
ATOM     25  C   UNL     1      -0.569  11.126  21.926  0.00  0.00    +0.000 C 
ATOM     26  C   UNL     1       0.732  10.699  21.234  0.00  0.00    +0.000 C 
BRANCH  26  27
ATOM     27  N   UNL     1       1.601  11.871  20.996  0.00  0.00    +0.000 NA
ATOM     28  H   UNL     1       1.123  12.527  20.378  0.00  0.00    +0.000 HD
ATOM     29  H   UNL     1       2.385  11.543  20.422  0.00  0.00    +0.000 HD
ENDBRANCH  26  27
ENDBRANCH   9  21
BRANCH   1  31
ATOM     30  C   UNL     1       1.340   3.235  21.319  0.00  0.00    +0.000 C 
ATOM     31  C   UNL     1       1.040   4.630  20.803  0.00  0.00    +0.000 C 
ENDBRANCH   1  31
TORSDOF 4
ENDMDL
