MODEL 1
REMARK VINA RESULT:      -8.9      0.000      0.000
REMARK  Name = 
REMARK  9 active torsions:
REMARK  status: ('A' for Active; 'I' for Inactive)
REMARK    1  A    between atoms: C_1  and  O_2
REMARK    2  A    between atoms: O_2  and  C_3
REMARK    3  A    between atoms: C_6  and  C_7
REMARK    4  A    between atoms: C_7  and  C_8
REMARK    5  A    between atoms: C_8  and  N_9
REMARK    6  A    between atoms: C_12  and  C_13
REMARK    7  A    between atoms: N_15  and  C_16
REMARK    8  A    between atoms: C_16  and  C_17
REMARK    9  A    between atoms: C_20  and  C_21
REMARK                            x       y       z     vdW  Elec       q    Type
REMARK                         _______ _______ _______ _____ _____    ______ ____
ROOT
ATOM      1  N   UNL     1      -0.981  12.082  20.549  0.00  0.00    +0.000 N 
ATOM      2  C   UNL     1       0.206  11.401  20.187  0.00  0.00    +0.000 A 
ATOM      3  N   UNL     1       1.374  11.593  20.735  0.00  0.00    +0.000 NA
ATOM      4  C   UNL     1       0.189  10.369  19.084  0.00  0.00    +0.000 A 
ATOM      5  C   UNL     1      -0.981  10.209  18.443  0.00  0.00    +0.000 A 
ATOM      6  C   UNL     1      -2.163  10.992  18.758  0.00  0.00    +0.000 A 
ATOM      7  C   UNL     1      -3.409  10.797  17.948  0.00  0.00    +0.000 A 
ATOM      8  O   UNL     1      -3.419   9.992  17.013  0.00  0.00    +0.000 OA
ATOM      9  N   UNL     1      -4.506  11.562  18.313  0.00  0.00    +0.000 N 
ATOM     10  C   UNL     1      -5.715  11.426  17.638  0.00  0.00    +0.000 A 
ATOM     11  C   UNL     1      -6.789  12.155  17.960  0.00  0.00    +0.000 A 
ATOM     12  C   UNL     1      -6.712  13.115  19.031  0.00  0.00    +0.000 A 
ATOM     13  C   UNL     1      -5.565  13.285  19.700  0.00  0.00    +0.000 A 
ATOM     14  C   UNL     1      -4.369  12.471  19.338  0.00  0.00    +0.000 A 
ATOM     15  N   UNL     1      -3.281  12.658  20.005  0.00  0.00    +0.000 NA
ATOM     16  C   UNL     1      -2.161  11.906  19.757  0.00  0.00    +0.000 A 
ATOM     17  H   UNL     1       1.365  12.281  21.481  0.00  0.00    +0.000 HD
ENDROOT
BRANCH   4  18
ATOM     18  C   UNL     1       1.365   9.549  18.635  0.00  0.00    +0.000 C 
ATOM     19  O   UNL     1       2.011   9.842  17.633  0.00  0.00    +0.000 OA
ATOM     20  N   UNL     1       1.665   8.478  19.435  0.00  0.00    +0.000 N 
ATOM     21  H   UNL     1       1.001   8.270  20.184  0.00  0.00    +0.000 HD
BRANCH  20  22
ATOM     22  C   UNL     1       2.729   7.536  19.178  0.00  0.00    +0.000 C 
BRANCH  22  23
ATOM     23  C   UNL     1       2.217   6.117  19.128  0.00  0.00    +0.000 A 
ATOM     24  C   UNL     1       2.234   5.409  17.918  0.00  0.00    +0.000 A 
ATOM     25  C   UNL     1       1.762   4.095  17.851  0.00  0.00    +0.000 A 
ATOM     26  C   UNL     1       1.266   3.458  18.991  0.00  0.00    +0.000 A 
ATOM     27  C   UNL     1       0.745   2.052  18.925  0.00  0.00    +0.000 C 
ATOM     28  C   UNL     1       1.264   4.154  20.206  0.00  0.00    +0.000 A 
ATOM     29  C   UNL     1       1.737   5.470  20.275  0.00  0.00    +0.000 A 
ENDBRANCH  22  23
ENDBRANCH  20  22
ENDBRANCH   4  18
BRANCH   1  30
ATOM     30  C   UNL     1      -0.894  13.192  21.539  0.00  0.00    +0.000 C 
BRANCH  30  31
ATOM     31  C   UNL     1      -1.279  12.894  22.996  0.00  0.00    +0.000 C 
BRANCH  31  35
ATOM     32  C   UNL     1      -5.283  14.322  23.755  0.00  0.00    +0.000 A 
ATOM     33  C   UNL     1      -4.933  13.005  24.047  0.00  0.00    +0.000 A 
ATOM     34  C   UNL     1      -3.631  12.559  23.829  0.00  0.00    +0.000 A 
ATOM     35  C   UNL     1      -2.664  13.423  23.297  0.00  0.00    +0.000 A 
ATOM     36  C   UNL     1      -3.017  14.743  23.002  0.00  0.00    +0.000 A 
ATOM     37  C   UNL     1      -4.322  15.189  23.230  0.00  0.00    +0.000 A 
BRANCH  32  39
ATOM     38  C   UNL     1      -7.442  13.542  24.293  0.00  0.00    +0.000 C 
ATOM     39  O   UNL     1      -6.594  14.639  23.982  0.00  0.00    +0.000 OA
ENDBRANCH  32  39
ENDBRANCH  31  35
ENDBRANCH  30  31
ENDBRANCH   1  30
TORSDOF 7
ENDMDL
MODEL 2
REMARK VINA RESULT:      -8.6      0.794      1.120
REMARK  Name = 
REMARK  9 active torsions:
REMARK  status: ('A' for Active; 'I' for Inactive)
REMARK    1  A    between atoms: C_1  and  O_2
REMARK    2  A    between atoms: O_2  and  C_3
REMARK    3  A    between atoms: C_6  and  C_7
REMARK    4  A    between atoms: C_7  and  C_8
REMARK    5  A    between atoms: C_8  and  N_9
REMARK    6  A    between atoms: C_12  and  C_13
REMARK    7  A    between atoms: N_15  and  C_16
REMARK    8  A    between atoms: C_16  and  C_17
REMARK    9  A    between atoms: C_20  and  C_21
REMARK                            x       y       z     vdW  Elec       q    Type
REMARK                         _______ _______ _______ _____ _____    ______ ____
ROOT
ATOM      1  N   UNL     1      -1.078  12.358  20.488  0.00  0.00    +0.000 N 
ATOM      2  C   UNL     1       0.165  11.857  20.031  0.00  0.00    +0.000 A 
ATOM      3  N   UNL     1       1.329  12.190  20.519  0.00  0.00    +0.000 NA
ATOM      4  C   UNL     1       0.218  10.868  18.891  0.00  0.00    +0.000 A 
ATOM      5  C   UNL     1      -0.957  10.570  18.314  0.00  0.00    +0.000 A 
ATOM      6  C   UNL     1      -2.212  11.173  18.727  0.00  0.00    +0.000 A 
ATOM      7  C   UNL     1      -3.469  10.835  17.983  0.00  0.00    +0.000 A 
ATOM      8  O   UNL     1      -3.429  10.066  17.019  0.00  0.00    +0.000 OA
ATOM      9  N   UNL     1      -4.633  11.431  18.441  0.00  0.00    +0.000 N 
ATOM     10  C   UNL     1      -5.853  11.152  17.832  0.00  0.00    +0.000 A 
ATOM     11  C   UNL     1      -6.993  11.717  18.244  0.00  0.00    +0.000 A 
ATOM     12  C   UNL     1      -6.979  12.645  19.346  0.00  0.00    +0.000 A 
ATOM     13  C   UNL     1      -5.827  12.948  19.954  0.00  0.00    +0.000 A 
ATOM     14  C   UNL     1      -4.556  12.317  19.491  0.00  0.00    +0.000 A 
ATOM     15  N   UNL     1      -3.464  12.630  20.102  0.00  0.00    +0.000 NA
ATOM     16  C   UNL     1      -2.270  12.047  19.760  0.00  0.00    +0.000 A 
ATOM     17  H   UNL     1       1.274  12.847  21.291  0.00  0.00    +0.000 HD
ENDROOT
BRANCH   4  18
ATOM     18  C   UNL     1       1.463  10.230  18.344  0.00  0.00    +0.000 C 
ATOM     19  O   UNL     1       2.355  10.898  17.826  0.00  0.00    +0.000 OA
ATOM     20  N   UNL     1       1.530   8.870  18.487  0.00  0.00    +0.000 N 
ATOM     21  H   UNL     1       0.689   8.409  18.839  0.00  0.00    +0.000 HD
BRANCH  20  22
ATOM     22  C   UNL     1       2.615   8.048  18.005  0.00  0.00    +0.000 C 
BRANCH  22  23
ATOM     23  C   UNL     1       2.564   6.657  18.590  0.00  0.00    +0.000 A 
ATOM     24  C   UNL     1       2.151   6.470  19.917  0.00  0.00    +0.000 A 
ATOM     25  C   UNL     1       2.098   5.191  20.477  0.00  0.00    +0.000 A 
ATOM     26  C   UNL     1       2.455   4.070  19.723  0.00  0.00    +0.000 A 
ATOM     27  C   UNL     1       2.414   2.694  20.321  0.00  0.00    +0.000 C 
ATOM     28  C   UNL     1       2.850   4.248  18.392  0.00  0.00    +0.000 A 
ATOM     29  C   UNL     1       2.902   5.530  17.830  0.00  0.00    +0.000 A 
ENDBRANCH  22  23
ENDBRANCH  20  22
ENDBRANCH   4  18
BRANCH   1  30
ATOM     30  C   UNL     1      -1.080  13.437  21.516  0.00  0.00    +0.000 C 
BRANCH  30  31
ATOM     31  C   UNL     1      -1.396  13.053  22.969  0.00  0.00    +0.000 C 
BRANCH  31  35
ATOM     32  C   UNL     1      -5.554  13.853  23.815  0.00  0.00    +0.000 A 
ATOM     33  C   UNL     1      -4.982  12.632  24.167  0.00  0.00    +0.000 A 
ATOM     34  C   UNL     1      -3.631  12.392  23.919  0.00  0.00    +0.000 A 
ATOM     35  C   UNL     1      -2.839  13.367  23.297  0.00  0.00    +0.000 A 
ATOM     36  C   UNL     1      -3.415  14.590  22.942  0.00  0.00    +0.000 A 
ATOM     37  C   UNL     1      -4.768  14.831  23.200  0.00  0.00    +0.000 A 
BRANCH  32  39
ATOM     38  C   UNL     1      -7.558  15.026  23.406  0.00  0.00    +0.000 C 
ATOM     39  O   UNL     1      -6.891  13.966  24.079  0.00  0.00    +0.000 OA
ENDBRANCH  32  39
ENDBRANCH  31  35
ENDBRANCH  30  31
ENDBRANCH   1  30
TORSDOF 7
ENDMDL
MODEL 3
REMARK VINA RESULT:      -8.4      0.824      1.442
REMARK  Name = 
REMARK  9 active torsions:
REMARK  status: ('A' for Active; 'I' for Inactive)
REMARK    1  A    between atoms: C_1  and  O_2
REMARK    2  A    between atoms: O_2  and  C_3
REMARK    3  A    between atoms: C_6  and  C_7
REMARK    4  A    between atoms: C_7  and  C_8
REMARK    5  A    between atoms: C_8  and  N_9
REMARK    6  A    between atoms: C_12  and  C_13
REMARK    7  A    between atoms: N_15  and  C_16
REMARK    8  A    between atoms: C_16  and  C_17
REMARK    9  A    between atoms: C_20  and  C_21
REMARK                            x       y       z     vdW  Elec       q    Type
REMARK                         _______ _______ _______ _____ _____    ______ ____
ROOT
ATOM      1  N   UNL     1      -1.071  11.645  20.661  0.00  0.00    +0.000 N 
ATOM      2  C   UNL     1       0.147  11.023  20.294  0.00  0.00    +0.000 A 
ATOM      3  N   UNL     1       1.238  11.037  21.010  0.00  0.00    +0.000 NA
ATOM      4  C   UNL     1       0.261  10.280  18.985  0.00  0.00    +0.000 A 
ATOM      5  C   UNL     1      -0.819  10.319  18.188  0.00  0.00    +0.000 A 
ATOM      6  C   UNL     1      -2.026  11.050  18.533  0.00  0.00    +0.000 A 
ATOM      7  C   UNL     1      -3.160  11.098  17.555  0.00  0.00    +0.000 A 
ATOM      8  O   UNL     1      -3.058  10.535  16.462  0.00  0.00    +0.000 OA
ATOM      9  N   UNL     1      -4.288  11.797  17.956  0.00  0.00    +0.000 N 
ATOM     10  C   UNL     1      -5.403  11.868  17.126  0.00  0.00    +0.000 A 
ATOM     11  C   UNL     1      -6.503  12.542  17.479  0.00  0.00    +0.000 A 
ATOM     12  C   UNL     1      -6.555  13.222  18.748  0.00  0.00    +0.000 A 
ATOM     13  C   UNL     1      -5.501  13.186  19.572  0.00  0.00    +0.000 A 
ATOM     14  C   UNL     1      -4.275  12.435  19.175  0.00  0.00    +0.000 A 
ATOM     15  N   UNL     1      -3.279  12.419  19.995  0.00  0.00    +0.000 NA
ATOM     16  C   UNL     1      -2.142  11.705  19.714  0.00  0.00    +0.000 A 
ATOM     17  H   UNL     1       1.140  11.532  21.891  0.00  0.00    +0.000 HD
ENDROOT
BRANCH   4  18
ATOM     18  C   UNL     1       1.478   9.543  18.501  0.00  0.00    +0.000 C 
ATOM     19  O   UNL     1       2.201  10.002  17.621  0.00  0.00    +0.000 OA
ATOM     20  N   UNL     1       1.721   8.350  19.127  0.00  0.00    +0.000 N 
ATOM     21  H   UNL     1       0.999   8.019  19.770  0.00  0.00    +0.000 HD
BRANCH  20  22
ATOM     22  C   UNL     1       2.811   7.461  18.800  0.00  0.00    +0.000 C 
BRANCH  22  23
ATOM     23  C   UNL     1       2.409   6.012  18.935  0.00  0.00    +0.000 A 
ATOM     24  C   UNL     1       2.317   5.426  20.205  0.00  0.00    +0.000 A 
ATOM     25  C   UNL     1       1.949   4.086  20.351  0.00  0.00    +0.000 A 
ATOM     26  C   UNL     1       1.662   3.302  19.231  0.00  0.00    +0.000 A 
ATOM     27  C   UNL     1       1.278   1.858  19.377  0.00  0.00    +0.000 C 
ATOM     28  C   UNL     1       1.733   3.886  17.960  0.00  0.00    +0.000 A 
ATOM     29  C   UNL     1       2.102   5.229  17.814  0.00  0.00    +0.000 A 
ENDBRANCH  22  23
ENDBRANCH  20  22
ENDBRANCH   4  18
BRANCH   1  30
ATOM     30  C   UNL     1      -1.102  12.488  21.889  0.00  0.00    +0.000 C 
BRANCH  30  31
ATOM     31  C   UNL     1      -2.012  12.050  23.046  0.00  0.00    +0.000 C 
BRANCH  31  35
ATOM     32  C   UNL     1      -4.787  15.166  24.159  0.00  0.00    +0.000 A 
ATOM     33  C   UNL     1      -3.413  15.367  24.275  0.00  0.00    +0.000 A 
ATOM     34  C   UNL     1      -2.521  14.369  23.885  0.00  0.00    +0.000 A 
ATOM     35  C   UNL     1      -2.997  13.146  23.389  0.00  0.00    +0.000 A 
ATOM     36  C   UNL     1      -4.375  12.946  23.276  0.00  0.00    +0.000 A 
ATOM     37  C   UNL     1      -5.266  13.953  23.660  0.00  0.00    +0.000 A 
BRANCH  32  39
ATOM     38  C   UNL     1      -4.856  17.360  25.020  0.00  0.00    +0.000 C 
ATOM     39  O   UNL     1      -5.565  16.202  24.599  0.00  0.00    +0.000 OA
ENDBRANCH  32  39
ENDBRANCH  31  35
ENDBRANCH  30  31
ENDBRANCH   1  30
TORSDOF 7
ENDMDL
MODEL 4
REMARK VINA RESULT:      -8.3      2.208      3.331
REMARK  Name = 
REMARK  9 active torsions:
REMARK  status: ('A' for Active; 'I' for Inactive)
REMARK    1  A    between atoms: C_1  and  O_2
REMARK    2  A    between atoms: O_2  and  C_3
REMARK    3  A    between atoms: C_6  and  C_7
REMARK    4  A    between atoms: C_7  and  C_8
REMARK    5  A    between atoms: C_8  and  N_9
REMARK    6  A    between atoms: C_12  and  C_13
REMARK    7  A    between atoms: N_15  and  C_16
REMARK    8  A    between atoms: C_16  and  C_17
REMARK    9  A    between atoms: C_20  and  C_21
REMARK                            x       y       z     vdW  Elec       q    Type
REMARK                         _______ _______ _______ _____ _____    ______ ____
ROOT
ATOM      1  N   UNL     1      -1.071  11.777  20.787  0.00  0.00    +0.000 N 
ATOM      2  C   UNL     1       0.110  11.091  20.414  0.00  0.00    +0.000 A 
ATOM      3  N   UNL     1       1.226  11.102  21.091  0.00  0.00    +0.000 NA
ATOM      4  C   UNL     1       0.151  10.274  19.144  0.00  0.00    +0.000 A 
ATOM      5  C   UNL     1      -0.956  10.311  18.383  0.00  0.00    +0.000 A 
ATOM      6  C   UNL     1      -2.122  11.105  18.728  0.00  0.00    +0.000 A 
ATOM      7  C   UNL     1      -3.288  11.142  17.789  0.00  0.00    +0.000 A 
ATOM      8  O   UNL     1      -3.246  10.518  16.725  0.00  0.00    +0.000 OA
ATOM      9  N   UNL     1      -4.375  11.904  18.188  0.00  0.00    +0.000 N 
ATOM     10  C   UNL     1      -5.516  11.972  17.394  0.00  0.00    +0.000 A 
ATOM     11  C   UNL     1      -6.578  12.705  17.746  0.00  0.00    +0.000 A 
ATOM     12  C   UNL     1      -6.560  13.453  18.977  0.00  0.00    +0.000 A 
ATOM     13  C   UNL     1      -5.479  13.422  19.765  0.00  0.00    +0.000 A 
ATOM     14  C   UNL     1      -4.296  12.605  19.369  0.00  0.00    +0.000 A 
ATOM     15  N   UNL     1      -3.272  12.596  20.154  0.00  0.00    +0.000 NA
ATOM     16  C   UNL     1      -2.173  11.825  19.874  0.00  0.00    +0.000 A 
ATOM     17  H   UNL     1       1.177  11.647  21.946  0.00  0.00    +0.000 HD
ENDROOT
BRANCH   4  18
ATOM     18  C   UNL     1       1.322   9.468  18.661  0.00  0.00    +0.000 C 
ATOM     19  O   UNL     1       1.924   9.759  17.631  0.00  0.00    +0.000 OA
ATOM     20  N   UNL     1       1.671   8.413  19.462  0.00  0.00    +0.000 N 
ATOM     21  H   UNL     1       1.040   8.204  20.238  0.00  0.00    +0.000 HD
BRANCH  20  22
ATOM     22  C   UNL     1       2.740   7.486  19.175  0.00  0.00    +0.000 C 
BRANCH  22  23
ATOM     23  C   UNL     1       2.241   6.062  19.110  0.00  0.00    +0.000 A 
ATOM     24  C   UNL     1       1.791   5.424  20.275  0.00  0.00    +0.000 A 
ATOM     25  C   UNL     1       1.327   4.107  20.237  0.00  0.00    +0.000 A 
ATOM     26  C   UNL     1       1.301   3.397  19.033  0.00  0.00    +0.000 A 
ATOM     27  C   UNL     1       0.817   1.977  18.985  0.00  0.00    +0.000 C 
ATOM     28  C   UNL     1       1.731   4.035  17.863  0.00  0.00    +0.000 A 
ATOM     29  C   UNL     1       2.195   5.356  17.901  0.00  0.00    +0.000 A 
ENDBRANCH  22  23
ENDBRANCH  20  22
ENDBRANCH   4  18
BRANCH   1  30
ATOM     30  C   UNL     1      -1.028  12.685  21.967  0.00  0.00    +0.000 C 
BRANCH  30  31
ATOM     31  C   UNL     1      -0.041  13.862  21.939  0.00  0.00    +0.000 C 
BRANCH  31  35
ATOM     32  C   UNL     1      -1.093  16.813  18.968  0.00  0.00    +0.000 A 
ATOM     33  C   UNL     1      -0.040  15.927  18.745  0.00  0.00    +0.000 A 
ATOM     34  C   UNL     1       0.275  14.957  19.695  0.00  0.00    +0.000 A 
ATOM     35  C   UNL     1      -0.452  14.873  20.891  0.00  0.00    +0.000 A 
ATOM     36  C   UNL     1      -1.505  15.763  21.114  0.00  0.00    +0.000 A 
ATOM     37  C   UNL     1      -1.824  16.730  20.155  0.00  0.00    +0.000 A 
BRANCH  32  39
ATOM     38  C   UNL     1      -0.134  18.096  17.238  0.00  0.00    +0.000 C 
ATOM     39  O   UNL     1      -1.292  17.740  17.981  0.00  0.00    +0.000 OA
ENDBRANCH  32  39
ENDBRANCH  31  35
ENDBRANCH  30  31
ENDBRANCH   1  30
TORSDOF 7
ENDMDL
MODEL 5
REMARK VINA RESULT:      -8.3      2.235      4.077
REMARK  Name = 
REMARK  9 active torsions:
REMARK  status: ('A' for Active; 'I' for Inactive)
REMARK    1  A    between atoms: C_1  and  O_2
REMARK    2  A    between atoms: O_2  and  C_3
REMARK    3  A    between atoms: C_6  and  C_7
REMARK    4  A    between atoms: C_7  and  C_8
REMARK    5  A    between atoms: C_8  and  N_9
REMARK    6  A    between atoms: C_12  and  C_13
REMARK    7  A    between atoms: N_15  and  C_16
REMARK    8  A    between atoms: C_16  and  C_17
REMARK    9  A    between atoms: C_20  and  C_21
REMARK                            x       y       z     vdW  Elec       q    Type
REMARK                         _______ _______ _______ _____ _____    ______ ____
ROOT
ATOM      1  N   UNL     1      -1.160  11.772  20.691  0.00  0.00    +0.000 N 
ATOM      2  C   UNL     1       0.030  11.086  20.344  0.00  0.00    +0.000 A 
ATOM      3  N   UNL     1       1.143  11.131  21.022  0.00  0.00    +0.000 NA
ATOM      4  C   UNL     1       0.082  10.230  19.101  0.00  0.00    +0.000 A 
ATOM      5  C   UNL     1      -1.023  10.231  18.337  0.00  0.00    +0.000 A 
ATOM      6  C   UNL     1      -2.198  11.023  18.653  0.00  0.00    +0.000 A 
ATOM      7  C   UNL     1      -3.362  11.019  17.710  0.00  0.00    +0.000 A 
ATOM      8  O   UNL     1      -3.310  10.361  16.667  0.00  0.00    +0.000 OA
ATOM      9  N   UNL     1      -4.458  11.781  18.082  0.00  0.00    +0.000 N 
ATOM     10  C   UNL     1      -5.598  11.813  17.283  0.00  0.00    +0.000 A 
ATOM     11  C   UNL     1      -6.668  12.545  17.609  0.00  0.00    +0.000 A 
ATOM     12  C   UNL     1      -6.660  13.333  18.815  0.00  0.00    +0.000 A 
ATOM     13  C   UNL     1      -5.582  13.338  19.607  0.00  0.00    +0.000 A 
ATOM     14  C   UNL     1      -4.389  12.521  19.240  0.00  0.00    +0.000 A 
ATOM     15  N   UNL     1      -3.367  12.548  20.028  0.00  0.00    +0.000 NA
ATOM     16  C   UNL     1      -2.259  11.780  19.775  0.00  0.00    +0.000 A 
ATOM     17  H   UNL     1       1.087  11.702  21.859  0.00  0.00    +0.000 HD
ENDROOT
BRANCH   4  18
ATOM     18  C   UNL     1       1.263   9.420  18.646  0.00  0.00    +0.000 C 
ATOM     19  O   UNL     1       1.843   9.663  17.591  0.00  0.00    +0.000 OA
ATOM     20  N   UNL     1       1.646   8.421  19.501  0.00  0.00    +0.000 N 
ATOM     21  H   UNL     1       1.030   8.245  20.297  0.00  0.00    +0.000 HD
BRANCH  20  22
ATOM     22  C   UNL     1       2.729   7.500  19.251  0.00  0.00    +0.000 C 
BRANCH  22  23
ATOM     23  C   UNL     1       2.238   6.076  19.148  0.00  0.00    +0.000 A 
ATOM     24  C   UNL     1       1.754   5.418  20.288  0.00  0.00    +0.000 A 
ATOM     25  C   UNL     1       1.298   4.100  20.214  0.00  0.00    +0.000 A 
ATOM     26  C   UNL     1       1.312   3.409  18.999  0.00  0.00    +0.000 A 
ATOM     27  C   UNL     1       0.837   1.989  18.914  0.00  0.00    +0.000 C 
ATOM     28  C   UNL     1       1.777   4.067  17.854  0.00  0.00    +0.000 A 
ATOM     29  C   UNL     1       2.234   5.389  17.927  0.00  0.00    +0.000 A 
ENDBRANCH  22  23
ENDBRANCH  20  22
ENDBRANCH   4  18
BRANCH   1  30
ATOM     30  C   UNL     1      -1.128  12.718  21.842  0.00  0.00    +0.000 C 
BRANCH  30  31
ATOM     31  C   UNL     1      -1.116  14.224  21.541  0.00  0.00    +0.000 C 
BRANCH  31  35
ATOM     32  C   UNL     1       2.612  15.252  19.621  0.00  0.00    +0.000 A 
ATOM     33  C   UNL     1       1.421  15.245  18.897  0.00  0.00    +0.000 A 
ATOM     34  C   UNL     1       0.216  14.942  19.530  0.00  0.00    +0.000 A 
ATOM     35  C   UNL     1       0.192  14.625  20.896  0.00  0.00    +0.000 A 
ATOM     36  C   UNL     1       1.387  14.630  21.619  0.00  0.00    +0.000 A 
ATOM     37  C   UNL     1       2.593  14.942  20.983  0.00  0.00    +0.000 A 
BRANCH  32  39
ATOM     38  C   UNL     1       3.559  15.533  17.480  0.00  0.00    +0.000 C 
ATOM     39  O   UNL     1       3.734  15.533  18.891  0.00  0.00    +0.000 OA
ENDBRANCH  32  39
ENDBRANCH  31  35
ENDBRANCH  30  31
ENDBRANCH   1  30
TORSDOF 7
ENDMDL
MODEL 6
REMARK VINA RESULT:      -8.2      2.213      3.915
REMARK  Name = 
REMARK  9 active torsions:
REMARK  status: ('A' for Active; 'I' for Inactive)
REMARK    1  A    between atoms: C_1  and  O_2
REMARK    2  A    between atoms: O_2  and  C_3
REMARK    3  A    between atoms: C_6  and  C_7
REMARK    4  A    between atoms: C_7  and  C_8
REMARK    5  A    between atoms: C_8  and  N_9
REMARK    6  A    between atoms: C_12  and  C_13
REMARK    7  A    between atoms: N_15  and  C_16
REMARK    8  A    between atoms: C_16  and  C_17
REMARK    9  A    between atoms: C_20  and  C_21
REMARK                            x       y       z     vdW  Elec       q    Type
REMARK                         _______ _______ _______ _____ _____    ______ ____
ROOT
ATOM      1  N   UNL     1      -1.174  11.724  20.764  0.00  0.00    +0.000 N 
ATOM      2  C   UNL     1       0.019  11.051  20.405  0.00  0.00    +0.000 A 
ATOM      3  N   UNL     1       1.121  11.057  21.104  0.00  0.00    +0.000 NA
ATOM      4  C   UNL     1       0.091  10.256  19.123  0.00  0.00    +0.000 A 
ATOM      5  C   UNL     1      -1.000  10.299  18.340  0.00  0.00    +0.000 A 
ATOM      6  C   UNL     1      -2.177  11.080  18.673  0.00  0.00    +0.000 A 
ATOM      7  C   UNL     1      -3.325  11.127  17.711  0.00  0.00    +0.000 A 
ATOM      8  O   UNL     1      -3.256  10.521  16.638  0.00  0.00    +0.000 OA
ATOM      9  N   UNL     1      -4.424  11.875  18.100  0.00  0.00    +0.000 N 
ATOM     10  C   UNL     1      -5.549  11.951  17.283  0.00  0.00    +0.000 A 
ATOM     11  C   UNL     1      -6.622  12.671  17.625  0.00  0.00    +0.000 A 
ATOM     12  C   UNL     1      -6.634  13.399  18.869  0.00  0.00    +0.000 A 
ATOM     13  C   UNL     1      -5.569  13.361  19.679  0.00  0.00    +0.000 A 
ATOM     14  C   UNL     1      -4.373  12.558  19.294  0.00  0.00    +0.000 A 
ATOM     15  N   UNL     1      -3.366  12.541  20.100  0.00  0.00    +0.000 NA
ATOM     16  C   UNL     1      -2.256  11.781  19.830  0.00  0.00    +0.000 A 
ATOM     17  H   UNL     1       1.051  11.587  21.967  0.00  0.00    +0.000 HD
ENDROOT
BRANCH   4  18
ATOM     18  C   UNL     1       1.277   9.464  18.650  0.00  0.00    +0.000 C 
ATOM     19  O   UNL     1       1.887   9.765  17.627  0.00  0.00    +0.000 OA
ATOM     20  N   UNL     1       1.629   8.411  19.452  0.00  0.00    +0.000 N 
ATOM     21  H   UNL     1       0.992   8.193  20.220  0.00  0.00    +0.000 HD
BRANCH  20  22
ATOM     22  C   UNL     1       2.711   7.497  19.175  0.00  0.00    +0.000 C 
BRANCH  22  23
ATOM     23  C   UNL     1       2.234   6.065  19.128  0.00  0.00    +0.000 A 
ATOM     24  C   UNL     1       2.238   5.365  17.913  0.00  0.00    +0.000 A 
ATOM     25  C   UNL     1       1.798   4.041  17.848  0.00  0.00    +0.000 A 
ATOM     26  C   UNL     1       1.347   3.384  18.996  0.00  0.00    +0.000 A 
ATOM     27  C   UNL     1       0.860   1.966  18.933  0.00  0.00    +0.000 C 
ATOM     28  C   UNL     1       1.358   4.072  20.216  0.00  0.00    +0.000 A 
ATOM     29  C   UNL     1       1.800   5.399  20.282  0.00  0.00    +0.000 A 
ENDBRANCH  22  23
ENDBRANCH  20  22
ENDBRANCH   4  18
BRANCH   1  30
ATOM     30  C   UNL     1      -1.159  12.613  21.960  0.00  0.00    +0.000 C 
BRANCH  30  31
ATOM     31  C   UNL     1      -1.133  14.132  21.734  0.00  0.00    +0.000 C 
BRANCH  31  35
ATOM     32  C   UNL     1       2.284  15.359  19.397  0.00  0.00    +0.000 A 
ATOM     33  C   UNL     1       2.426  15.039  20.746  0.00  0.00    +0.000 A 
ATOM     34  C   UNL     1       1.325  14.614  21.487  0.00  0.00    +0.000 A 
ATOM     35  C   UNL     1       0.060  14.520  20.889  0.00  0.00    +0.000 A 
ATOM     36  C   UNL     1      -0.081  14.844  19.537  0.00  0.00    +0.000 A 
ATOM     37  C   UNL     1       1.027  15.262  18.795  0.00  0.00    +0.000 A 
BRANCH  32  39
ATOM     38  C   UNL     1       3.224  16.573  17.608  0.00  0.00    +0.000 C 
ATOM     39  O   UNL     1       3.425  15.792  18.778  0.00  0.00    +0.000 OA
ENDBRANCH  32  39
ENDBRANCH  31  35
ENDBRANCH  30  31
ENDBRANCH   1  30
TORSDOF 7
ENDMDL
MODEL 7
REMARK VINA RESULT:      -8.2      2.175      3.096
REMARK  Name = 
REMARK  9 active torsions:
REMARK  status: ('A' for Active; 'I' for Inactive)
REMARK    1  A    between atoms: C_1  and  O_2
REMARK    2  A    between atoms: O_2  and  C_3
REMARK    3  A    between atoms: C_6  and  C_7
REMARK    4  A    between atoms: C_7  and  C_8
REMARK    5  A    between atoms: C_8  and  N_9
REMARK    6  A    between atoms: C_12  and  C_13
REMARK    7  A    between atoms: N_15  and  C_16
REMARK    8  A    between atoms: C_16  and  C_17
REMARK    9  A    between atoms: C_20  and  C_21
REMARK                            x       y       z     vdW  Elec       q    Type
REMARK                         _______ _______ _______ _____ _____    ______ ____
ROOT
ATOM      1  N   UNL     1      -1.163  11.676  20.771  0.00  0.00    +0.000 N 
ATOM      2  C   UNL     1       0.028  11.008  20.393  0.00  0.00    +0.000 A 
ATOM      3  N   UNL     1       1.124  10.980  21.099  0.00  0.00    +0.000 NA
ATOM      4  C   UNL     1       0.102  10.262  19.082  0.00  0.00    +0.000 A 
ATOM      5  C   UNL     1      -0.983  10.343  18.295  0.00  0.00    +0.000 A 
ATOM      6  C   UNL     1      -2.158  11.120  18.651  0.00  0.00    +0.000 A 
ATOM      7  C   UNL     1      -3.298  11.212  17.683  0.00  0.00    +0.000 A 
ATOM      8  O   UNL     1      -3.227  10.646  16.589  0.00  0.00    +0.000 OA
ATOM      9  N   UNL     1      -4.395  11.953  18.094  0.00  0.00    +0.000 N 
ATOM     10  C   UNL     1      -5.514  12.068  17.274  0.00  0.00    +0.000 A 
ATOM     11  C   UNL     1      -6.584  12.783  17.637  0.00  0.00    +0.000 A 
ATOM     12  C   UNL     1      -6.598  13.463  18.907  0.00  0.00    +0.000 A 
ATOM     13  C   UNL     1      -5.539  13.386  19.721  0.00  0.00    +0.000 A 
ATOM     14  C   UNL     1      -4.346  12.589  19.314  0.00  0.00    +0.000 A 
ATOM     15  N   UNL     1      -3.344  12.534  20.125  0.00  0.00    +0.000 NA
ATOM     16  C   UNL     1      -2.239  11.777  19.833  0.00  0.00    +0.000 A 
ATOM     17  H   UNL     1       1.053  11.477  21.981  0.00  0.00    +0.000 HD
ENDROOT
BRANCH   4  18
ATOM     18  C   UNL     1       1.285   9.480  18.587  0.00  0.00    +0.000 C 
ATOM     19  O   UNL     1       1.902   9.813  17.579  0.00  0.00    +0.000 OA
ATOM     20  N   UNL     1       1.627   8.396  19.352  0.00  0.00    +0.000 N 
ATOM     21  H   UNL     1       0.984   8.155  20.109  0.00  0.00    +0.000 HD
BRANCH  20  22
ATOM     22  C   UNL     1       2.704   7.485  19.048  0.00  0.00    +0.000 C 
BRANCH  22  23
ATOM     23  C   UNL     1       2.248   6.047  19.090  0.00  0.00    +0.000 A 
ATOM     24  C   UNL     1       2.285   5.266  17.927  0.00  0.00    +0.000 A 
ATOM     25  C   UNL     1       1.865   3.933  17.945  0.00  0.00    +0.000 A 
ATOM     26  C   UNL     1       1.401   3.350  19.127  0.00  0.00    +0.000 A 
ATOM     27  C   UNL     1       0.935   1.924  19.153  0.00  0.00    +0.000 C 
ATOM     28  C   UNL     1       1.379   4.120  20.297  0.00  0.00    +0.000 A 
ATOM     29  C   UNL     1       1.800   5.455  20.279  0.00  0.00    +0.000 A 
ENDBRANCH  22  23
ENDBRANCH  20  22
ENDBRANCH   4  18
BRANCH   1  30
ATOM     30  C   UNL     1      -1.150  12.518  22.000  0.00  0.00    +0.000 C 
BRANCH  30  31
ATOM     31  C   UNL     1      -0.082  13.616  22.114  0.00  0.00    +0.000 C 
BRANCH  31  35
ATOM     32  C   UNL     1      -0.728  16.505  18.971  0.00  0.00    +0.000 A 
ATOM     33  C   UNL     1      -1.577  16.458  20.075  0.00  0.00    +0.000 A 
ATOM     34  C   UNL     1      -1.344  15.544  21.101  0.00  0.00    +0.000 A 
ATOM     35  C   UNL     1      -0.266  14.650  21.026  0.00  0.00    +0.000 A 
ATOM     36  C   UNL     1       0.582  14.697  19.916  0.00  0.00    +0.000 A 
ATOM     37  C   UNL     1       0.351  15.621  18.893  0.00  0.00    +0.000 A 
BRANCH  32  39
ATOM     38  C   UNL     1      -1.934  18.462  18.447  0.00  0.00    +0.000 C 
ATOM     39  O   UNL     1      -1.070  17.420  18.013  0.00  0.00    +0.000 OA
ENDBRANCH  32  39
ENDBRANCH  31  35
ENDBRANCH  30  31
ENDBRANCH   1  30
TORSDOF 7
ENDMDL
MODEL 8
REMARK VINA RESULT:      -8.0      1.420      2.009
REMARK  Name = 
REMARK  9 active torsions:
REMARK  status: ('A' for Active; 'I' for Inactive)
REMARK    1  A    between atoms: C_1  and  O_2
REMARK    2  A    between atoms: O_2  and  C_3
REMARK    3  A    between atoms: C_6  and  C_7
REMARK    4  A    between atoms: C_7  and  C_8
REMARK    5  A    between atoms: C_8  and  N_9
REMARK    6  A    between atoms: C_12  and  C_13
REMARK    7  A    between atoms: N_15  and  C_16
REMARK    8  A    between atoms: C_16  and  C_17
REMARK    9  A    between atoms: C_20  and  C_21
REMARK                            x       y       z     vdW  Elec       q    Type
REMARK                         _______ _______ _______ _____ _____    ______ ____
ROOT
ATOM      1  N   UNL     1      -0.984  11.766  20.720  0.00  0.00    +0.000 N 
ATOM      2  C   UNL     1       0.185  11.076  20.315  0.00  0.00    +0.000 A 
ATOM      3  N   UNL     1       1.324  11.099  20.952  0.00  0.00    +0.000 NA
ATOM      4  C   UNL     1       0.183  10.243  19.056  0.00  0.00    +0.000 A 
ATOM      5  C   UNL     1      -0.950  10.267  18.334  0.00  0.00    +0.000 A 
ATOM      6  C   UNL     1      -2.105  11.064  18.709  0.00  0.00    +0.000 A 
ATOM      7  C   UNL     1      -3.304  11.087  17.810  0.00  0.00    +0.000 A 
ATOM      8  O   UNL     1      -3.297  10.449  16.755  0.00  0.00    +0.000 OA
ATOM      9  N   UNL     1      -4.377  11.852  18.237  0.00  0.00    +0.000 N 
ATOM     10  C   UNL     1      -5.546  11.908  17.483  0.00  0.00    +0.000 A 
ATOM     11  C   UNL     1      -6.596  12.644  17.862  0.00  0.00    +0.000 A 
ATOM     12  C   UNL     1      -6.536  13.409  19.081  0.00  0.00    +0.000 A 
ATOM     13  C   UNL     1      -5.428  13.390  19.832  0.00  0.00    +0.000 A 
ATOM     14  C   UNL     1      -4.258  12.570  19.406  0.00  0.00    +0.000 A 
ATOM     15  N   UNL     1      -3.207  12.573  20.154  0.00  0.00    +0.000 NA
ATOM     16  C   UNL     1      -2.117  11.800  19.846  0.00  0.00    +0.000 A 
ATOM     17  H   UNL     1       1.304  11.655  21.801  0.00  0.00    +0.000 HD
ENDROOT
BRANCH   4  18
ATOM     18  C   UNL     1       1.338   9.432  18.542  0.00  0.00    +0.000 C 
ATOM     19  O   UNL     1       1.903   9.711  17.488  0.00  0.00    +0.000 OA
ATOM     20  N   UNL     1       1.717   8.388  19.344  0.00  0.00    +0.000 N 
ATOM     21  H   UNL     1       1.113   8.188  20.143  0.00  0.00    +0.000 HD
BRANCH  20  22
ATOM     22  C   UNL     1       2.776   7.458  19.032  0.00  0.00    +0.000 C 
BRANCH  22  23
ATOM     23  C   UNL     1       2.283   6.031  19.028  0.00  0.00    +0.000 A 
ATOM     24  C   UNL     1       1.791   5.457  20.208  0.00  0.00    +0.000 A 
ATOM     25  C   UNL     1       1.333   4.137  20.226  0.00  0.00    +0.000 A 
ATOM     26  C   UNL     1       1.352   3.362  19.063  0.00  0.00    +0.000 A 
ATOM     27  C   UNL     1       0.874   1.940  19.075  0.00  0.00    +0.000 C 
ATOM     28  C   UNL     1       1.825   3.936  17.876  0.00  0.00    +0.000 A 
ATOM     29  C   UNL     1       2.284   5.259  17.858  0.00  0.00    +0.000 A 
ENDBRANCH  22  23
ENDBRANCH  20  22
ENDBRANCH   4  18
BRANCH   1  30
ATOM     30  C   UNL     1      -0.900  12.690  21.886  0.00  0.00    +0.000 C 
BRANCH  30  31
ATOM     31  C   UNL     1      -1.953  12.552  22.997  0.00  0.00    +0.000 C 
BRANCH  31  35
ATOM     32  C   UNL     1      -2.550  16.340  24.979  0.00  0.00    +0.000 A 
ATOM     33  C   UNL     1      -3.575  15.397  24.932  0.00  0.00    +0.000 A 
ATOM     34  C   UNL     1      -3.365  14.163  24.317  0.00  0.00    +0.000 A 
ATOM     35  C   UNL     1      -2.130  13.865  23.725  0.00  0.00    +0.000 A 
ATOM     36  C   UNL     1      -1.105  14.814  23.771  0.00  0.00    +0.000 A 
ATOM     37  C   UNL     1      -1.315  16.047  24.396  0.00  0.00    +0.000 A 
BRANCH  32  39
ATOM     38  C   UNL     1      -1.784  18.382  25.874  0.00  0.00    +0.000 C 
ATOM     39  O   UNL     1      -2.878  17.524  25.581  0.00  0.00    +0.000 OA
ENDBRANCH  32  39
ENDBRANCH  31  35
ENDBRANCH  30  31
ENDBRANCH   1  30
TORSDOF 7
ENDMDL
MODEL 9
REMARK VINA RESULT:      -8.0      1.418      1.577
REMARK  Name = 
REMARK  9 active torsions:
REMARK  status: ('A' for Active; 'I' for Inactive)
REMARK    1  A    between atoms: C_1  and  O_2
REMARK    2  A    between atoms: O_2  and  C_3
REMARK    3  A    between atoms: C_6  and  C_7
REMARK    4  A    between atoms: C_7  and  C_8
REMARK    5  A    between atoms: C_8  and  N_9
REMARK    6  A    between atoms: C_12  and  C_13
REMARK    7  A    between atoms: N_15  and  C_16
REMARK    8  A    between atoms: C_16  and  C_17
REMARK    9  A    between atoms: C_20  and  C_21
REMARK                            x       y       z     vdW  Elec       q    Type
REMARK                         _______ _______ _______ _____ _____    ______ ____
ROOT
ATOM      1  N   UNL     1      -1.012  12.598  20.294  0.00  0.00    +0.000 N 
ATOM      2  C   UNL     1       0.225  12.067  19.855  0.00  0.00    +0.000 A 
ATOM      3  N   UNL     1       1.398  12.474  20.258  0.00  0.00    +0.000 NA
ATOM      4  C   UNL     1       0.261  10.951  18.839  0.00  0.00    +0.000 A 
ATOM      5  C   UNL     1      -0.928  10.567  18.342  0.00  0.00    +0.000 A 
ATOM      6  C   UNL     1      -2.180  11.194  18.726  0.00  0.00    +0.000 A 
ATOM      7  C   UNL     1      -3.454  10.750  18.072  0.00  0.00    +0.000 A 
ATOM      8  O   UNL     1      -3.430   9.873  17.205  0.00  0.00    +0.000 OA
ATOM      9  N   UNL     1      -4.614  11.377  18.498  0.00  0.00    +0.000 N 
ATOM     10  C   UNL     1      -5.848  11.008  17.970  0.00  0.00    +0.000 A 
ATOM     11  C   UNL     1      -6.985  11.599  18.353  0.00  0.00    +0.000 A 
ATOM     12  C   UNL     1      -6.953  12.651  19.336  0.00  0.00    +0.000 A 
ATOM     13  C   UNL     1      -5.787  13.043  19.863  0.00  0.00    +0.000 A 
ATOM     14  C   UNL     1      -4.520  12.383  19.433  0.00  0.00    +0.000 A 
ATOM     15  N   UNL     1      -3.414  12.784  19.963  0.00  0.00    +0.000 NA
ATOM     16  C   UNL     1      -2.221  12.184  19.650  0.00  0.00    +0.000 A 
ATOM     17  H   UNL     1       1.355  13.217  20.949  0.00  0.00    +0.000 HD
ENDROOT
BRANCH   4  18
ATOM     18  C   UNL     1       1.499  10.274  18.326  0.00  0.00    +0.000 C 
ATOM     19  O   UNL     1       2.455  10.915  17.898  0.00  0.00    +0.000 OA
ATOM     20  N   UNL     1       1.484   8.906  18.394  0.00  0.00    +0.000 N 
ATOM     21  H   UNL     1       0.600   8.475  18.672  0.00  0.00    +0.000 HD
BRANCH  20  22
ATOM     22  C   UNL     1       2.549   8.050  17.928  0.00  0.00    +0.000 C 
BRANCH  22  23
ATOM     23  C   UNL     1       2.561   6.727  18.655  0.00  0.00    +0.000 A 
ATOM     24  C   UNL     1       3.081   5.587  18.026  0.00  0.00    +0.000 A 
ATOM     25  C   UNL     1       3.099   4.353  18.680  0.00  0.00    +0.000 A 
ATOM     26  C   UNL     1       2.599   4.230  19.980  0.00  0.00    +0.000 A 
ATOM     27  C   UNL     1       2.602   2.906  20.686  0.00  0.00    +0.000 C 
ATOM     28  C   UNL     1       2.096   5.369  20.620  0.00  0.00    +0.000 A 
ATOM     29  C   UNL     1       2.078   6.606  19.965  0.00  0.00    +0.000 A 
ENDBRANCH  22  23
ENDBRANCH  20  22
ENDBRANCH   4  18
BRANCH   1  30
ATOM     30  C   UNL     1      -1.001  13.792  21.186  0.00  0.00    +0.000 C 
BRANCH  30  31
ATOM     31  C   UNL     1      -0.923  13.561  22.703  0.00  0.00    +0.000 C 
BRANCH  31  35
ATOM     32  C   UNL     1      -3.837  16.067  24.670  0.00  0.00    +0.000 A 
ATOM     33  C   UNL     1      -3.998  15.709  23.333  0.00  0.00    +0.000 A 
ATOM     34  C   UNL     1      -3.070  14.874  22.712  0.00  0.00    +0.000 A 
ATOM     35  C   UNL     1      -1.956  14.401  23.420  0.00  0.00    +0.000 A 
ATOM     36  C   UNL     1      -1.794  14.764  24.760  0.00  0.00    +0.000 A 
ATOM     37  C   UNL     1      -2.731  15.594  25.382  0.00  0.00    +0.000 A 
BRANCH  32  39
ATOM     38  C   UNL     1      -5.697  17.439  24.203  0.00  0.00    +0.000 C 
ATOM     39  O   UNL     1      -4.792  16.913  25.165  0.00  0.00    +0.000 OA
ENDBRANCH  32  39
ENDBRANCH  31  35
ENDBRANCH  30  31
ENDBRANCH   1  30
TORSDOF 7
ENDMDL
