MODEL 1
REMARK VINA RESULT:      -7.6      0.000      0.000
REMARK  Name = 
REMARK  5 active torsions:
REMARK  status: ('A' for Active; 'I' for Inactive)
REMARK    1  A    between atoms: N_11  and  C_12
REMARK    2  A    between atoms: C_12  and  C_13
REMARK    3  A    between atoms: C_13  and  C_14
REMARK    4  A    between atoms: C_14  and  N_15
REMARK    5  A    between atoms: N_18  and  C_19
REMARK                            x       y       z     vdW  Elec       q    Type
REMARK                         _______ _______ _______ _____ _____    ______ ____
ROOT
ATOM      1  C   UNL     1       7.427   8.133  17.721  0.00  0.00    +0.000 C 
ENDROOT
BRANCH   1   2
ATOM      2  N   UNL     1       7.689   6.708  17.453  0.00  0.00    +0.000 NA
ATOM      3  C   UNL     1       7.433   5.830  18.618  0.00  0.00    +0.000 C 
ATOM      4  C   UNL     1       5.951   5.759  19.041  0.00  0.00    +0.000 C 
ATOM      5  N   UNL     1       5.144   5.247  17.919  0.00  0.00    +0.000 N 
ATOM      6  C   UNL     1       5.329   5.980  16.650  0.00  0.00    +0.000 C 
ATOM      7  C   UNL     1       6.837   6.209  16.335  0.00  0.00    +0.000 C 
BRANCH   5   8
ATOM      8  C   UNL     1       4.029   4.455  18.152  0.00  0.00    +0.000 A 
ATOM      9  C   UNL     1       2.725   4.867  17.826  0.00  0.00    +0.000 A 
ATOM     10  C   UNL     1       1.623   4.012  17.959  0.00  0.00    +0.000 A 
ATOM     11  C   UNL     1       1.807   2.723  18.433  0.00  0.00    +0.000 A 
ATOM     12  F   UNL     1       0.762   1.892  18.528  0.00  0.00    +0.000 F 
ATOM     13  C   UNL     1       3.067   2.286  18.798  0.00  0.00    +0.000 A 
ATOM     14  C   UNL     1       4.161   3.146  18.658  0.00  0.00    +0.000 A 
ENDBRANCH   5   8
ENDBRANCH   1   2
BRANCH   1  15
ATOM     15  C   UNL     1       8.664   9.050  17.804  0.00  0.00    +0.000 C 
BRANCH  15  16
ATOM     16  C   UNL     1       8.620  10.028  18.975  0.00  0.00    +0.000 C 
BRANCH  16  27
ATOM     17  O   UNL     1       7.941  12.311  17.232  0.00  0.00    +0.000 OA
ATOM     18  C   UNL     1       9.004  12.227  17.832  0.00  0.00    +0.000 C 
ATOM     19  C   UNL     1      10.230  13.098  17.592  0.00  0.00    +0.000 C 
ATOM     20  C   UNL     1      10.070  14.589  17.393  0.00  0.00    +0.000 C 
ATOM     21  C   UNL     1      11.469  15.222  17.384  0.00  0.00    +0.000 C 
ATOM     22  C   UNL     1      12.214  14.918  18.690  0.00  0.00    +0.000 C 
ATOM     23  C   UNL     1      12.273  13.415  18.994  0.00  0.00    +0.000 C 
ATOM     24  N   UNL     1      10.983  12.790  18.780  0.00  0.00    +0.000 N 
ATOM     25  C   UNL     1      10.571  11.571  19.308  0.00  0.00    +0.000 C 
ATOM     26  O   UNL     1      11.178  10.921  20.144  0.00  0.00    +0.000 OA
ATOM     27  N   UNL     1       9.374  11.247  18.722  0.00  0.00    +0.000 N 
ENDBRANCH  16  27
ENDBRANCH  15  16
ENDBRANCH   1  15
TORSDOF 5
ENDMDL
MODEL 2
REMARK VINA RESULT:      -7.6      1.491      2.075
REMARK  Name = 
REMARK  5 active torsions:
REMARK  status: ('A' for Active; 'I' for Inactive)
REMARK    1  A    between atoms: N_11  and  C_12
REMARK    2  A    between atoms: C_12  and  C_13
REMARK    3  A    between atoms: C_13  and  C_14
REMARK    4  A    between atoms: C_14  and  N_15
REMARK    5  A    between atoms: N_18  and  C_19
REMARK                            x       y       z     vdW  Elec       q    Type
REMARK                         _______ _______ _______ _____ _____    ______ ____
ROOT
ATOM      1  C   UNL     1       7.732   7.510  18.023  0.00  0.00    +0.000 C 
ENDROOT
BRANCH   1   2
ATOM      2  N   UNL     1       7.141   7.059  16.752  0.00  0.00    +0.000 NA
ATOM      3  C   UNL     1       7.156   5.588  16.582  0.00  0.00    +0.000 C 
ATOM      4  C   UNL     1       6.261   4.828  17.583  0.00  0.00    +0.000 C 
ATOM      5  N   UNL     1       4.864   5.275  17.429  0.00  0.00    +0.000 N 
ATOM      6  C   UNL     1       4.679   6.738  17.512  0.00  0.00    +0.000 C 
ATOM      7  C   UNL     1       5.721   7.497  16.637  0.00  0.00    +0.000 C 
BRANCH   5   8
ATOM      8  C   UNL     1       3.813   4.391  17.624  0.00  0.00    +0.000 A 
ATOM      9  C   UNL     1       3.990   2.997  17.659  0.00  0.00    +0.000 A 
ATOM     10  C   UNL     1       2.939   2.124  17.972  0.00  0.00    +0.000 A 
ATOM     11  C   UNL     1       1.681   2.635  18.249  0.00  0.00    +0.000 A 
ATOM     12  F   UNL     1       0.684   1.807  18.583  0.00  0.00    +0.000 F 
ATOM     13  C   UNL     1       1.452   3.997  18.192  0.00  0.00    +0.000 A 
ATOM     14  C   UNL     1       2.509   4.861  17.882  0.00  0.00    +0.000 A 
ENDBRANCH   5   8
ENDBRANCH   1   2
BRANCH   1  15
ATOM     15  C   UNL     1       8.176   8.987  18.082  0.00  0.00    +0.000 C 
BRANCH  15  16
ATOM     16  C   UNL     1       9.201   9.270  19.177  0.00  0.00    +0.000 C 
BRANCH  16  27
ATOM     17  O   UNL     1       8.691  10.994  21.518  0.00  0.00    +0.000 OA
ATOM     18  C   UNL     1       9.126  11.425  20.459  0.00  0.00    +0.000 C 
ATOM     19  C   UNL     1       9.222  12.894  20.070  0.00  0.00    +0.000 C 
ATOM     20  C   UNL     1       9.712  13.912  21.077  0.00  0.00    +0.000 C 
ATOM     21  C   UNL     1       9.898  15.251  20.349  0.00  0.00    +0.000 C 
ATOM     22  C   UNL     1      10.888  15.108  19.186  0.00  0.00    +0.000 C 
ATOM     23  C   UNL     1      10.492  13.986  18.216  0.00  0.00    +0.000 C 
ATOM     24  N   UNL     1      10.103  12.789  18.936  0.00  0.00    +0.000 N 
ATOM     25  C   UNL     1      10.062  11.501  18.414  0.00  0.00    +0.000 C 
ATOM     26  O   UNL     1      10.487  11.169  17.318  0.00  0.00    +0.000 OA
ATOM     27  N   UNL     1       9.467  10.692  19.347  0.00  0.00    +0.000 N 
ENDBRANCH  16  27
ENDBRANCH  15  16
ENDBRANCH   1  15
TORSDOF 5
ENDMDL
MODEL 3
REMARK VINA RESULT:      -7.4      1.542      1.640
REMARK  Name = 
REMARK  5 active torsions:
REMARK  status: ('A' for Active; 'I' for Inactive)
REMARK    1  A    between atoms: N_11  and  C_12
REMARK    2  A    between atoms: C_12  and  C_13
REMARK    3  A    between atoms: C_13  and  C_14
REMARK    4  A    between atoms: C_14  and  N_15
REMARK    5  A    between atoms: N_18  and  C_19
REMARK                            x       y       z     vdW  Elec       q    Type
REMARK                         _______ _______ _______ _____ _____    ______ ____
ROOT
ATOM      1  C   UNL     1       7.791   7.396  17.998  0.00  0.00    +0.000 C 
ENDROOT
BRANCH   1   2
ATOM      2  N   UNL     1       7.384   6.547  16.866  0.00  0.00    +0.000 NA
ATOM      3  C   UNL     1       7.348   5.103  17.191  0.00  0.00    +0.000 C 
ATOM      4  C   UNL     1       6.269   4.715  18.223  0.00  0.00    +0.000 C 
ATOM      5  N   UNL     1       4.939   5.082  17.704  0.00  0.00    +0.000 N 
ATOM      6  C   UNL     1       4.819   6.489  17.272  0.00  0.00    +0.000 C 
ATOM      7  C   UNL     1       6.023   6.919  16.381  0.00  0.00    +0.000 C 
BRANCH   5   8
ATOM      8  C   UNL     1       3.825   4.310  18.001  0.00  0.00    +0.000 A 
ATOM      9  C   UNL     1       2.515   4.815  17.945  0.00  0.00    +0.000 A 
ATOM     10  C   UNL     1       1.395   3.994  18.133  0.00  0.00    +0.000 A 
ATOM     11  C   UNL     1       1.569   2.644  18.392  0.00  0.00    +0.000 A 
ATOM     12  F   UNL     1       0.502   1.850  18.538  0.00  0.00    +0.000 F 
ATOM     13  C   UNL     1       2.841   2.110  18.490  0.00  0.00    +0.000 A 
ATOM     14  C   UNL     1       3.952   2.937  18.297  0.00  0.00    +0.000 A 
ENDBRANCH   5   8
ENDBRANCH   1   2
BRANCH   1  15
ATOM     15  C   UNL     1       7.553   8.911  17.836  0.00  0.00    +0.000 C 
BRANCH  15  16
ATOM     16  C   UNL     1       8.835   9.709  17.617  0.00  0.00    +0.000 C 
BRANCH  16  27
ATOM     17  O   UNL     1       7.638  12.275  16.782  0.00  0.00    +0.000 OA
ATOM     18  C   UNL     1       8.301  12.152  17.803  0.00  0.00    +0.000 C 
ATOM     19  C   UNL     1       8.843  13.295  18.651  0.00  0.00    +0.000 C 
ATOM     20  C   UNL     1       7.968  14.491  18.957  0.00  0.00    +0.000 C 
ATOM     21  C   UNL     1       8.698  15.366  19.987  0.00  0.00    +0.000 C 
ATOM     22  C   UNL     1       9.004  14.569  21.261  0.00  0.00    +0.000 C 
ATOM     23  C   UNL     1       9.774  13.274  20.970  0.00  0.00    +0.000 C 
ATOM     24  N   UNL     1       9.197  12.568  19.843  0.00  0.00    +0.000 N 
ATOM     25  C   UNL     1       9.375  11.220  19.547  0.00  0.00    +0.000 C 
ATOM     26  O   UNL     1       9.921  10.404  20.272  0.00  0.00    +0.000 OA
ATOM     27  N   UNL     1       8.829  10.989  18.311  0.00  0.00    +0.000 N 
ENDBRANCH  16  27
ENDBRANCH  15  16
ENDBRANCH   1  15
TORSDOF 5
ENDMDL
MODEL 4
REMARK VINA RESULT:      -7.4      1.423      1.816
REMARK  Name = 
REMARK  5 active torsions:
REMARK  status: ('A' for Active; 'I' for Inactive)
REMARK    1  A    between atoms: N_11  and  C_12
REMARK    2  A    between atoms: C_12  and  C_13
REMARK    3  A    between atoms: C_13  and  C_14
REMARK    4  A    between atoms: C_14  and  N_15
REMARK    5  A    between atoms: N_18  and  C_19
REMARK                            x       y       z     vdW  Elec       q    Type
REMARK                         _______ _______ _______ _____ _____    ______ ____
ROOT
ATOM      1  C   UNL     1       7.390   7.977  17.488  0.00  0.00    +0.000 C 
ENDROOT
BRANCH   1   2
ATOM      2  N   UNL     1       7.692   6.537  17.412  0.00  0.00    +0.000 NA
ATOM      3  C   UNL     1       7.277   5.781  18.616  0.00  0.00    +0.000 C 
ATOM      4  C   UNL     1       5.751   5.729  18.833  0.00  0.00    +0.000 C 
ATOM      5  N   UNL     1       5.111   5.087  17.670  0.00  0.00    +0.000 N 
ATOM      6  C   UNL     1       5.470   5.688  16.369  0.00  0.00    +0.000 C 
ATOM      7  C   UNL     1       7.008   5.909  16.245  0.00  0.00    +0.000 C 
BRANCH   5   8
ATOM      8  C   UNL     1       3.976   4.305  17.827  0.00  0.00    +0.000 A 
ATOM      9  C   UNL     1       4.035   2.949  18.193  0.00  0.00    +0.000 A 
ATOM     10  C   UNL     1       2.879   2.204  18.462  0.00  0.00    +0.000 A 
ATOM     11  C   UNL     1       1.635   2.804  18.359  0.00  0.00    +0.000 A 
ATOM     12  F   UNL     1       0.531   2.106  18.648  0.00  0.00    +0.000 F 
ATOM     13  C   UNL     1       1.528   4.126  17.968  0.00  0.00    +0.000 A 
ATOM     14  C   UNL     1       2.688   4.863  17.706  0.00  0.00    +0.000 A 
ENDBRANCH   5   8
ENDBRANCH   1   2
BRANCH   1  15
ATOM     15  C   UNL     1       8.323   8.822  18.380  0.00  0.00    +0.000 C 
BRANCH  15  16
ATOM     16  C   UNL     1       9.018   9.956  17.631  0.00  0.00    +0.000 C 
BRANCH  16  27
ATOM     17  O   UNL     1       7.565  12.407  16.861  0.00  0.00    +0.000 OA
ATOM     18  C   UNL     1       8.281  12.343  17.851  0.00  0.00    +0.000 C 
ATOM     19  C   UNL     1       8.760  13.529  18.678  0.00  0.00    +0.000 C 
ATOM     20  C   UNL     1       7.798  14.644  19.027  0.00  0.00    +0.000 C 
ATOM     21  C   UNL     1       8.494  15.579  20.027  0.00  0.00    +0.000 C 
ATOM     22  C   UNL     1       8.925  14.812  21.283  0.00  0.00    +0.000 C 
ATOM     23  C   UNL     1       9.791  13.589  20.953  0.00  0.00    +0.000 C 
ATOM     24  N   UNL     1       9.229  12.835  19.850  0.00  0.00    +0.000 N 
ATOM     25  C   UNL     1       9.510  11.509  19.541  0.00  0.00    +0.000 C 
ATOM     26  O   UNL     1      10.158  10.743  20.238  0.00  0.00    +0.000 OA
ATOM     27  N   UNL     1       8.931  11.231  18.330  0.00  0.00    +0.000 N 
ENDBRANCH  16  27
ENDBRANCH  15  16
ENDBRANCH   1  15
TORSDOF 5
ENDMDL
MODEL 5
REMARK VINA RESULT:      -7.3      0.560      1.974
REMARK  Name = 
REMARK  5 active torsions:
REMARK  status: ('A' for Active; 'I' for Inactive)
REMARK    1  A    between atoms: N_11  and  C_12
REMARK    2  A    between atoms: C_12  and  C_13
REMARK    3  A    between atoms: C_13  and  C_14
REMARK    4  A    between atoms: C_14  and  N_15
REMARK    5  A    between atoms: N_18  and  C_19
REMARK                            x       y       z     vdW  Elec       q    Type
REMARK                         _______ _______ _______ _____ _____    ______ ____
ROOT
ATOM      1  C   UNL     1       7.420   8.206  17.966  0.00  0.00    +0.000 C 
ENDROOT
BRANCH   1   2
ATOM      2  N   UNL     1       7.504   6.989  17.142  0.00  0.00    +0.000 NA
ATOM      3  C   UNL     1       7.497   5.737  17.932  0.00  0.00    +0.000 C 
ATOM      4  C   UNL     1       6.173   5.469  18.678  0.00  0.00    +0.000 C 
ATOM      5  N   UNL     1       5.070   5.380  17.704  0.00  0.00    +0.000 N 
ATOM      6  C   UNL     1       4.972   6.534  16.786  0.00  0.00    +0.000 C 
ATOM      7  C   UNL     1       6.361   6.909  16.188  0.00  0.00    +0.000 C 
BRANCH   5   8
ATOM      8  C   UNL     1       4.000   4.524  17.921  0.00  0.00    +0.000 A 
ATOM      9  C   UNL     1       4.164   3.212  18.397  0.00  0.00    +0.000 A 
ATOM     10  C   UNL     1       3.069   2.400  18.722  0.00  0.00    +0.000 A 
ATOM     11  C   UNL     1       1.782   2.888  18.566  0.00  0.00    +0.000 A 
ATOM     12  F   UNL     1       0.734   2.129  18.909  0.00  0.00    +0.000 F 
ATOM     13  C   UNL     1       1.573   4.161  18.068  0.00  0.00    +0.000 A 
ATOM     14  C   UNL     1       2.672   4.965  17.750  0.00  0.00    +0.000 A 
ENDBRANCH   5   8
ENDBRANCH   1   2
BRANCH   1  15
ATOM     15  C   UNL     1       8.558   9.232  17.786  0.00  0.00    +0.000 C 
BRANCH  15  16
ATOM     16  C   UNL     1       8.866  10.028  19.051  0.00  0.00    +0.000 C 
BRANCH  16  27
ATOM     17  O   UNL     1      11.495  11.015  19.963  0.00  0.00    +0.000 OA
ATOM     18  C   UNL     1      10.720  11.698  19.306  0.00  0.00    +0.000 C 
ATOM     19  C   UNL     1      10.833  13.200  19.081  0.00  0.00    +0.000 C 
ATOM     20  C   UNL     1      12.178  13.818  18.768  0.00  0.00    +0.000 C 
ATOM     21  C   UNL     1      11.951  15.289  18.390  0.00  0.00    +0.000 C 
ATOM     22  C   UNL     1      11.001  15.404  17.192  0.00  0.00    +0.000 C 
ATOM     23  C   UNL     1       9.675  14.667  17.423  0.00  0.00    +0.000 C 
ATOM     24  N   UNL     1       9.903  13.353  17.992  0.00  0.00    +0.000 N 
ATOM     25  C   UNL     1       9.007  12.290  17.973  0.00  0.00    +0.000 C 
ATOM     26  O   UNL     1       7.958  12.261  17.348  0.00  0.00    +0.000 OA
ATOM     27  N   UNL     1       9.517  11.301  18.774  0.00  0.00    +0.000 N 
ENDBRANCH  16  27
ENDBRANCH  15  16
ENDBRANCH   1  15
TORSDOF 5
ENDMDL
MODEL 6
REMARK VINA RESULT:      -7.2      0.805      1.835
REMARK  Name = 
REMARK  5 active torsions:
REMARK  status: ('A' for Active; 'I' for Inactive)
REMARK    1  A    between atoms: N_11  and  C_12
REMARK    2  A    between atoms: C_12  and  C_13
REMARK    3  A    between atoms: C_13  and  C_14
REMARK    4  A    between atoms: C_14  and  N_15
REMARK    5  A    between atoms: N_18  and  C_19
REMARK                            x       y       z     vdW  Elec       q    Type
REMARK                         _______ _______ _______ _____ _____    ______ ____
ROOT
ATOM      1  C   UNL     1       8.016   7.591  18.196  0.00  0.00    +0.000 C 
ENDROOT
BRANCH   1   2
ATOM      2  N   UNL     1       7.518   6.857  17.020  0.00  0.00    +0.000 NA
ATOM      3  C   UNL     1       7.471   5.390  17.214  0.00  0.00    +0.000 C 
ATOM      4  C   UNL     1       6.451   4.927  18.275  0.00  0.00    +0.000 C 
ATOM      5  N   UNL     1       5.099   5.362  17.880  0.00  0.00    +0.000 N 
ATOM      6  C   UNL     1       4.984   6.805  17.586  0.00  0.00    +0.000 C 
ATOM      7  C   UNL     1       6.138   7.295  16.661  0.00  0.00    +0.000 C 
BRANCH   5   8
ATOM      8  C   UNL     1       3.990   4.584  18.178  0.00  0.00    +0.000 A 
ATOM      9  C   UNL     1       2.692   4.921  17.755  0.00  0.00    +0.000 A 
ATOM     10  C   UNL     1       1.600   4.068  17.963  0.00  0.00    +0.000 A 
ATOM     11  C   UNL     1       1.788   2.857  18.610  0.00  0.00    +0.000 A 
ATOM     12  F   UNL     1       0.755   2.024  18.780  0.00  0.00    +0.000 F 
ATOM     13  C   UNL     1       3.041   2.500  19.074  0.00  0.00    +0.000 A 
ATOM     14  C   UNL     1       4.125   3.357  18.858  0.00  0.00    +0.000 A 
ENDBRANCH   5   8
ENDBRANCH   1   2
BRANCH   1  15
ATOM     15  C   UNL     1       8.415   9.063  17.963  0.00  0.00    +0.000 C 
BRANCH  15  16
ATOM     16  C   UNL     1       8.956   9.752  19.212  0.00  0.00    +0.000 C 
BRANCH  16  27
ATOM     17  O   UNL     1      11.396  11.067  20.228  0.00  0.00    +0.000 OA
ATOM     18  C   UNL     1      10.575  11.642  19.527  0.00  0.00    +0.000 C 
ATOM     19  C   UNL     1      10.511  13.144  19.285  0.00  0.00    +0.000 C 
ATOM     20  C   UNL     1      11.782  13.922  19.025  0.00  0.00    +0.000 C 
ATOM     21  C   UNL     1      11.393  15.350  18.615  0.00  0.00    +0.000 C 
ATOM     22  C   UNL     1      10.494  15.335  17.372  0.00  0.00    +0.000 C 
ATOM     23  C   UNL     1       9.260  14.441  17.554  0.00  0.00    +0.000 C 
ATOM     24  N   UNL     1       9.621  13.171  18.152  0.00  0.00    +0.000 N 
ATOM     25  C   UNL     1       8.866  12.004  18.108  0.00  0.00    +0.000 C 
ATOM     26  O   UNL     1       7.860  11.839  17.436  0.00  0.00    +0.000 OA
ATOM     27  N   UNL     1       9.456  11.093  18.946  0.00  0.00    +0.000 N 
ENDBRANCH  16  27
ENDBRANCH  15  16
ENDBRANCH   1  15
TORSDOF 5
ENDMDL
MODEL 7
REMARK VINA RESULT:      -7.2      1.387      2.237
REMARK  Name = 
REMARK  5 active torsions:
REMARK  status: ('A' for Active; 'I' for Inactive)
REMARK    1  A    between atoms: N_11  and  C_12
REMARK    2  A    between atoms: C_12  and  C_13
REMARK    3  A    between atoms: C_13  and  C_14
REMARK    4  A    between atoms: C_14  and  N_15
REMARK    5  A    between atoms: N_18  and  C_19
REMARK                            x       y       z     vdW  Elec       q    Type
REMARK                         _______ _______ _______ _____ _____    ______ ____
ROOT
ATOM      1  C   UNL     1       7.409   8.223  17.632  0.00  0.00    +0.000 C 
ENDROOT
BRANCH   1   2
ATOM      2  N   UNL     1       7.713   6.796  17.432  0.00  0.00    +0.000 NA
ATOM      3  C   UNL     1       7.455   5.963  18.628  0.00  0.00    +0.000 C 
ATOM      4  C   UNL     1       5.966   5.871  19.023  0.00  0.00    +0.000 C 
ATOM      5  N   UNL     1       5.198   5.289  17.908  0.00  0.00    +0.000 N 
ATOM      6  C   UNL     1       5.391   5.971  16.612  0.00  0.00    +0.000 C 
ATOM      7  C   UNL     1       6.900   6.226  16.319  0.00  0.00    +0.000 C 
BRANCH   5   8
ATOM      8  C   UNL     1       4.099   4.479  18.152  0.00  0.00    +0.000 A 
ATOM      9  C   UNL     1       2.797   4.823  17.746  0.00  0.00    +0.000 A 
ATOM     10  C   UNL     1       1.717   3.943  17.896  0.00  0.00    +0.000 A 
ATOM     11  C   UNL     1       1.921   2.697  18.467  0.00  0.00    +0.000 A 
ATOM     12  F   UNL     1       0.899   1.840  18.579  0.00  0.00    +0.000 F 
ATOM     13  C   UNL     1       3.177   2.329  18.913  0.00  0.00    +0.000 A 
ATOM     14  C   UNL     1       4.249   3.213  18.755  0.00  0.00    +0.000 A 
ENDBRANCH   5   8
ENDBRANCH   1   2
BRANCH   1  15
ATOM     15  C   UNL     1       8.440   9.033  18.444  0.00  0.00    +0.000 C 
BRANCH  15  16
ATOM     16  C   UNL     1       9.139  10.119  17.630  0.00  0.00    +0.000 C 
BRANCH  16  27
ATOM     17  O   UNL     1      10.641  11.118  19.966  0.00  0.00    +0.000 OA
ATOM     18  C   UNL     1       9.777  11.775  19.403  0.00  0.00    +0.000 C 
ATOM     19  C   UNL     1       9.145  13.054  19.936  0.00  0.00    +0.000 C 
ATOM     20  C   UNL     1      10.013  14.115  20.577  0.00  0.00    +0.000 C 
ATOM     21  C   UNL     1       9.144  15.357  20.823  0.00  0.00    +0.000 C 
ATOM     22  C   UNL     1       8.533  15.865  19.511  0.00  0.00    +0.000 C 
ATOM     23  C   UNL     1       7.759  14.770  18.764  0.00  0.00    +0.000 C 
ATOM     24  N   UNL     1       8.509  13.530  18.735  0.00  0.00    +0.000 N 
ATOM     25  C   UNL     1       8.311  12.478  17.847  0.00  0.00    +0.000 C 
ATOM     26  O   UNL     1       7.577  12.505  16.872  0.00  0.00    +0.000 OA
ATOM     27  N   UNL     1       9.084  11.427  18.268  0.00  0.00    +0.000 N 
ENDBRANCH  16  27
ENDBRANCH  15  16
ENDBRANCH   1  15
TORSDOF 5
ENDMDL
MODEL 8
REMARK VINA RESULT:      -7.1      6.366      7.943
REMARK  Name = 
REMARK  5 active torsions:
REMARK  status: ('A' for Active; 'I' for Inactive)
REMARK    1  A    between atoms: N_11  and  C_12
REMARK    2  A    between atoms: C_12  and  C_13
REMARK    3  A    between atoms: C_13  and  C_14
REMARK    4  A    between atoms: C_14  and  N_15
REMARK    5  A    between atoms: N_18  and  C_19
REMARK                            x       y       z     vdW  Elec       q    Type
REMARK                         _______ _______ _______ _____ _____    ______ ____
ROOT
ATOM      1  C   UNL     1       1.323   3.488  20.707  0.00  0.00    +0.000 C 
ENDROOT
BRANCH   1   2
ATOM      2  N   UNL     1       1.810   2.436  19.798  0.00  0.00    +0.000 NA
ATOM      3  C   UNL     1       1.637   2.767  18.364  0.00  0.00    +0.000 C 
ATOM      4  C   UNL     1       2.491   3.959  17.885  0.00  0.00    +0.000 C 
ATOM      5  N   UNL     1       3.919   3.657  18.097  0.00  0.00    +0.000 N 
ATOM      6  C   UNL     1       4.256   3.245  19.475  0.00  0.00    +0.000 C 
ATOM      7  C   UNL     1       3.262   2.173  20.012  0.00  0.00    +0.000 C 
BRANCH   5   8
ATOM      8  C   UNL     1       4.881   4.128  17.217  0.00  0.00    +0.000 A 
ATOM      9  C   UNL     1       6.170   4.504  17.632  0.00  0.00    +0.000 A 
ATOM     10  C   UNL     1       7.168   4.868  16.717  0.00  0.00    +0.000 A 
ATOM     11  C   UNL     1       6.887   4.870  15.361  0.00  0.00    +0.000 A 
ATOM     12  F   UNL     1       7.846   5.182  14.481  0.00  0.00    +0.000 F 
ATOM     13  C   UNL     1       5.622   4.541  14.908  0.00  0.00    +0.000 A 
ATOM     14  C   UNL     1       4.635   4.176  15.829  0.00  0.00    +0.000 A 
ENDBRANCH   5   8
ENDBRANCH   1   2
BRANCH   1  15
ATOM     15  C   UNL     1       1.200   4.904  20.108  0.00  0.00    +0.000 C 
BRANCH  15  16
ATOM     16  C   UNL     1       2.089   5.936  20.797  0.00  0.00    +0.000 C 
BRANCH  16  27
ATOM     17  O   UNL     1       0.777   8.201  22.161  0.00  0.00    +0.000 OA
ATOM     18  C   UNL     1       1.172   8.261  21.005  0.00  0.00    +0.000 C 
ATOM     19  C   UNL     1       0.832   9.360  20.007  0.00  0.00    +0.000 C 
ATOM     20  C   UNL     1       0.845  10.809  20.445  0.00  0.00    +0.000 C 
ATOM     21  C   UNL     1       0.672  11.686  19.197  0.00  0.00    +0.000 C 
ATOM     22  C   UNL     1       1.784  11.410  18.177  0.00  0.00    +0.000 C 
ATOM     23  C   UNL     1       1.889   9.922  17.814  0.00  0.00    +0.000 C 
ATOM     24  N   UNL     1       1.826   9.092  19.001  0.00  0.00    +0.000 N 
ATOM     25  C   UNL     1       2.265   7.776  19.099  0.00  0.00    +0.000 C 
ATOM     26  O   UNL     1       2.900   7.177  18.245  0.00  0.00    +0.000 OA
ATOM     27  N   UNL     1       1.859   7.291  20.315  0.00  0.00    +0.000 N 
ENDBRANCH  16  27
ENDBRANCH  15  16
ENDBRANCH   1  15
TORSDOF 5
ENDMDL
MODEL 9
REMARK VINA RESULT:      -7.1      1.195      2.033
REMARK  Name = 
REMARK  5 active torsions:
REMARK  status: ('A' for Active; 'I' for Inactive)
REMARK    1  A    between atoms: N_11  and  C_12
REMARK    2  A    between atoms: C_12  and  C_13
REMARK    3  A    between atoms: C_13  and  C_14
REMARK    4  A    between atoms: C_14  and  N_15
REMARK    5  A    between atoms: N_18  and  C_19
REMARK                            x       y       z     vdW  Elec       q    Type
REMARK                         _______ _______ _______ _____ _____    ______ ____
ROOT
ATOM      1  C   UNL     1       7.737   7.356  18.369  0.00  0.00    +0.000 C 
ENDROOT
BRANCH   1   2
ATOM      2  N   UNL     1       7.421   6.444  17.258  0.00  0.00    +0.000 NA
ATOM      3  C   UNL     1       7.346   5.021  17.663  0.00  0.00    +0.000 C 
ATOM      4  C   UNL     1       6.180   4.698  18.620  0.00  0.00    +0.000 C 
ATOM      5  N   UNL     1       4.902   5.037  17.969  0.00  0.00    +0.000 N 
ATOM      6  C   UNL     1       4.831   6.417  17.447  0.00  0.00    +0.000 C 
ATOM      7  C   UNL     1       6.109   6.790  16.638  0.00  0.00    +0.000 C 
BRANCH   5   8
ATOM      8  C   UNL     1       3.761   4.287  18.214  0.00  0.00    +0.000 A 
ATOM      9  C   UNL     1       2.637   4.811  18.878  0.00  0.00    +0.000 A 
ATOM     10  C   UNL     1       1.450   4.078  19.015  0.00  0.00    +0.000 A 
ATOM     11  C   UNL     1       1.370   2.797  18.495  0.00  0.00    +0.000 A 
ATOM     12  F   UNL     1       0.227   2.108  18.592  0.00  0.00    +0.000 F 
ATOM     13  C   UNL     1       2.462   2.229  17.865  0.00  0.00    +0.000 A 
ATOM     14  C   UNL     1       3.641   2.969  17.729  0.00  0.00    +0.000 A 
ENDBRANCH   5   8
ENDBRANCH   1   2
BRANCH   1  15
ATOM     15  C   UNL     1       8.591   8.592  18.016  0.00  0.00    +0.000 C 
BRANCH  15  16
ATOM     16  C   UNL     1       7.770   9.864  17.825  0.00  0.00    +0.000 C 
BRANCH  16  27
ATOM     17  O   UNL     1       9.802  10.164  19.945  0.00  0.00    +0.000 OA
ATOM     18  C   UNL     1       9.360  11.112  19.310  0.00  0.00    +0.000 C 
ATOM     19  C   UNL     1       9.553  12.582  19.660  0.00  0.00    +0.000 C 
ATOM     20  C   UNL     1      10.909  13.079  20.111  0.00  0.00    +0.000 C 
ATOM     21  C   UNL     1      10.853  14.611  20.189  0.00  0.00    +0.000 C 
ATOM     22  C   UNL     1      10.471  15.214  18.831  0.00  0.00    +0.000 C 
ATOM     23  C   UNL     1       9.166  14.626  18.277  0.00  0.00    +0.000 C 
ATOM     24  N   UNL     1       9.144  13.183  18.417  0.00  0.00    +0.000 N 
ATOM     25  C   UNL     1       8.333  12.307  17.703  0.00  0.00    +0.000 C 
ATOM     26  O   UNL     1       7.629  12.611  16.754  0.00  0.00    +0.000 OA
ATOM     27  N   UNL     1       8.476  11.062  18.259  0.00  0.00    +0.000 N 
ENDBRANCH  16  27
ENDBRANCH  15  16
ENDBRANCH   1  15
TORSDOF 5
ENDMDL
