MODEL 1
REMARK VINA RESULT:      -8.0      0.000      0.000
REMARK  Name = 
REMARK  7 active torsions:
REMARK  status: ('A' for Active; 'I' for Inactive)
REMARK    1  A    between atoms: C_1  and  O_2
REMARK    2  A    between atoms: O_2  and  C_3
REMARK    3  A    between atoms: C_3  and  C_5
REMARK    4  A    between atoms: C_5  and  C_6
REMARK    5  A    between atoms: C_5  and  C_18
REMARK    6  A    between atoms: C_7  and  O_8
REMARK    7  A    between atoms: C_19  and  O_20
REMARK                            x       y       z     vdW  Elec       q    Type
REMARK                         _______ _______ _______ _____ _____    ______ ____
ROOT
ATOM      1  C   UNL     1       6.171   5.577  17.878  0.00  0.00    +0.000 C 
ENDROOT
BRANCH   1   2
ATOM      2  C   UNL     1       6.586   5.160  16.470  0.00  0.00    +0.000 A 
ATOM      3  C   UNL     1       6.123   4.086  15.792  0.00  0.00    +0.000 A 
ATOM      4  C   UNL     1       6.342   3.973  14.350  0.00  0.00    +0.000 A 
ATOM      5  C   UNL     1       5.670   3.037  13.552  0.00  0.00    +0.000 A 
ATOM      6  C   UNL     1       5.825   3.043  12.163  0.00  0.00    +0.000 A 
ATOM      7  C   UNL     1       6.666   3.976  11.559  0.00  0.00    +0.000 A 
ATOM      8  C   UNL     1       7.349   4.906  12.342  0.00  0.00    +0.000 A 
ATOM      9  C   UNL     1       7.165   4.900  13.724  0.00  0.00    +0.000 A 
ATOM     10  O   UNL     1       7.813   5.898  14.466  0.00  0.00    +0.000 OA
ATOM     11  C   UNL     1       7.531   6.098  15.809  0.00  0.00    +0.000 A 
ATOM     12  O   UNL     1       8.065   7.015  16.429  0.00  0.00    +0.000 OA
BRANCH   3  13
ATOM     13  O   UNL     1       5.230   3.158  16.300  0.00  0.00    +0.000 OA
ATOM     14  H   UNL     1       4.924   2.538  15.605  0.00  0.00    +0.000 HD
ENDBRANCH   3  13
ENDBRANCH   1   2
BRANCH   1  15
ATOM     15  C   UNL     1       4.809   5.049  18.356  0.00  0.00    +0.000 A 
ATOM     16  C   UNL     1       4.548   3.920  19.040  0.00  0.00    +0.000 A 
ATOM     17  C   UNL     1       3.231   3.641  19.599  0.00  0.00    +0.000 A 
ATOM     18  C   UNL     1       2.986   2.597  20.502  0.00  0.00    +0.000 A 
ATOM     19  C   UNL     1       1.708   2.402  21.031  0.00  0.00    +0.000 A 
ATOM     20  C   UNL     1       0.658   3.236  20.644  0.00  0.00    +0.000 A 
ATOM     21  C   UNL     1       0.892   4.278  19.747  0.00  0.00    +0.000 A 
ATOM     22  C   UNL     1       2.180   4.475  19.252  0.00  0.00    +0.000 A 
ATOM     23  O   UNL     1       2.393   5.574  18.403  0.00  0.00    +0.000 OA
ATOM     24  C   UNL     1       3.666   5.933  17.983  0.00  0.00    +0.000 A 
ATOM     25  O   UNL     1       3.844   6.938  17.302  0.00  0.00    +0.000 OA
BRANCH  16  26
ATOM     26  O   UNL     1       5.495   2.957  19.291  0.00  0.00    +0.000 OA
ATOM     27  H   UNL     1       5.055   2.092  19.178  0.00  0.00    +0.000 HD
ENDBRANCH  16  26
ENDBRANCH   1  15
BRANCH   1  28
ATOM     28  C   UNL     1       7.278   5.016  18.771  0.00  0.00    +0.000 C 
ATOM     29  O   UNL     1       8.157   4.264  18.349  0.00  0.00    +0.000 OA
BRANCH  28  31
ATOM     30  C   UNL     1       8.441   5.321  20.779  0.00  0.00    +0.000 C 
ATOM     31  O   UNL     1       7.269   5.586  20.006  0.00  0.00    +0.000 OA
ENDBRANCH  28  31
ENDBRANCH   1  28
TORSDOF 6
ENDMDL
MODEL 2
REMARK VINA RESULT:      -7.9      2.365      4.346
REMARK  Name = 
REMARK  7 active torsions:
REMARK  status: ('A' for Active; 'I' for Inactive)
REMARK    1  A    between atoms: C_1  and  O_2
REMARK    2  A    between atoms: O_2  and  C_3
REMARK    3  A    between atoms: C_3  and  C_5
REMARK    4  A    between atoms: C_5  and  C_6
REMARK    5  A    between atoms: C_5  and  C_18
REMARK    6  A    between atoms: C_7  and  O_8
REMARK    7  A    between atoms: C_19  and  O_20
REMARK                            x       y       z     vdW  Elec       q    Type
REMARK                         _______ _______ _______ _____ _____    ______ ____
ROOT
ATOM      1  C   UNL     1       3.835   4.278  19.349  0.00  0.00    +0.000 C 
ENDROOT
BRANCH   1   2
ATOM      2  C   UNL     1       4.843   4.199  18.206  0.00  0.00    +0.000 A 
ATOM      3  C   UNL     1       4.582   3.782  16.946  0.00  0.00    +0.000 A 
ATOM      4  C   UNL     1       5.530   4.056  15.866  0.00  0.00    +0.000 A 
ATOM      5  C   UNL     1       5.206   3.892  14.513  0.00  0.00    +0.000 A 
ATOM      6  C   UNL     1       6.104   4.276  13.514  0.00  0.00    +0.000 A 
ATOM      7  C   UNL     1       7.344   4.815  13.858  0.00  0.00    +0.000 A 
ATOM      8  C   UNL     1       7.683   4.973  15.201  0.00  0.00    +0.000 A 
ATOM      9  C   UNL     1       6.765   4.605  16.184  0.00  0.00    +0.000 A 
ATOM     10  O   UNL     1       7.117   4.850  17.520  0.00  0.00    +0.000 OA
ATOM     11  C   UNL     1       6.196   4.709  18.547  0.00  0.00    +0.000 A 
ATOM     12  O   UNL     1       6.506   4.984  19.704  0.00  0.00    +0.000 OA
BRANCH   3  13
ATOM     13  O   UNL     1       3.357   3.305  16.512  0.00  0.00    +0.000 OA
ATOM     14  H   UNL     1       2.622   3.653  17.060  0.00  0.00    +0.000 HD
ENDBRANCH   3  13
ENDBRANCH   1   2
BRANCH   1  15
ATOM     15  C   UNL     1       3.110   5.623  19.509  0.00  0.00    +0.000 A 
ATOM     16  C   UNL     1       3.116   6.675  18.670  0.00  0.00    +0.000 A 
ATOM     17  C   UNL     1       2.226   7.815  18.852  0.00  0.00    +0.000 A 
ATOM     18  C   UNL     1       2.045   8.811  17.882  0.00  0.00    +0.000 A 
ATOM     19  C   UNL     1       1.149   9.860  18.101  0.00  0.00    +0.000 A 
ATOM     20  C   UNL     1       0.442   9.934  19.302  0.00  0.00    +0.000 A 
ATOM     21  C   UNL     1       0.614   8.948  20.272  0.00  0.00    +0.000 A 
ATOM     22  C   UNL     1       1.490   7.893  20.025  0.00  0.00    +0.000 A 
ATOM     23  O   UNL     1       1.588   6.883  20.996  0.00  0.00    +0.000 OA
ATOM     24  C   UNL     1       2.320   5.725  20.770  0.00  0.00    +0.000 A 
ATOM     25  O   UNL     1       2.336   4.819  21.598  0.00  0.00    +0.000 OA
BRANCH  16  26
ATOM     26  O   UNL     1       3.934   6.754  17.569  0.00  0.00    +0.000 OA
ATOM     27  H   UNL     1       3.921   5.874  17.144  0.00  0.00    +0.000 HD
ENDBRANCH  16  26
ENDBRANCH   1  15
BRANCH   1  28
ATOM     28  C   UNL     1       2.819   3.184  19.021  0.00  0.00    +0.000 C 
ATOM     29  O   UNL     1       3.017   1.995  19.270  0.00  0.00    +0.000 OA
BRANCH  28  31
ATOM     30  C   UNL     1       0.511   2.849  18.826  0.00  0.00    +0.000 C 
ATOM     31  O   UNL     1       1.633   3.704  18.604  0.00  0.00    +0.000 OA
ENDBRANCH  28  31
ENDBRANCH   1  28
TORSDOF 6
ENDMDL
MODEL 3
REMARK VINA RESULT:      -7.7      6.925     10.262
REMARK  Name = 
REMARK  7 active torsions:
REMARK  status: ('A' for Active; 'I' for Inactive)
REMARK    1  A    between atoms: C_1  and  O_2
REMARK    2  A    between atoms: O_2  and  C_3
REMARK    3  A    between atoms: C_3  and  C_5
REMARK    4  A    between atoms: C_5  and  C_6
REMARK    5  A    between atoms: C_5  and  C_18
REMARK    6  A    between atoms: C_7  and  O_8
REMARK    7  A    between atoms: C_19  and  O_20
REMARK                            x       y       z     vdW  Elec       q    Type
REMARK                         _______ _______ _______ _____ _____    ______ ____
ROOT
ATOM      1  C   UNL     1       0.411  11.823  19.997  0.00  0.00    +0.000 C 
ENDROOT
BRANCH   1   2
ATOM      2  C   UNL     1      -1.061  12.088  19.695  0.00  0.00    +0.000 A 
ATOM      3  C   UNL     1      -1.731  11.676  18.595  0.00  0.00    +0.000 A 
ATOM      4  C   UNL     1      -3.193  11.704  18.568  0.00  0.00    +0.000 A 
ATOM      5  C   UNL     1      -3.946  11.053  17.582  0.00  0.00    +0.000 A 
ATOM      6  C   UNL     1      -5.341  11.010  17.662  0.00  0.00    +0.000 A 
ATOM      7  C   UNL     1      -5.998  11.632  18.723  0.00  0.00    +0.000 A 
ATOM      8  C   UNL     1      -5.262  12.291  19.706  0.00  0.00    +0.000 A 
ATOM      9  C   UNL     1      -3.870  12.305  19.621  0.00  0.00    +0.000 A 
ATOM     10  O   UNL     1      -3.166  12.917  20.669  0.00  0.00    +0.000 OA
ATOM     11  C   UNL     1      -1.788  12.802  20.776  0.00  0.00    +0.000 A 
ATOM     12  O   UNL     1      -1.194  13.295  21.733  0.00  0.00    +0.000 OA
BRANCH   3  13
ATOM     13  O   UNL     1      -1.162  10.990  17.536  0.00  0.00    +0.000 OA
ATOM     14  H   UNL     1      -0.458  11.518  17.103  0.00  0.00    +0.000 HD
ENDBRANCH   3  13
ENDBRANCH   1   2
BRANCH   1  15
ATOM     15  C   UNL     1       0.880  10.371  19.813  0.00  0.00    +0.000 A 
ATOM     16  C   UNL     1       1.475   9.820  18.738  0.00  0.00    +0.000 A 
ATOM     17  C   UNL     1       2.045   8.479  18.773  0.00  0.00    +0.000 A 
ATOM     18  C   UNL     1       2.864   7.965  17.758  0.00  0.00    +0.000 A 
ATOM     19  C   UNL     1       3.409   6.684  17.866  0.00  0.00    +0.000 A 
ATOM     20  C   UNL     1       3.121   5.895  18.981  0.00  0.00    +0.000 A 
ATOM     21  C   UNL     1       2.308   6.397  19.997  0.00  0.00    +0.000 A 
ATOM     22  C   UNL     1       1.796   7.688  19.885  0.00  0.00    +0.000 A 
ATOM     23  O   UNL     1       1.037   8.185  20.957  0.00  0.00    +0.000 OA
ATOM     24  C   UNL     1       0.613   9.506  20.999  0.00  0.00    +0.000 A 
ATOM     25  O   UNL     1       0.013   9.945  21.975  0.00  0.00    +0.000 OA
BRANCH  16  26
ATOM     26  O   UNL     1       1.619  10.475  17.540  0.00  0.00    +0.000 OA
ATOM     27  H   UNL     1       1.584  11.432  17.735  0.00  0.00    +0.000 HD
ENDBRANCH  16  26
ENDBRANCH   1  15
BRANCH   1  28
ATOM     28  C   UNL     1       1.158  12.729  19.018  0.00  0.00    +0.000 C 
ATOM     29  O   UNL     1       0.592  13.335  18.108  0.00  0.00    +0.000 OA
BRANCH  28  31
ATOM     30  C   UNL     1       3.172  13.827  18.556  0.00  0.00    +0.000 C 
ATOM     31  O   UNL     1       2.453  12.916  19.389  0.00  0.00    +0.000 OA
ENDBRANCH  28  31
ENDBRANCH   1  28
TORSDOF 6
ENDMDL
MODEL 4
REMARK VINA RESULT:      -7.5      8.146     11.759
REMARK  Name = 
REMARK  7 active torsions:
REMARK  status: ('A' for Active; 'I' for Inactive)
REMARK    1  A    between atoms: C_1  and  O_2
REMARK    2  A    between atoms: O_2  and  C_3
REMARK    3  A    between atoms: C_3  and  C_5
REMARK    4  A    between atoms: C_5  and  C_6
REMARK    5  A    between atoms: C_5  and  C_18
REMARK    6  A    between atoms: C_7  and  O_8
REMARK    7  A    between atoms: C_19  and  O_20
REMARK                            x       y       z     vdW  Elec       q    Type
REMARK                         _______ _______ _______ _____ _____    ______ ____
ROOT
ATOM      1  C   UNL     1      -0.363  12.795  21.080  0.00  0.00    +0.000 C 
ENDROOT
BRANCH   1   2
ATOM      2  C   UNL     1      -1.881  12.952  21.102  0.00  0.00    +0.000 A 
ATOM      3  C   UNL     1      -2.716  12.728  20.063  0.00  0.00    +0.000 A 
ATOM      4  C   UNL     1      -4.155  12.595  20.288  0.00  0.00    +0.000 A 
ATOM      5  C   UNL     1      -5.033  12.104  19.312  0.00  0.00    +0.000 A 
ATOM      6  C   UNL     1      -6.381  11.887  19.611  0.00  0.00    +0.000 A 
ATOM      7  C   UNL     1      -6.868  12.173  20.886  0.00  0.00    +0.000 A 
ATOM      8  C   UNL     1      -6.008  12.672  21.863  0.00  0.00    +0.000 A 
ATOM      9  C   UNL     1      -4.662  12.862  21.553  0.00  0.00    +0.000 A 
ATOM     10  O   UNL     1      -3.817  13.296  22.585  0.00  0.00    +0.000 OA
ATOM     11  C   UNL     1      -2.439  13.316  22.430  0.00  0.00    +0.000 A 
ATOM     12  O   UNL     1      -1.711  13.644  23.365  0.00  0.00    +0.000 OA
BRANCH   3  13
ATOM     13  O   UNL     1      -2.310  12.368  18.789  0.00  0.00    +0.000 OA
ATOM     14  H   UNL     1      -1.606  12.964  18.455  0.00  0.00    +0.000 HD
ENDBRANCH   3  13
ENDBRANCH   1   2
BRANCH   1  15
ATOM     15  C   UNL     1       0.159  11.421  20.633  0.00  0.00    +0.000 A 
ATOM     16  C   UNL     1       0.502  11.026  19.392  0.00  0.00    +0.000 A 
ATOM     17  C   UNL     1       1.168   9.753  19.142  0.00  0.00    +0.000 A 
ATOM     18  C   UNL     1       1.738   9.414  17.907  0.00  0.00    +0.000 A 
ATOM     19  C   UNL     1       2.395   8.194  17.740  0.00  0.00    +0.000 A 
ATOM     20  C   UNL     1       2.467   7.290  18.801  0.00  0.00    +0.000 A 
ATOM     21  C   UNL     1       1.904   7.617  20.034  0.00  0.00    +0.000 A 
ATOM     22  C   UNL     1       1.278   8.852  20.191  0.00  0.00    +0.000 A 
ATOM     23  O   UNL     1       0.780   9.176  21.463  0.00  0.00    +0.000 OA
ATOM     24  C   UNL     1       0.276  10.438  21.749  0.00  0.00    +0.000 A 
ATOM     25  O   UNL     1      -0.087  10.729  22.884  0.00  0.00    +0.000 OA
BRANCH  16  26
ATOM     26  O   UNL     1       0.280  11.788  18.272  0.00  0.00    +0.000 OA
ATOM     27  H   UNL     1      -0.127  11.200  17.606  0.00  0.00    +0.000 HD
ENDBRANCH  16  26
ENDBRANCH   1  15
BRANCH   1  28
ATOM     28  C   UNL     1       0.105  13.866  20.095  0.00  0.00    +0.000 C 
ATOM     29  O   UNL     1      -0.675  14.601  19.491  0.00  0.00    +0.000 OA
BRANCH  28  31
ATOM     30  C   UNL     1       1.959  14.918  19.129  0.00  0.00    +0.000 C 
ATOM     31  O   UNL     1       1.457  14.016  20.117  0.00  0.00    +0.000 OA
ENDBRANCH  28  31
ENDBRANCH   1  28
TORSDOF 6
ENDMDL
MODEL 5
REMARK VINA RESULT:      -7.2      2.161      3.427
REMARK  Name = 
REMARK  7 active torsions:
REMARK  status: ('A' for Active; 'I' for Inactive)
REMARK    1  A    between atoms: C_1  and  O_2
REMARK    2  A    between atoms: O_2  and  C_3
REMARK    3  A    between atoms: C_3  and  C_5
REMARK    4  A    between atoms: C_5  and  C_6
REMARK    5  A    between atoms: C_5  and  C_18
REMARK    6  A    between atoms: C_7  and  O_8
REMARK    7  A    between atoms: C_19  and  O_20
REMARK                            x       y       z     vdW  Elec       q    Type
REMARK                         _______ _______ _______ _____ _____    ______ ____
ROOT
ATOM      1  C   UNL     1       5.010   4.870  18.899  0.00  0.00    +0.000 C 
ENDROOT
BRANCH   1   2
ATOM      2  C   UNL     1       5.681   4.568  17.563  0.00  0.00    +0.000 A 
ATOM      3  C   UNL     1       5.091   3.994  16.491  0.00  0.00    +0.000 A 
ATOM      4  C   UNL     1       5.729   4.053  15.176  0.00  0.00    +0.000 A 
ATOM      5  C   UNL     1       5.058   3.720  13.991  0.00  0.00    +0.000 A 
ATOM      6  C   UNL     1       5.672   3.902  12.749  0.00  0.00    +0.000 A 
ATOM      7  C   UNL     1       6.971   4.406  12.680  0.00  0.00    +0.000 A 
ATOM      8  C   UNL     1       7.653   4.731  13.851  0.00  0.00    +0.000 A 
ATOM      9  C   UNL     1       7.017   4.564  15.080  0.00  0.00    +0.000 A 
ATOM     10  O   UNL     1       7.712   4.972  16.228  0.00  0.00    +0.000 OA
ATOM     11  C   UNL     1       7.089   5.036  17.466  0.00  0.00    +0.000 A 
ATOM     12  O   UNL     1       7.697   5.452  18.449  0.00  0.00    +0.000 OA
BRANCH   3  13
ATOM     13  O   UNL     1       3.784   3.537  16.461  0.00  0.00    +0.000 OA
ATOM     14  H   UNL     1       3.162   4.247  16.195  0.00  0.00    +0.000 HD
ENDBRANCH   3  13
ENDBRANCH   1   2
BRANCH   1  15
ATOM     15  C   UNL     1       3.928   5.960  18.872  0.00  0.00    +0.000 A 
ATOM     16  C   UNL     1       2.989   6.222  19.801  0.00  0.00    +0.000 A 
ATOM     17  C   UNL     1       2.149   7.412  19.736  0.00  0.00    +0.000 A 
ATOM     18  C   UNL     1       1.329   7.831  20.793  0.00  0.00    +0.000 A 
ATOM     19  C   UNL     1       0.574   9.001  20.684  0.00  0.00    +0.000 A 
ATOM     20  C   UNL     1       0.614   9.750  19.507  0.00  0.00    +0.000 A 
ATOM     21  C   UNL     1       1.426   9.341  18.450  0.00  0.00    +0.000 A 
ATOM     22  C   UNL     1       2.195   8.187  18.587  0.00  0.00    +0.000 A 
ATOM     23  O   UNL     1       3.052   7.843  17.529  0.00  0.00    +0.000 OA
ATOM     24  C   UNL     1       3.960   6.798  17.639  0.00  0.00    +0.000 A 
ATOM     25  O   UNL     1       4.752   6.555  16.733  0.00  0.00    +0.000 OA
BRANCH  16  26
ATOM     26  O   UNL     1       2.763   5.417  20.890  0.00  0.00    +0.000 OA
ATOM     27  H   UNL     1       1.838   5.108  20.825  0.00  0.00    +0.000 HD
ENDBRANCH  16  26
ENDBRANCH   1  15
BRANCH   1  28
ATOM     28  C   UNL     1       4.384   3.537  19.308  0.00  0.00    +0.000 C 
ATOM     29  O   UNL     1       4.992   2.687  19.959  0.00  0.00    +0.000 OA
BRANCH  28  31
ATOM     30  C   UNL     1       2.431   2.248  19.336  0.00  0.00    +0.000 C 
ATOM     31  O   UNL     1       3.054   3.495  19.025  0.00  0.00    +0.000 OA
ENDBRANCH  28  31
ENDBRANCH   1  28
TORSDOF 6
ENDMDL
MODEL 6
REMARK VINA RESULT:      -7.2      8.775     11.426
REMARK  Name = 
REMARK  7 active torsions:
REMARK  status: ('A' for Active; 'I' for Inactive)
REMARK    1  A    between atoms: C_1  and  O_2
REMARK    2  A    between atoms: O_2  and  C_3
REMARK    3  A    between atoms: C_3  and  C_5
REMARK    4  A    between atoms: C_5  and  C_6
REMARK    5  A    between atoms: C_5  and  C_18
REMARK    6  A    between atoms: C_7  and  O_8
REMARK    7  A    between atoms: C_19  and  O_20
REMARK                            x       y       z     vdW  Elec       q    Type
REMARK                         _______ _______ _______ _____ _____    ______ ____
ROOT
ATOM      1  C   UNL     1      -0.699  11.402  19.395  0.00  0.00    +0.000 C 
ENDROOT
BRANCH   1   2
ATOM      2  C   UNL     1       0.325  12.414  18.890  0.00  0.00    +0.000 A 
ATOM      3  C   UNL     1       0.137  13.749  18.790  0.00  0.00    +0.000 A 
ATOM      4  C   UNL     1       1.280  14.644  18.608  0.00  0.00    +0.000 A 
ATOM      5  C   UNL     1       1.187  16.034  18.763  0.00  0.00    +0.000 A 
ATOM      6  C   UNL     1       2.329  16.837  18.693  0.00  0.00    +0.000 A 
ATOM      7  C   UNL     1       3.575  16.258  18.450  0.00  0.00    +0.000 A 
ATOM      8  C   UNL     1       3.679  14.878  18.284  0.00  0.00    +0.000 A 
ATOM      9  C   UNL     1       2.532  14.091  18.379  0.00  0.00    +0.000 A 
ATOM     10  O   UNL     1       2.693  12.701  18.278  0.00  0.00    +0.000 OA
ATOM     11  C   UNL     1       1.652  11.831  18.563  0.00  0.00    +0.000 A 
ATOM     12  O   UNL     1       1.828  10.615  18.525  0.00  0.00    +0.000 OA
BRANCH   3  13
ATOM     13  O   UNL     1      -1.048  14.403  19.084  0.00  0.00    +0.000 OA
ATOM     14  H   UNL     1      -1.222  14.413  20.050  0.00  0.00    +0.000 HD
ENDBRANCH   3  13
ENDBRANCH   1   2
BRANCH   1  15
ATOM     15  C   UNL     1      -1.549  11.852  20.593  0.00  0.00    +0.000 A 
ATOM     16  C   UNL     1      -2.784  12.387  20.582  0.00  0.00    +0.000 A 
ATOM     17  C   UNL     1      -3.551  12.587  21.806  0.00  0.00    +0.000 A 
ATOM     18  C   UNL     1      -4.912  12.924  21.813  0.00  0.00    +0.000 A 
ATOM     19  C   UNL     1      -5.601  13.067  23.019  0.00  0.00    +0.000 A 
ATOM     20  C   UNL     1      -4.929  12.897  24.230  0.00  0.00    +0.000 A 
ATOM     21  C   UNL     1      -3.576  12.561  24.234  0.00  0.00    +0.000 A 
ATOM     22  C   UNL     1      -2.911  12.394  23.021  0.00  0.00    +0.000 A 
ATOM     23  O   UNL     1      -1.567  11.990  23.062  0.00  0.00    +0.000 OA
ATOM     24  C   UNL     1      -0.871  11.657  21.908  0.00  0.00    +0.000 A 
ATOM     25  O   UNL     1       0.280  11.237  21.966  0.00  0.00    +0.000 OA
BRANCH  16  26
ATOM     26  O   UNL     1      -3.431  12.761  19.430  0.00  0.00    +0.000 OA
ATOM     27  H   UNL     1      -3.332  12.022  18.798  0.00  0.00    +0.000 HD
ENDBRANCH  16  26
ENDBRANCH   1  15
BRANCH   1  28
ATOM     28  C   UNL     1      -1.605  11.160  18.188  0.00  0.00    +0.000 C 
ATOM     29  O   UNL     1      -1.675  11.942  17.240  0.00  0.00    +0.000 OA
BRANCH  28  31
ATOM     30  C   UNL     1      -3.358   9.801  17.441  0.00  0.00    +0.000 C 
ATOM     31  O   UNL     1      -2.163   9.920  18.215  0.00  0.00    +0.000 OA
ENDBRANCH  28  31
ENDBRANCH   1  28
TORSDOF 6
ENDMDL
MODEL 7
REMARK VINA RESULT:      -7.2      7.681     11.138
REMARK  Name = 
REMARK  7 active torsions:
REMARK  status: ('A' for Active; 'I' for Inactive)
REMARK    1  A    between atoms: C_1  and  O_2
REMARK    2  A    between atoms: O_2  and  C_3
REMARK    3  A    between atoms: C_3  and  C_5
REMARK    4  A    between atoms: C_5  and  C_6
REMARK    5  A    between atoms: C_5  and  C_18
REMARK    6  A    between atoms: C_7  and  O_8
REMARK    7  A    between atoms: C_19  and  O_20
REMARK                            x       y       z     vdW  Elec       q    Type
REMARK                         _______ _______ _______ _____ _____    ______ ____
ROOT
ATOM      1  C   UNL     1      -0.503  12.330  20.315  0.00  0.00    +0.000 C 
ENDROOT
BRANCH   1   2
ATOM      2  C   UNL     1      -1.998  12.467  20.044  0.00  0.00    +0.000 A 
ATOM      3  C   UNL     1      -2.665  11.938  18.994  0.00  0.00    +0.000 A 
ATOM      4  C   UNL     1      -4.126  11.857  19.012  0.00  0.00    +0.000 A 
ATOM      5  C   UNL     1      -4.854  11.091  18.092  0.00  0.00    +0.000 A 
ATOM      6  C   UNL     1      -6.239  10.953  18.219  0.00  0.00    +0.000 A 
ATOM      7  C   UNL     1      -6.912  11.593  19.259  0.00  0.00    +0.000 A 
ATOM      8  C   UNL     1      -6.201  12.367  20.175  0.00  0.00    +0.000 A 
ATOM      9  C   UNL     1      -4.817  12.476  20.045  0.00  0.00    +0.000 A 
ATOM     10  O   UNL     1      -4.132  13.204  21.030  0.00  0.00    +0.000 OA
ATOM     11  C   UNL     1      -2.747  13.196  21.100  0.00  0.00    +0.000 A 
ATOM     12  O   UNL     1      -2.166  13.792  22.005  0.00  0.00    +0.000 OA
BRANCH   3  13
ATOM     13  O   UNL     1      -2.075  11.227  17.963  0.00  0.00    +0.000 OA
ATOM     14  H   UNL     1      -2.701  11.085  17.221  0.00  0.00    +0.000 HD
ENDBRANCH   3  13
ENDBRANCH   1   2
BRANCH   1  15
ATOM     15  C   UNL     1       0.068  10.907  20.208  0.00  0.00    +0.000 A 
ATOM     16  C   UNL     1       0.620  10.312  19.135  0.00  0.00    +0.000 A 
ATOM     17  C   UNL     1       1.298   9.025  19.229  0.00  0.00    +0.000 A 
ATOM     18  C   UNL     1       2.075   8.488  18.193  0.00  0.00    +0.000 A 
ATOM     19  C   UNL     1       2.730   7.266  18.357  0.00  0.00    +0.000 A 
ATOM     20  C   UNL     1       2.595   6.557  19.551  0.00  0.00    +0.000 A 
ATOM     21  C   UNL     1       1.825   7.082  20.588  0.00  0.00    +0.000 A 
ATOM     22  C   UNL     1       1.203   8.317  20.418  0.00  0.00    +0.000 A 
ATOM     23  O   UNL     1       0.491   8.846  21.507  0.00  0.00    +0.000 OA
ATOM     24  C   UNL     1      -0.034  10.131  21.478  0.00  0.00    +0.000 A 
ATOM     25  O   UNL     1      -0.591  10.606  22.463  0.00  0.00    +0.000 OA
BRANCH  16  26
ATOM     26  O   UNL     1       0.616  10.869  17.880  0.00  0.00    +0.000 OA
ATOM     27  H   UNL     1       1.545  11.090  17.667  0.00  0.00    +0.000 HD
ENDBRANCH  16  26
ENDBRANCH   1  15
BRANCH   1  28
ATOM     28  C   UNL     1       0.148  13.222  19.257  0.00  0.00    +0.000 C 
ATOM     29  O   UNL     1      -0.414  13.524  18.204  0.00  0.00    +0.000 OA
BRANCH  28  31
ATOM     30  C   UNL     1       1.406  15.180  19.502  0.00  0.00    +0.000 C 
ATOM     31  O   UNL     1       1.311  13.769  19.702  0.00  0.00    +0.000 OA
ENDBRANCH  28  31
ENDBRANCH   1  28
TORSDOF 6
ENDMDL
MODEL 8
REMARK VINA RESULT:      -7.1      8.066     11.080
REMARK  Name = 
REMARK  7 active torsions:
REMARK  status: ('A' for Active; 'I' for Inactive)
REMARK    1  A    between atoms: C_1  and  O_2
REMARK    2  A    between atoms: O_2  and  C_3
REMARK    3  A    between atoms: C_3  and  C_5
REMARK    4  A    between atoms: C_5  and  C_6
REMARK    5  A    between atoms: C_5  and  C_18
REMARK    6  A    between atoms: C_7  and  O_8
REMARK    7  A    between atoms: C_19  and  O_20
REMARK                            x       y       z     vdW  Elec       q    Type
REMARK                         _______ _______ _______ _____ _____    ______ ____
ROOT
ATOM      1  C   UNL     1      -0.079  12.394  21.289  0.00  0.00    +0.000 C 
ENDROOT
BRANCH   1   2
ATOM      2  C   UNL     1       0.306  11.006  20.787  0.00  0.00    +0.000 A 
ATOM      3  C   UNL     1       0.475  10.649  19.494  0.00  0.00    +0.000 A 
ATOM      4  C   UNL     1       1.153   9.398  19.156  0.00  0.00    +0.000 A 
ATOM      5  C   UNL     1       1.593   9.100  17.859  0.00  0.00    +0.000 A 
ATOM      6  C   UNL     1       2.338   7.945  17.607  0.00  0.00    +0.000 A 
ATOM      7  C   UNL     1       2.638   7.067  18.648  0.00  0.00    +0.000 A 
ATOM      8  C   UNL     1       2.198   7.345  19.941  0.00  0.00    +0.000 A 
ATOM      9  C   UNL     1       1.474   8.514  20.178  0.00  0.00    +0.000 A 
ATOM     10  O   UNL     1       1.114   8.792  21.504  0.00  0.00    +0.000 OA
ATOM     11  C   UNL     1       0.577  10.019  21.865  0.00  0.00    +0.000 A 
ATOM     12  O   UNL     1       0.322  10.266  23.042  0.00  0.00    +0.000 OA
BRANCH   3  13
ATOM     13  O   UNL     1       0.268  11.487  18.412  0.00  0.00    +0.000 OA
ATOM     14  H   UNL     1       0.893  11.290  17.681  0.00  0.00    +0.000 HD
ENDBRANCH   3  13
ENDBRANCH   1   2
BRANCH   1  15
ATOM     15  C   UNL     1       0.446  13.575  20.457  0.00  0.00    +0.000 A 
ATOM     16  C   UNL     1      -0.230  14.340  19.581  0.00  0.00    +0.000 A 
ATOM     17  C   UNL     1       0.344  15.551  19.008  0.00  0.00    +0.000 A 
ATOM     18  C   UNL     1      -0.404  16.485  18.278  0.00  0.00    +0.000 A 
ATOM     19  C   UNL     1       0.196  17.646  17.785  0.00  0.00    +0.000 A 
ATOM     20  C   UNL     1       1.557  17.871  17.996  0.00  0.00    +0.000 A 
ATOM     21  C   UNL     1       2.310  16.948  18.721  0.00  0.00    +0.000 A 
ATOM     22  C   UNL     1       1.688  15.810  19.231  0.00  0.00    +0.000 A 
ATOM     23  O   UNL     1       2.462  14.937  20.012  0.00  0.00    +0.000 OA
ATOM     24  C   UNL     1       1.893  13.861  20.681  0.00  0.00    +0.000 A 
ATOM     25  O   UNL     1       2.569  13.150  21.418  0.00  0.00    +0.000 OA
BRANCH  16  26
ATOM     26  O   UNL     1      -1.514  14.065  19.177  0.00  0.00    +0.000 OA
ATOM     27  H   UNL     1      -2.057  14.844  19.412  0.00  0.00    +0.000 HD
ENDBRANCH  16  26
ENDBRANCH   1  15
BRANCH   1  28
ATOM     28  C   UNL     1      -1.607  12.387  21.259  0.00  0.00    +0.000 C 
ATOM     29  O   UNL     1      -2.254  11.718  20.453  0.00  0.00    +0.000 OA
BRANCH  28  31
ATOM     30  C   UNL     1      -3.444  12.607  22.693  0.00  0.00    +0.000 C 
ATOM     31  O   UNL     1      -2.137  13.050  22.321  0.00  0.00    +0.000 OA
ENDBRANCH  28  31
ENDBRANCH   1  28
TORSDOF 6
ENDMDL
MODEL 9
REMARK VINA RESULT:      -7.1      6.248      9.321
REMARK  Name = 
REMARK  7 active torsions:
REMARK  status: ('A' for Active; 'I' for Inactive)
REMARK    1  A    between atoms: C_1  and  O_2
REMARK    2  A    between atoms: O_2  and  C_3
REMARK    3  A    between atoms: C_3  and  C_5
REMARK    4  A    between atoms: C_5  and  C_6
REMARK    5  A    between atoms: C_5  and  C_18
REMARK    6  A    between atoms: C_7  and  O_8
REMARK    7  A    between atoms: C_19  and  O_20
REMARK                            x       y       z     vdW  Elec       q    Type
REMARK                         _______ _______ _______ _____ _____    ______ ____
ROOT
ATOM      1  C   UNL     1       0.280  10.581  19.553  0.00  0.00    +0.000 C 
ENDROOT
BRANCH   1   2
ATOM      2  C   UNL     1       0.971   9.229  19.406  0.00  0.00    +0.000 A 
ATOM      3  C   UNL     1       1.709   8.827  18.347  0.00  0.00    +0.000 A 
ATOM      4  C   UNL     1       2.582   7.658  18.456  0.00  0.00    +0.000 A 
ATOM      5  C   UNL     1       3.559   7.350  17.501  0.00  0.00    +0.000 A 
ATOM      6  C   UNL     1       4.446   6.289  17.705  0.00  0.00    +0.000 A 
ATOM      7  C   UNL     1       4.354   5.515  18.862  0.00  0.00    +0.000 A 
ATOM      8  C   UNL     1       3.380   5.805  19.816  0.00  0.00    +0.000 A 
ATOM      9  C   UNL     1       2.518   6.881  19.605  0.00  0.00    +0.000 A 
ATOM     10  O   UNL     1       1.600   7.182  20.623  0.00  0.00    +0.000 OA
ATOM     11  C   UNL     1       0.848   8.347  20.596  0.00  0.00    +0.000 A 
ATOM     12  O   UNL     1       0.093   8.623  21.525  0.00  0.00    +0.000 OA
BRANCH   3  13
ATOM     13  O   UNL     1       1.906   9.571  17.196  0.00  0.00    +0.000 OA
ATOM     14  H   UNL     1       1.176   9.440  16.555  0.00  0.00    +0.000 HD
ENDBRANCH   3  13
ENDBRANCH   1   2
BRANCH   1  15
ATOM     15  C   UNL     1       1.209  11.791  19.736  0.00  0.00    +0.000 A 
ATOM     16  C   UNL     1       1.977  12.396  18.811  0.00  0.00    +0.000 A 
ATOM     17  C   UNL     1       2.661  13.656  19.078  0.00  0.00    +0.000 A 
ATOM     18  C   UNL     1       3.276  14.423  18.078  0.00  0.00    +0.000 A 
ATOM     19  C   UNL     1       3.884  15.640  18.391  0.00  0.00    +0.000 A 
ATOM     20  C   UNL     1       3.904  16.091  19.712  0.00  0.00    +0.000 A 
ATOM     21  C   UNL     1       3.295  15.335  20.714  0.00  0.00    +0.000 A 
ATOM     22  C   UNL     1       2.667  14.138  20.378  0.00  0.00    +0.000 A 
ATOM     23  O   UNL     1       2.007  13.437  21.400  0.00  0.00    +0.000 OA
ATOM     24  C   UNL     1       1.232  12.316  21.132  0.00  0.00    +0.000 A 
ATOM     25  O   UNL     1       0.602  11.758  22.025  0.00  0.00    +0.000 OA
BRANCH  16  26
ATOM     26  O   UNL     1       2.160  11.900  17.544  0.00  0.00    +0.000 OA
ATOM     27  H   UNL     1       2.267  12.671  16.952  0.00  0.00    +0.000 HD
ENDBRANCH  16  26
ENDBRANCH   1  15
BRANCH   1  28
ATOM     28  C   UNL     1      -0.510  10.735  18.253  0.00  0.00    +0.000 C 
ATOM     29  O   UNL     1      -0.780   9.783  17.521  0.00  0.00    +0.000 OA
BRANCH  28  31
ATOM     30  C   UNL     1      -2.336  12.148  18.637  0.00  0.00    +0.000 C 
ATOM     31  O   UNL     1      -1.016  11.990  18.115  0.00  0.00    +0.000 OA
ENDBRANCH  28  31
ENDBRANCH   1  28
TORSDOF 6
ENDMDL
