MODEL 1
REMARK VINA RESULT:      -7.3      0.000      0.000
REMARK  Name = 
REMARK  5 active torsions:
REMARK  status: ('A' for Active; 'I' for Inactive)
REMARK    1  A    between atoms: C_1  and  C_2
REMARK    2  A    between atoms: C_7  and  C_8
REMARK    3  A    between atoms: C_10  and  C_11
REMARK    4  A    between atoms: C_11  and  N_12
REMARK    5  A    between atoms: C_17  and  C_18
REMARK                            x       y       z     vdW  Elec       q    Type
REMARK                         _______ _______ _______ _____ _____    ______ ____
ROOT
ATOM      1  C   UNL     1       1.481   8.336  20.022  0.00  0.00    +0.000 A 
ATOM      2  N   UNL     1       1.863   7.088  20.205  0.00  0.00    +0.000 NA
ATOM      3  C   UNL     1       2.568   6.763  19.066  0.00  0.00    +0.000 A 
ATOM      4  C   UNL     1       2.612   7.861  18.236  0.00  0.00    +0.000 A 
ATOM      5  O   UNL     1       1.912   8.874  18.835  0.00  0.00    +0.000 OA
ENDROOT
BRANCH   1  12
ATOM      6  C   UNL     1      -0.322  10.424  18.854  0.00  0.00    +0.000 C 
ATOM      7  C   UNL     1      -0.209  10.175  20.335  0.00  0.00    +0.000 A 
ATOM      8  C   UNL     1      -0.907  11.042  21.197  0.00  0.00    +0.000 A 
ATOM      9  C   UNL     1      -0.836  10.890  22.578  0.00  0.00    +0.000 A 
ATOM     10  C   UNL     1      -0.080   9.857  23.119  0.00  0.00    +0.000 A 
ATOM     11  C   UNL     1       0.632   8.995  22.279  0.00  0.00    +0.000 A 
ATOM     12  C   UNL     1       0.609   9.157  20.880  0.00  0.00    +0.000 A 
ENDBRANCH   1  12
BRANCH   3  13
ATOM     13  C   UNL     1       3.017   5.346  18.860  0.00  0.00    +0.000 C 
BRANCH  13  14
ATOM     14  N   UNL     1       2.088   4.319  19.384  0.00  0.00    +0.000 NA
ATOM     15  C   UNL     1       1.495   3.489  18.322  0.00  0.00    +0.000 C 
ATOM     16  C   UNL     1       2.450   2.498  17.650  0.00  0.00    +0.000 C 
ATOM     17  C   UNL     1       3.342   1.722  18.616  0.00  0.00    +0.000 C 
ATOM     18  C   UNL     1       3.874   2.581  19.759  0.00  0.00    +0.000 C 
ATOM     19  C   UNL     1       2.782   3.469  20.386  0.00  0.00    +0.000 C 
ATOM     20  C   UNL     1       1.792   2.611  21.190  0.00  0.00    +0.000 C 
ENDBRANCH  13  14
ENDBRANCH   3  13
TORSDOF 3
ENDMDL
MODEL 2
REMARK VINA RESULT:      -7.3      4.316      7.800
REMARK  Name = 
REMARK  5 active torsions:
REMARK  status: ('A' for Active; 'I' for Inactive)
REMARK    1  A    between atoms: C_1  and  C_2
REMARK    2  A    between atoms: C_7  and  C_8
REMARK    3  A    between atoms: C_10  and  C_11
REMARK    4  A    between atoms: C_11  and  N_12
REMARK    5  A    between atoms: C_17  and  C_18
REMARK                            x       y       z     vdW  Elec       q    Type
REMARK                         _______ _______ _______ _____ _____    ______ ____
ROOT
ATOM      1  C   UNL     1       5.019   4.780  15.676  0.00  0.00    +0.000 A 
ATOM      2  N   UNL     1       4.605   4.020  16.671  0.00  0.00    +0.000 NA
ATOM      3  C   UNL     1       4.193   4.905  17.645  0.00  0.00    +0.000 A 
ATOM      4  C   UNL     1       4.349   6.191  17.178  0.00  0.00    +0.000 A 
ATOM      5  O   UNL     1       4.885   6.124  15.919  0.00  0.00    +0.000 OA
ENDROOT
BRANCH   1  12
ATOM      6  C   UNL     1       7.871   5.477  15.084  0.00  0.00    +0.000 C 
ATOM      7  C   UNL     1       6.992   4.730  14.114  0.00  0.00    +0.000 A 
ATOM      8  C   UNL     1       7.518   4.450  12.839  0.00  0.00    +0.000 A 
ATOM      9  C   UNL     1       6.761   3.782  11.882  0.00  0.00    +0.000 A 
ATOM     10  C   UNL     1       5.471   3.368  12.191  0.00  0.00    +0.000 A 
ATOM     11  C   UNL     1       4.926   3.650  13.448  0.00  0.00    +0.000 A 
ATOM     12  C   UNL     1       5.659   4.362  14.417  0.00  0.00    +0.000 A 
ENDBRANCH   1  12
BRANCH   3  13
ATOM     13  C   UNL     1       3.808   4.380  18.996  0.00  0.00    +0.000 C 
BRANCH  13  14
ATOM     14  N   UNL     1       2.990   3.147  18.973  0.00  0.00    +0.000 NA
ATOM     15  C   UNL     1       3.308   2.229  20.080  0.00  0.00    +0.000 C 
ATOM     16  C   UNL     1       2.850   2.686  21.468  0.00  0.00    +0.000 C 
ATOM     17  C   UNL     1       1.429   3.243  21.516  0.00  0.00    +0.000 C 
ATOM     18  C   UNL     1       1.091   4.121  20.315  0.00  0.00    +0.000 C 
ATOM     19  C   UNL     1       1.545   3.495  18.982  0.00  0.00    +0.000 C 
ATOM     20  C   UNL     1       0.665   2.284  18.633  0.00  0.00    +0.000 C 
ENDBRANCH  13  14
ENDBRANCH   3  13
TORSDOF 3
ENDMDL
MODEL 3
REMARK VINA RESULT:      -7.2      2.690      3.606
REMARK  Name = 
REMARK  5 active torsions:
REMARK  status: ('A' for Active; 'I' for Inactive)
REMARK    1  A    between atoms: C_1  and  C_2
REMARK    2  A    between atoms: C_7  and  C_8
REMARK    3  A    between atoms: C_10  and  C_11
REMARK    4  A    between atoms: C_11  and  N_12
REMARK    5  A    between atoms: C_17  and  C_18
REMARK                            x       y       z     vdW  Elec       q    Type
REMARK                         _______ _______ _______ _____ _____    ______ ____
ROOT
ATOM      1  C   UNL     1       2.003   7.104  20.161  0.00  0.00    +0.000 A 
ATOM      2  N   UNL     1       3.050   6.921  19.381  0.00  0.00    +0.000 NA
ATOM      3  C   UNL     1       3.372   5.589  19.526  0.00  0.00    +0.000 A 
ATOM      4  C   UNL     1       2.469   5.000  20.383  0.00  0.00    +0.000 A 
ATOM      5  O   UNL     1       1.590   5.963  20.803  0.00  0.00    +0.000 OA
ENDROOT
BRANCH   1  12
ATOM      6  C   UNL     1       1.474   9.143  18.032  0.00  0.00    +0.000 C 
ATOM      7  C   UNL     1       1.098   9.351  19.476  0.00  0.00    +0.000 A 
ATOM      8  C   UNL     1       0.574  10.606  19.840  0.00  0.00    +0.000 A 
ATOM      9  C   UNL     1       0.222  10.880  21.158  0.00  0.00    +0.000 A 
ATOM     10  C   UNL     1       0.372   9.899  22.129  0.00  0.00    +0.000 A 
ATOM     11  C   UNL     1       0.905   8.651  21.790  0.00  0.00    +0.000 A 
ATOM     12  C   UNL     1       1.308   8.365  20.471  0.00  0.00    +0.000 A 
ENDBRANCH   1  12
BRANCH   3  13
ATOM     13  C   UNL     1       4.629   5.065  18.897  0.00  0.00    +0.000 C 
BRANCH  13  14
ATOM     14  N   UNL     1       5.258   5.978  17.917  0.00  0.00    +0.000 NA
ATOM     15  C   UNL     1       6.725   6.026  18.040  0.00  0.00    +0.000 C 
ATOM     16  C   UNL     1       7.468   4.770  17.574  0.00  0.00    +0.000 C 
ATOM     17  C   UNL     1       6.977   4.200  16.244  0.00  0.00    +0.000 C 
ATOM     18  C   UNL     1       5.459   4.241  16.101  0.00  0.00    +0.000 C 
ATOM     19  C   UNL     1       4.863   5.593  16.537  0.00  0.00    +0.000 C 
ATOM     20  C   UNL     1       5.217   6.688  15.516  0.00  0.00    +0.000 C 
ENDBRANCH  13  14
ENDBRANCH   3  13
TORSDOF 3
ENDMDL
MODEL 4
REMARK VINA RESULT:      -7.2      1.052      1.228
REMARK  Name = 
REMARK  5 active torsions:
REMARK  status: ('A' for Active; 'I' for Inactive)
REMARK    1  A    between atoms: C_1  and  C_2
REMARK    2  A    between atoms: C_7  and  C_8
REMARK    3  A    between atoms: C_10  and  C_11
REMARK    4  A    between atoms: C_11  and  N_12
REMARK    5  A    between atoms: C_17  and  C_18
REMARK                            x       y       z     vdW  Elec       q    Type
REMARK                         _______ _______ _______ _____ _____    ______ ____
ROOT
ATOM      1  C   UNL     1       1.394   9.036  19.306  0.00  0.00    +0.000 A 
ATOM      2  N   UNL     1       1.766   7.879  19.818  0.00  0.00    +0.000 NA
ATOM      3  C   UNL     1       2.581   7.314  18.861  0.00  0.00    +0.000 A 
ATOM      4  C   UNL     1       2.697   8.184  17.799  0.00  0.00    +0.000 A 
ATOM      5  O   UNL     1       1.934   9.289  18.070  0.00  0.00    +0.000 OA
ENDROOT
BRANCH   1  12
ATOM      6  C   UNL     1      -1.002   9.911  17.737  0.00  0.00    +0.000 C 
ATOM      7  C   UNL     1      -0.671  10.460  19.101  0.00  0.00    +0.000 A 
ATOM      8  C   UNL     1      -1.474  11.506  19.595  0.00  0.00    +0.000 A 
ATOM      9  C   UNL     1      -1.218  12.079  20.837  0.00  0.00    +0.000 A 
ATOM     10  C   UNL     1      -0.167  11.603  21.612  0.00  0.00    +0.000 A 
ATOM     11  C   UNL     1       0.651  10.575  21.130  0.00  0.00    +0.000 A 
ATOM     12  C   UNL     1       0.437  10.010  19.858  0.00  0.00    +0.000 A 
ENDBRANCH   1  12
BRANCH   3  13
ATOM     13  C   UNL     1       3.058   5.904  19.044  0.00  0.00    +0.000 C 
BRANCH  13  14
ATOM     14  N   UNL     1       1.981   4.898  19.180  0.00  0.00    +0.000 NA
ATOM     15  C   UNL     1       1.588   4.303  17.891  0.00  0.00    +0.000 C 
ATOM     16  C   UNL     1       2.609   3.346  17.267  0.00  0.00    +0.000 C 
ATOM     17  C   UNL     1       3.224   2.349  18.247  0.00  0.00    +0.000 C 
ATOM     18  C   UNL     1       3.542   2.965  19.606  0.00  0.00    +0.000 C 
ATOM     19  C   UNL     1       2.392   3.840  20.139  0.00  0.00    +0.000 C 
ATOM     20  C   UNL     1       1.203   2.961  20.561  0.00  0.00    +0.000 C 
ENDBRANCH  13  14
ENDBRANCH   3  13
TORSDOF 3
ENDMDL
MODEL 5
REMARK VINA RESULT:      -7.2      0.887      1.856
REMARK  Name = 
REMARK  5 active torsions:
REMARK  status: ('A' for Active; 'I' for Inactive)
REMARK    1  A    between atoms: C_1  and  C_2
REMARK    2  A    between atoms: C_7  and  C_8
REMARK    3  A    between atoms: C_10  and  C_11
REMARK    4  A    between atoms: C_11  and  N_12
REMARK    5  A    between atoms: C_17  and  C_18
REMARK                            x       y       z     vdW  Elec       q    Type
REMARK                         _______ _______ _______ _____ _____    ______ ____
ROOT
ATOM      1  C   UNL     1       1.938   8.412  18.958  0.00  0.00    +0.000 A 
ATOM      2  N   UNL     1       2.170   7.248  19.532  0.00  0.00    +0.000 NA
ATOM      3  C   UNL     1       3.117   6.642  18.735  0.00  0.00    +0.000 A 
ATOM      4  C   UNL     1       3.449   7.495  17.705  0.00  0.00    +0.000 A 
ATOM      5  O   UNL     1       2.693   8.630  17.833  0.00  0.00    +0.000 OA
ENDROOT
BRANCH   1  12
ATOM      6  C   UNL     1       1.369   9.045  21.830  0.00  0.00    +0.000 C 
ATOM      7  C   UNL     1       0.633   9.695  20.687  0.00  0.00    +0.000 A 
ATOM      8  C   UNL     1      -0.437  10.553  21.004  0.00  0.00    +0.000 A 
ATOM      9  C   UNL     1      -1.178  11.173  20.003  0.00  0.00    +0.000 A 
ATOM     10  C   UNL     1      -0.849  10.960  18.670  0.00  0.00    +0.000 A 
ATOM     11  C   UNL     1       0.201  10.099  18.335  0.00  0.00    +0.000 A 
ATOM     12  C   UNL     1       0.937   9.427  19.330  0.00  0.00    +0.000 A 
ENDBRANCH   1  12
BRANCH   3  13
ATOM     13  C   UNL     1       3.501   5.218  19.005  0.00  0.00    +0.000 C 
BRANCH  13  14
ATOM     14  N   UNL     1       2.383   4.345  19.429  0.00  0.00    +0.000 NA
ATOM     15  C   UNL     1       1.703   3.695  18.296  0.00  0.00    +0.000 C 
ATOM     16  C   UNL     1       2.498   2.589  17.595  0.00  0.00    +0.000 C 
ATOM     17  C   UNL     1       3.196   1.613  18.541  0.00  0.00    +0.000 C 
ATOM     18  C   UNL     1       3.818   2.298  19.754  0.00  0.00    +0.000 C 
ATOM     19  C   UNL     1       2.872   3.328  20.398  0.00  0.00    +0.000 C 
ATOM     20  C   UNL     1       1.710   2.616  21.111  0.00  0.00    +0.000 C 
ENDBRANCH  13  14
ENDBRANCH   3  13
TORSDOF 3
ENDMDL
MODEL 6
REMARK VINA RESULT:      -7.2      1.742      2.370
REMARK  Name = 
REMARK  5 active torsions:
REMARK  status: ('A' for Active; 'I' for Inactive)
REMARK    1  A    between atoms: C_1  and  C_2
REMARK    2  A    between atoms: C_7  and  C_8
REMARK    3  A    between atoms: C_10  and  C_11
REMARK    4  A    between atoms: C_11  and  N_12
REMARK    5  A    between atoms: C_17  and  C_18
REMARK                            x       y       z     vdW  Elec       q    Type
REMARK                         _______ _______ _______ _____ _____    ______ ____
ROOT
ATOM      1  C   UNL     1       1.135   9.249  18.513  0.00  0.00    +0.000 A 
ATOM      2  N   UNL     1       1.392   8.248  19.332  0.00  0.00    +0.000 NA
ATOM      3  C   UNL     1       2.487   7.615  18.785  0.00  0.00    +0.000 A 
ATOM      4  C   UNL     1       2.876   8.291  17.649  0.00  0.00    +0.000 A 
ATOM      5  O   UNL     1       2.011   9.337  17.461  0.00  0.00    +0.000 OA
ENDROOT
BRANCH   1  12
ATOM      6  C   UNL     1       1.134  11.570  20.406  0.00  0.00    +0.000 C 
ATOM      7  C   UNL     1      -0.017  11.265  19.484  0.00  0.00    +0.000 A 
ATOM      8  C   UNL     1      -1.178  12.052  19.608  0.00  0.00    +0.000 A 
ATOM      9  C   UNL     1      -2.290  11.819  18.806  0.00  0.00    +0.000 A 
ATOM     10  C   UNL     1      -2.254  10.807  17.855  0.00  0.00    +0.000 A 
ATOM     11  C   UNL     1      -1.115  10.004  17.728  0.00  0.00    +0.000 A 
ATOM     12  C   UNL     1       0.007  10.195  18.558  0.00  0.00    +0.000 A 
ENDBRANCH   1  12
BRANCH   3  13
ATOM     13  C   UNL     1       2.957   6.319  19.377  0.00  0.00    +0.000 C 
BRANCH  13  14
ATOM     14  N   UNL     1       1.971   5.217  19.319  0.00  0.00    +0.000 NA
ATOM     15  C   UNL     1       1.794   4.678  17.960  0.00  0.00    +0.000 C 
ATOM     16  C   UNL     1       2.968   3.856  17.419  0.00  0.00    +0.000 C 
ATOM     17  C   UNL     1       3.551   2.852  18.412  0.00  0.00    +0.000 C 
ATOM     18  C   UNL     1       3.642   3.402  19.832  0.00  0.00    +0.000 C 
ATOM     19  C   UNL     1       2.359   4.137  20.263  0.00  0.00    +0.000 C 
ATOM     20  C   UNL     1       1.215   3.133  20.482  0.00  0.00    +0.000 C 
ENDBRANCH  13  14
ENDBRANCH   3  13
TORSDOF 3
ENDMDL
MODEL 7
REMARK VINA RESULT:      -7.1      2.199      3.032
REMARK  Name = 
REMARK  5 active torsions:
REMARK  status: ('A' for Active; 'I' for Inactive)
REMARK    1  A    between atoms: C_1  and  C_2
REMARK    2  A    between atoms: C_7  and  C_8
REMARK    3  A    between atoms: C_10  and  C_11
REMARK    4  A    between atoms: C_11  and  N_12
REMARK    5  A    between atoms: C_17  and  C_18
REMARK                            x       y       z     vdW  Elec       q    Type
REMARK                         _______ _______ _______ _____ _____    ______ ____
ROOT
ATOM      1  C   UNL     1       1.584   8.570  19.701  0.00  0.00    +0.000 A 
ATOM      2  N   UNL     1       2.111   7.362  19.646  0.00  0.00    +0.000 NA
ATOM      3  C   UNL     1       2.693   7.286  18.399  0.00  0.00    +0.000 A 
ATOM      4  C   UNL     1       2.517   8.486  17.747  0.00  0.00    +0.000 A 
ATOM      5  O   UNL     1       1.801   9.315  18.569  0.00  0.00    +0.000 OA
ENDROOT
BRANCH   1  12
ATOM      6  C   UNL     1      -0.682  10.421  19.060  0.00  0.00    +0.000 C 
ATOM      7  C   UNL     1      -0.290  10.064  20.470  0.00  0.00    +0.000 A 
ATOM      8  C   UNL     1      -0.960  10.721  21.519  0.00  0.00    +0.000 A 
ATOM      9  C   UNL     1      -0.640  10.460  22.848  0.00  0.00    +0.000 A 
ATOM     10  C   UNL     1       0.341   9.524  23.149  0.00  0.00    +0.000 A 
ATOM     11  C   UNL     1       1.028   8.872  22.119  0.00  0.00    +0.000 A 
ATOM     12  C   UNL     1       0.751   9.152  20.767  0.00  0.00    +0.000 A 
ENDBRANCH   1  12
BRANCH   3  13
ATOM     13  C   UNL     1       3.252   5.976  17.930  0.00  0.00    +0.000 C 
BRANCH  13  14
ATOM     14  N   UNL     1       4.717   5.834  18.090  0.00  0.00    +0.000 NA
ATOM     15  C   UNL     1       5.175   4.441  17.952  0.00  0.00    +0.000 C 
ATOM     16  C   UNL     1       5.123   3.867  16.533  0.00  0.00    +0.000 C 
ATOM     17  C   UNL     1       5.656   4.803  15.450  0.00  0.00    +0.000 C 
ATOM     18  C   UNL     1       5.243   6.257  15.661  0.00  0.00    +0.000 C 
ATOM     19  C   UNL     1       5.422   6.714  17.121  0.00  0.00    +0.000 C 
ATOM     20  C   UNL     1       6.916   6.851  17.459  0.00  0.00    +0.000 C 
ENDBRANCH  13  14
ENDBRANCH   3  13
TORSDOF 3
ENDMDL
MODEL 8
REMARK VINA RESULT:      -7.1      1.119      2.568
REMARK  Name = 
REMARK  5 active torsions:
REMARK  status: ('A' for Active; 'I' for Inactive)
REMARK    1  A    between atoms: C_1  and  C_2
REMARK    2  A    between atoms: C_7  and  C_8
REMARK    3  A    between atoms: C_10  and  C_11
REMARK    4  A    between atoms: C_11  and  N_12
REMARK    5  A    between atoms: C_17  and  C_18
REMARK                            x       y       z     vdW  Elec       q    Type
REMARK                         _______ _______ _______ _____ _____    ______ ____
ROOT
ATOM      1  C   UNL     1       1.850   8.330  19.052  0.00  0.00    +0.000 A 
ATOM      2  N   UNL     1       2.231   7.406  19.912  0.00  0.00    +0.000 NA
ATOM      3  C   UNL     1       3.100   6.602  19.206  0.00  0.00    +0.000 A 
ATOM      4  C   UNL     1       3.236   7.100  17.929  0.00  0.00    +0.000 A 
ATOM      5  O   UNL     1       2.433   8.204  17.816  0.00  0.00    +0.000 OA
ENDROOT
BRANCH   1  12
ATOM      6  C   UNL     1       1.215   9.394  21.779  0.00  0.00    +0.000 C 
ATOM      7  C   UNL     1       0.509   9.861  20.533  0.00  0.00    +0.000 A 
ATOM      8  C   UNL     1      -0.566  10.757  20.689  0.00  0.00    +0.000 A 
ATOM      9  C   UNL     1      -1.280  11.218  19.587  0.00  0.00    +0.000 A 
ATOM     10  C   UNL     1      -0.920  10.804  18.311  0.00  0.00    +0.000 A 
ATOM     11  C   UNL     1       0.135   9.902  18.137  0.00  0.00    +0.000 A 
ATOM     12  C   UNL     1       0.844   9.389  19.241  0.00  0.00    +0.000 A 
ENDBRANCH   1  12
BRANCH   3  13
ATOM     13  C   UNL     1       3.608   5.339  19.837  0.00  0.00    +0.000 C 
BRANCH  13  14
ATOM     14  N   UNL     1       3.114   4.092  19.212  0.00  0.00    +0.000 NA
ATOM     15  C   UNL     1       3.578   2.880  19.909  0.00  0.00    +0.000 C 
ATOM     16  C   UNL     1       2.942   2.623  21.278  0.00  0.00    +0.000 C 
ATOM     17  C   UNL     1       1.428   2.820  21.321  0.00  0.00    +0.000 C 
ATOM     18  C   UNL     1       0.960   4.031  20.520  0.00  0.00    +0.000 C 
ATOM     19  C   UNL     1       1.630   4.114  19.135  0.00  0.00    +0.000 C 
ATOM     20  C   UNL     1       1.090   3.009  18.212  0.00  0.00    +0.000 C 
ENDBRANCH  13  14
ENDBRANCH   3  13
TORSDOF 3
ENDMDL
MODEL 9
REMARK VINA RESULT:      -7.0      2.080      2.537
REMARK  Name = 
REMARK  5 active torsions:
REMARK  status: ('A' for Active; 'I' for Inactive)
REMARK    1  A    between atoms: C_1  and  C_2
REMARK    2  A    between atoms: C_7  and  C_8
REMARK    3  A    between atoms: C_10  and  C_11
REMARK    4  A    between atoms: C_11  and  N_12
REMARK    5  A    between atoms: C_17  and  C_18
REMARK                            x       y       z     vdW  Elec       q    Type
REMARK                         _______ _______ _______ _____ _____    ______ ____
ROOT
ATOM      1  C   UNL     1       1.448   9.588  18.722  0.00  0.00    +0.000 A 
ATOM      2  N   UNL     1       1.578   8.623  19.611  0.00  0.00    +0.000 NA
ATOM      3  C   UNL     1       2.299   7.642  18.965  0.00  0.00    +0.000 A 
ATOM      4  C   UNL     1       2.609   8.075  17.695  0.00  0.00    +0.000 A 
ATOM      5  O   UNL     1       2.062   9.319  17.525  0.00  0.00    +0.000 OA
ENDROOT
BRANCH   1  12
ATOM      6  C   UNL     1      -1.325   9.809  17.612  0.00  0.00    +0.000 C 
ATOM      7  C   UNL     1      -0.616  10.959  18.277  0.00  0.00    +0.000 A 
ATOM      8  C   UNL     1      -1.257  12.212  18.271  0.00  0.00    +0.000 A 
ATOM      9  C   UNL     1      -0.656  13.327  18.848  0.00  0.00    +0.000 A 
ATOM     10  C   UNL     1       0.587  13.203  19.454  0.00  0.00    +0.000 A 
ATOM     11  C   UNL     1       1.247  11.969  19.456  0.00  0.00    +0.000 A 
ATOM     12  C   UNL     1       0.677  10.838  18.842  0.00  0.00    +0.000 A 
ENDBRANCH   1  12
BRANCH   3  13
ATOM     13  C   UNL     1       2.494   6.314  19.635  0.00  0.00    +0.000 C 
BRANCH  13  14
ATOM     14  N   UNL     1       2.191   5.140  18.785  0.00  0.00    +0.000 NA
ATOM     15  C   UNL     1       3.389   4.578  18.139  0.00  0.00    +0.000 C 
ATOM     16  C   UNL     1       4.357   3.841  19.072  0.00  0.00    +0.000 C 
ATOM     17  C   UNL     1       3.685   2.893  20.062  0.00  0.00    +0.000 C 
ATOM     18  C   UNL     1       2.397   3.460  20.653  0.00  0.00    +0.000 C 
ATOM     19  C   UNL     1       1.492   4.101  19.584  0.00  0.00    +0.000 C 
ATOM     20  C   UNL     1       0.871   3.015  18.689  0.00  0.00    +0.000 C 
ENDBRANCH  13  14
ENDBRANCH   3  13
TORSDOF 3
ENDMDL
