MODEL 1
REMARK VINA RESULT:      -6.8      0.000      0.000
REMARK  Name = 
REMARK  7 active torsions:
REMARK  status: ('A' for Active; 'I' for Inactive)
REMARK    1  A    between atoms: C_1  and  O_2
REMARK    2  A    between atoms: O_2  and  C_3
REMARK    3  A    between atoms: C_3  and  C_5
REMARK    4  A    between atoms: C_5  and  C_6
REMARK    5  A    between atoms: C_14  and  O_15
REMARK    6  A    between atoms: O_15  and  C_16
REMARK    7  A    between atoms: C_17  and  C_18
REMARK                            x       y       z     vdW  Elec       q    Type
REMARK                         _______ _______ _______ _____ _____    ______ ____
ROOT
ATOM      1  C   UNL     1       1.829   8.342  19.402  0.00  0.00    +0.000 C 
ATOM      2  C   UNL     1       1.577   8.899  17.939  0.00  0.00    +0.000 C 
ATOM      3  O   UNL     1       0.199   8.873  17.384  0.00  0.00    +0.000 OA
ATOM      4  C   UNL     1      -0.438   9.958  17.953  0.00  0.00    +0.000 A 
ATOM      5  C   UNL     1      -1.707  10.387  17.624  0.00  0.00    +0.000 A 
ATOM      6  C   UNL     1      -2.189  11.523  18.272  0.00  0.00    +0.000 A 
ATOM      7  C   UNL     1      -1.396  12.190  19.221  0.00  0.00    +0.000 A 
ATOM      8  C   UNL     1      -0.111  11.724  19.540  0.00  0.00    +0.000 A 
ATOM      9  C   UNL     1       0.371  10.590  18.901  0.00  0.00    +0.000 A 
ATOM     10  C   UNL     1       1.689   9.885  18.971  0.00  0.00    +0.000 C 
ENDROOT
BRANCH   1  11
ATOM     11  C   UNL     1       1.499   6.919  19.064  0.00  0.00    +0.000 C 
ATOM     12  C   UNL     1       2.216   5.965  18.436  0.00  0.00    +0.000 C 
ATOM     13  C   UNL     1       3.537   6.041  17.805  0.00  0.00    +0.000 A 
ATOM     14  C   UNL     1       4.370   7.129  17.586  0.00  0.00    +0.000 A 
ATOM     15  C   UNL     1       5.598   6.934  16.939  0.00  0.00    +0.000 A 
ATOM     16  C   UNL     1       5.970   5.669  16.478  0.00  0.00    +0.000 A 
ATOM     17  C   UNL     1       5.123   4.583  16.668  0.00  0.00    +0.000 A 
ATOM     18  C   UNL     1       3.929   4.769  17.365  0.00  0.00    +0.000 A 
ATOM     19  C   UNL     1       2.952   3.689  17.742  0.00  0.00    +0.000 C 
ATOM     20  C   UNL     1       1.742   4.508  18.300  0.00  0.00    +0.000 C 
ATOM     21  C   UNL     1       1.189   3.925  19.607  0.00  0.00    +0.000 C 
BRANCH  19  22
ATOM     22  O   UNL     1       3.454   2.806  18.752  0.00  0.00    +0.000 OA
ATOM     23  C   UNL     1       3.606   1.452  18.360  0.00  0.00    +0.000 C 
ENDBRANCH  19  22
ENDBRANCH   1  11
BRANCH   1  24
ATOM     24  C   UNL     1       1.436   8.508  20.850  0.00  0.00    +0.000 C 
ATOM     25  O   UNL     1       2.200   9.024  21.652  0.00  0.00    +0.000 OA
BRANCH  24  27
ATOM     26  C   UNL     1      -0.503   8.776  22.123  0.00  0.00    +0.000 C 
ATOM     27  O   UNL     1       0.195   8.021  21.135  0.00  0.00    +0.000 OA
ENDBRANCH  24  27
ENDBRANCH   1  24
TORSDOF 4
ENDMDL
MODEL 2
REMARK VINA RESULT:      -6.4      4.927      8.557
REMARK  Name = 
REMARK  7 active torsions:
REMARK  status: ('A' for Active; 'I' for Inactive)
REMARK    1  A    between atoms: C_1  and  O_2
REMARK    2  A    between atoms: O_2  and  C_3
REMARK    3  A    between atoms: C_3  and  C_5
REMARK    4  A    between atoms: C_5  and  C_6
REMARK    5  A    between atoms: C_14  and  O_15
REMARK    6  A    between atoms: O_15  and  C_16
REMARK    7  A    between atoms: C_17  and  C_18
REMARK                            x       y       z     vdW  Elec       q    Type
REMARK                         _______ _______ _______ _____ _____    ______ ____
ROOT
ATOM      1  C   UNL     1      -4.254  13.800  20.473  0.00  0.00    +0.000 C 
ATOM      2  C   UNL     1      -5.327  12.646  20.640  0.00  0.00    +0.000 C 
ATOM      3  O   UNL     1      -5.528  12.035  21.980  0.00  0.00    +0.000 OA
ATOM      4  C   UNL     1      -6.323  12.931  22.668  0.00  0.00    +0.000 A 
ATOM      5  C   UNL     1      -6.858  12.708  23.919  0.00  0.00    +0.000 A 
ATOM      6  C   UNL     1      -7.668  13.706  24.459  0.00  0.00    +0.000 A 
ATOM      7  C   UNL     1      -7.917  14.886  23.736  0.00  0.00    +0.000 A 
ATOM      8  C   UNL     1      -7.351  15.087  22.468  0.00  0.00    +0.000 A 
ATOM      9  C   UNL     1      -6.540  14.097  21.930  0.00  0.00    +0.000 A 
ATOM     10  C   UNL     1      -5.847  13.980  20.609  0.00  0.00    +0.000 C 
ENDROOT
BRANCH   1  11
ATOM     11  C   UNL     1      -3.070  12.928  20.761  0.00  0.00    +0.000 C 
ATOM     12  C   UNL     1      -2.442  12.003  20.005  0.00  0.00    +0.000 C 
ATOM     13  C   UNL     1      -2.771  11.496  18.671  0.00  0.00    +0.000 A 
ATOM     14  C   UNL     1      -3.869  11.743  17.858  0.00  0.00    +0.000 A 
ATOM     15  C   UNL     1      -3.955  11.113  16.609  0.00  0.00    +0.000 A 
ATOM     16  C   UNL     1      -2.971  10.211  16.194  0.00  0.00    +0.000 A 
ATOM     17  C   UNL     1      -1.887   9.938  17.021  0.00  0.00    +0.000 A 
ATOM     18  C   UNL     1      -1.774  10.611  18.237  0.00  0.00    +0.000 A 
ATOM     19  C   UNL     1      -0.621  10.509  19.197  0.00  0.00    +0.000 C 
ATOM     20  C   UNL     1      -1.146  11.299  20.441  0.00  0.00    +0.000 C 
ATOM     21  C   UNL     1      -0.095  12.258  21.014  0.00  0.00    +0.000 C 
BRANCH  19  22
ATOM     22  O   UNL     1       0.578  11.114  18.702  0.00  0.00    +0.000 OA
ATOM     23  C   UNL     1       1.593  10.214  18.290  0.00  0.00    +0.000 C 
ENDBRANCH  19  22
ENDBRANCH   1  11
BRANCH   1  24
ATOM     24  C   UNL     1      -3.862  15.175  20.961  0.00  0.00    +0.000 C 
ATOM     25  O   UNL     1      -4.186  16.175  20.339  0.00  0.00    +0.000 OA
BRANCH  24  27
ATOM     26  C   UNL     1      -3.695  15.927  23.164  0.00  0.00    +0.000 C 
ATOM     27  O   UNL     1      -3.127  15.155  22.109  0.00  0.00    +0.000 OA
ENDBRANCH  24  27
ENDBRANCH   1  24
TORSDOF 4
ENDMDL
MODEL 3
REMARK VINA RESULT:      -6.4      4.545      9.027
REMARK  Name = 
REMARK  7 active torsions:
REMARK  status: ('A' for Active; 'I' for Inactive)
REMARK    1  A    between atoms: C_1  and  O_2
REMARK    2  A    between atoms: O_2  and  C_3
REMARK    3  A    between atoms: C_3  and  C_5
REMARK    4  A    between atoms: C_5  and  C_6
REMARK    5  A    between atoms: C_14  and  O_15
REMARK    6  A    between atoms: O_15  and  C_16
REMARK    7  A    between atoms: C_17  and  C_18
REMARK                            x       y       z     vdW  Elec       q    Type
REMARK                         _______ _______ _______ _____ _____    ______ ____
ROOT
ATOM      1  C   UNL     1      -1.259  11.932  19.827  0.00  0.00    +0.000 C 
ATOM      2  C   UNL     1      -1.297  13.098  18.754  0.00  0.00    +0.000 C 
ATOM      3  O   UNL     1      -0.718  14.421  19.105  0.00  0.00    +0.000 OA
ATOM      4  C   UNL     1       0.646  14.268  18.954  0.00  0.00    +0.000 A 
ATOM      5  C   UNL     1       1.569  15.288  19.060  0.00  0.00    +0.000 A 
ATOM      6  C   UNL     1       2.909  14.967  18.845  0.00  0.00    +0.000 A 
ATOM      7  C   UNL     1       3.282  13.648  18.533  0.00  0.00    +0.000 A 
ATOM      8  C   UNL     1       2.320  12.630  18.439  0.00  0.00    +0.000 A 
ATOM      9  C   UNL     1       0.986  12.945  18.658  0.00  0.00    +0.000 A 
ATOM     10  C   UNL     1      -0.263  12.123  18.580  0.00  0.00    +0.000 C 
ENDROOT
BRANCH   1  11
ATOM     11  C   UNL     1      -2.196  12.601  20.788  0.00  0.00    +0.000 C 
ATOM     12  C   UNL     1      -3.542  12.691  20.801  0.00  0.00    +0.000 C 
ATOM     13  C   UNL     1      -4.527  12.221  19.823  0.00  0.00    +0.000 A 
ATOM     14  C   UNL     1      -4.352  11.650  18.570  0.00  0.00    +0.000 A 
ATOM     15  C   UNL     1      -5.477  11.293  17.814  0.00  0.00    +0.000 A 
ATOM     16  C   UNL     1      -6.767  11.545  18.290  0.00  0.00    +0.000 A 
ATOM     17  C   UNL     1      -6.944  12.146  19.531  0.00  0.00    +0.000 A 
ATOM     18  C   UNL     1      -5.823  12.445  20.306  0.00  0.00    +0.000 A 
ATOM     19  C   UNL     1      -5.842  13.001  21.704  0.00  0.00    +0.000 C 
ATOM     20  C   UNL     1      -4.333  13.320  21.960  0.00  0.00    +0.000 C 
ATOM     21  C   UNL     1      -3.860  12.853  23.342  0.00  0.00    +0.000 C 
BRANCH  19  22
ATOM     22  O   UNL     1      -6.317  12.062  22.676  0.00  0.00    +0.000 OA
ATOM     23  C   UNL     1      -7.595  12.341  23.222  0.00  0.00    +0.000 C 
ENDBRANCH  19  22
ENDBRANCH   1  11
BRANCH   1  24
ATOM     24  C   UNL     1      -0.338  11.100  20.686  0.00  0.00    +0.000 C 
ATOM     25  O   UNL     1       0.328  11.616  21.571  0.00  0.00    +0.000 OA
BRANCH  24  27
ATOM     26  C   UNL     1       0.906   9.126  20.629  0.00  0.00    +0.000 C 
ATOM     27  O   UNL     1      -0.331   9.778  20.354  0.00  0.00    +0.000 OA
ENDBRANCH  24  27
ENDBRANCH   1  24
TORSDOF 4
ENDMDL
MODEL 4
REMARK VINA RESULT:      -6.2      5.281      8.912
REMARK  Name = 
REMARK  7 active torsions:
REMARK  status: ('A' for Active; 'I' for Inactive)
REMARK    1  A    between atoms: C_1  and  O_2
REMARK    2  A    between atoms: O_2  and  C_3
REMARK    3  A    between atoms: C_3  and  C_5
REMARK    4  A    between atoms: C_5  and  C_6
REMARK    5  A    between atoms: C_14  and  O_15
REMARK    6  A    between atoms: O_15  and  C_16
REMARK    7  A    between atoms: C_17  and  C_18
REMARK                            x       y       z     vdW  Elec       q    Type
REMARK                         _______ _______ _______ _____ _____    ______ ____
ROOT
ATOM      1  C   UNL     1      -0.332  12.788  19.671  0.00  0.00    +0.000 C 
ATOM      2  C   UNL     1      -0.404  13.891  18.536  0.00  0.00    +0.000 C 
ATOM      3  O   UNL     1       0.039  15.275  18.845  0.00  0.00    +0.000 OA
ATOM      4  C   UNL     1       1.418  15.235  18.778  0.00  0.00    +0.000 A 
ATOM      5  C   UNL     1       2.243  16.336  18.880  0.00  0.00    +0.000 A 
ATOM      6  C   UNL     1       3.615  16.124  18.757  0.00  0.00    +0.000 A 
ATOM      7  C   UNL     1       4.116  14.829  18.539  0.00  0.00    +0.000 A 
ATOM      8  C   UNL     1       3.252  13.727  18.448  0.00  0.00    +0.000 A 
ATOM      9  C   UNL     1       1.885  13.934  18.575  0.00  0.00    +0.000 A 
ATOM     10  C   UNL     1       0.718  13.003  18.472  0.00  0.00    +0.000 C 
ENDROOT
BRANCH   1  11
ATOM     11  C   UNL     1      -1.378  13.419  20.540  0.00  0.00    +0.000 C 
ATOM     12  C   UNL     1      -2.715  13.248  20.589  0.00  0.00    +0.000 C 
ATOM     13  C   UNL     1      -3.593  12.434  19.743  0.00  0.00    +0.000 A 
ATOM     14  C   UNL     1      -3.314  11.700  18.598  0.00  0.00    +0.000 A 
ATOM     15  C   UNL     1      -4.350  11.008  17.957  0.00  0.00    +0.000 A 
ATOM     16  C   UNL     1      -5.662  11.084  18.433  0.00  0.00    +0.000 A 
ATOM     17  C   UNL     1      -5.949  11.845  19.560  0.00  0.00    +0.000 A 
ATOM     18  C   UNL     1      -4.906  12.484  20.230  0.00  0.00    +0.000 A 
ATOM     19  C   UNL     1      -5.028  13.259  21.514  0.00  0.00    +0.000 C 
ATOM     20  C   UNL     1      -3.610  13.903  21.655  0.00  0.00    +0.000 C 
ATOM     21  C   UNL     1      -3.048  13.782  23.077  0.00  0.00    +0.000 C 
BRANCH  19  22
ATOM     22  O   UNL     1      -5.304  12.429  22.648  0.00  0.00    +0.000 OA
ATOM     23  C   UNL     1      -6.527  12.691  23.314  0.00  0.00    +0.000 C 
ENDBRANCH  19  22
ENDBRANCH   1  11
BRANCH   1  24
ATOM     24  C   UNL     1       0.603  12.084  20.624  0.00  0.00    +0.000 C 
ATOM     25  O   UNL     1       1.095  12.677  21.572  0.00  0.00    +0.000 OA
BRANCH  24  27
ATOM     26  C   UNL     1      -0.295   9.932  20.517  0.00  0.00    +0.000 C 
ATOM     27  O   UNL     1       0.830  10.779  20.300  0.00  0.00    +0.000 OA
ENDBRANCH  24  27
ENDBRANCH   1  24
TORSDOF 4
ENDMDL
MODEL 5
REMARK VINA RESULT:      -6.1      4.664      8.167
REMARK  Name = 
REMARK  7 active torsions:
REMARK  status: ('A' for Active; 'I' for Inactive)
REMARK    1  A    between atoms: C_1  and  O_2
REMARK    2  A    between atoms: O_2  and  C_3
REMARK    3  A    between atoms: C_3  and  C_5
REMARK    4  A    between atoms: C_5  and  C_6
REMARK    5  A    between atoms: C_14  and  O_15
REMARK    6  A    between atoms: O_15  and  C_16
REMARK    7  A    between atoms: C_17  and  C_18
REMARK                            x       y       z     vdW  Elec       q    Type
REMARK                         _______ _______ _______ _____ _____    ______ ____
ROOT
ATOM      1  C   UNL     1      -3.561  12.870  21.979  0.00  0.00    +0.000 C 
ATOM      2  C   UNL     1      -2.710  13.784  22.954  0.00  0.00    +0.000 C 
ATOM      3  O   UNL     1      -2.472  15.205  22.588  0.00  0.00    +0.000 OA
ATOM      4  C   UNL     1      -3.640  15.862  22.921  0.00  0.00    +0.000 A 
ATOM      5  C   UNL     1      -3.818  17.229  22.862  0.00  0.00    +0.000 A 
ATOM      6  C   UNL     1      -5.052  17.734  23.267  0.00  0.00    +0.000 A 
ATOM      7  C   UNL     1      -6.062  16.865  23.715  0.00  0.00    +0.000 A 
ATOM      8  C   UNL     1      -5.854  15.478  23.756  0.00  0.00    +0.000 A 
ATOM      9  C   UNL     1      -4.627  14.971  23.349  0.00  0.00    +0.000 A 
ATOM     10  C   UNL     1      -4.077  13.579  23.326  0.00  0.00    +0.000 C 
ENDROOT
BRANCH   1  11
ATOM     11  C   UNL     1      -2.560  12.893  20.863  0.00  0.00    +0.000 C 
ATOM     12  C   UNL     1      -1.446  12.161  20.652  0.00  0.00    +0.000 C 
ATOM     13  C   UNL     1      -0.811  11.148  21.498  0.00  0.00    +0.000 A 
ATOM     14  C   UNL     1      -1.111  10.733  22.788  0.00  0.00    +0.000 A 
ATOM     15  C   UNL     1      -0.328   9.738  23.389  0.00  0.00    +0.000 A 
ATOM     16  C   UNL     1       0.771   9.192  22.721  0.00  0.00    +0.000 A 
ATOM     17  C   UNL     1       1.093   9.629  21.441  0.00  0.00    +0.000 A 
ATOM     18  C   UNL     1       0.277  10.576  20.823  0.00  0.00    +0.000 A 
ATOM     19  C   UNL     1       0.423  11.079  19.413  0.00  0.00    +0.000 C 
ATOM     20  C   UNL     1      -0.613  12.249  19.362  0.00  0.00    +0.000 C 
ATOM     21  C   UNL     1      -1.463  12.227  18.086  0.00  0.00    +0.000 C 
BRANCH  19  22
ATOM     22  O   UNL     1       0.098  10.093  18.427  0.00  0.00    +0.000 OA
ATOM     23  C   UNL     1       1.199   9.393  17.874  0.00  0.00    +0.000 C 
ENDBRANCH  19  22
ENDBRANCH   1  11
BRANCH   1  24
ATOM     24  C   UNL     1      -4.904  12.734  21.303  0.00  0.00    +0.000 C 
ATOM     25  O   UNL     1      -5.759  11.987  21.754  0.00  0.00    +0.000 OA
BRANCH  24  27
ATOM     26  C   UNL     1      -6.333  14.038  19.997  0.00  0.00    +0.000 C 
ATOM     27  O   UNL     1      -5.027  13.496  20.180  0.00  0.00    +0.000 OA
ENDBRANCH  24  27
ENDBRANCH   1  24
TORSDOF 4
ENDMDL
MODEL 6
REMARK VINA RESULT:      -6.1      8.525     10.917
REMARK  Name = 
REMARK  7 active torsions:
REMARK  status: ('A' for Active; 'I' for Inactive)
REMARK    1  A    between atoms: C_1  and  O_2
REMARK    2  A    between atoms: O_2  and  C_3
REMARK    3  A    between atoms: C_3  and  C_5
REMARK    4  A    between atoms: C_5  and  C_6
REMARK    5  A    between atoms: C_14  and  O_15
REMARK    6  A    between atoms: O_15  and  C_16
REMARK    7  A    between atoms: C_17  and  C_18
REMARK                            x       y       z     vdW  Elec       q    Type
REMARK                         _______ _______ _______ _____ _____    ______ ____
ROOT
ATOM      1  C   UNL     1       7.167  12.724  23.385  0.00  0.00    +0.000 C 
ATOM      2  C   UNL     1       8.053  11.830  24.349  0.00  0.00    +0.000 C 
ATOM      3  O   UNL     1       8.468  12.380  25.665  0.00  0.00    +0.000 OA
ATOM      4  C   UNL     1       7.362  12.236  26.479  0.00  0.00    +0.000 A 
ATOM      5  C   UNL     1       7.339  12.508  27.832  0.00  0.00    +0.000 A 
ATOM      6  C   UNL     1       6.146  12.276  28.514  0.00  0.00    +0.000 A 
ATOM      7  C   UNL     1       5.021  11.784  27.829  0.00  0.00    +0.000 A 
ATOM      8  C   UNL     1       5.073  11.525  26.451  0.00  0.00    +0.000 A 
ATOM      9  C   UNL     1       6.258  11.759  25.768  0.00  0.00    +0.000 A 
ATOM     10  C   UNL     1       6.652  11.537  24.341  0.00  0.00    +0.000 C 
ENDROOT
BRANCH   1  11
ATOM     11  C   UNL     1       8.230  13.751  23.137  0.00  0.00    +0.000 C 
ATOM     12  C   UNL     1       9.209  13.813  22.212  0.00  0.00    +0.000 C 
ATOM     13  C   UNL     1       9.598  12.841  21.186  0.00  0.00    +0.000 A 
ATOM     14  C   UNL     1       9.143  11.551  20.947  0.00  0.00    +0.000 A 
ATOM     15  C   UNL     1       9.696  10.812  19.892  0.00  0.00    +0.000 A 
ATOM     16  C   UNL     1      10.724  11.343  19.110  0.00  0.00    +0.000 A 
ATOM     17  C   UNL     1      11.204  12.622  19.368  0.00  0.00    +0.000 A 
ATOM     18  C   UNL     1      10.611  13.377  20.380  0.00  0.00    +0.000 A 
ATOM     19  C   UNL     1      10.939  14.805  20.720  0.00  0.00    +0.000 C 
ATOM     20  C   UNL     1      10.131  15.032  22.040  0.00  0.00    +0.000 C 
ATOM     21  C   UNL     1       9.378  16.368  22.046  0.00  0.00    +0.000 C 
BRANCH  19  22
ATOM     22  O   UNL     1      10.513  15.735  19.718  0.00  0.00    +0.000 OA
ATOM     23  C   UNL     1      11.547  16.319  18.945  0.00  0.00    +0.000 C 
ENDBRANCH  19  22
ENDBRANCH   1  11
BRANCH   1  24
ATOM     24  C   UNL     1       5.860  13.472  23.283  0.00  0.00    +0.000 C 
ATOM     25  O   UNL     1       4.926  13.017  22.640  0.00  0.00    +0.000 OA
BRANCH  24  27
ATOM     26  C   UNL     1       5.024  15.651  23.352  0.00  0.00    +0.000 C 
ATOM     27  O   UNL     1       5.861  14.662  23.947  0.00  0.00    +0.000 OA
ENDBRANCH  24  27
ENDBRANCH   1  24
TORSDOF 4
ENDMDL
MODEL 7
REMARK VINA RESULT:      -6.1      4.592      7.763
REMARK  Name = 
REMARK  7 active torsions:
REMARK  status: ('A' for Active; 'I' for Inactive)
REMARK    1  A    between atoms: C_1  and  O_2
REMARK    2  A    between atoms: O_2  and  C_3
REMARK    3  A    between atoms: C_3  and  C_5
REMARK    4  A    between atoms: C_5  and  C_6
REMARK    5  A    between atoms: C_14  and  O_15
REMARK    6  A    between atoms: O_15  and  C_16
REMARK    7  A    between atoms: C_17  and  C_18
REMARK                            x       y       z     vdW  Elec       q    Type
REMARK                         _______ _______ _______ _____ _____    ______ ____
ROOT
ATOM      1  C   UNL     1      -2.367  12.839  22.196  0.00  0.00    +0.000 C 
ATOM      2  C   UNL     1      -1.401  14.088  22.063  0.00  0.00    +0.000 C 
ATOM      3  O   UNL     1      -1.970  15.401  21.662  0.00  0.00    +0.000 OA
ATOM      4  C   UNL     1      -2.541  15.911  22.812  0.00  0.00    +0.000 A 
ATOM      5  C   UNL     1      -3.082  17.175  22.927  0.00  0.00    +0.000 A 
ATOM      6  C   UNL     1      -3.590  17.545  24.172  0.00  0.00    +0.000 A 
ATOM      7  C   UNL     1      -3.541  16.648  25.254  0.00  0.00    +0.000 A 
ATOM      8  C   UNL     1      -2.990  15.366  25.102  0.00  0.00    +0.000 A 
ATOM      9  C   UNL     1      -2.489  14.993  23.863  0.00  0.00    +0.000 A 
ATOM     10  C   UNL     1      -1.800  13.748  23.395  0.00  0.00    +0.000 C 
ENDROOT
BRANCH   1  11
ATOM     11  C   UNL     1      -2.698  12.767  20.736  0.00  0.00    +0.000 C 
ATOM     12  C   UNL     1      -2.139  12.063  19.730  0.00  0.00    +0.000 C 
ATOM     13  C   UNL     1      -0.964  11.188  19.733  0.00  0.00    +0.000 A 
ATOM     14  C   UNL     1      -0.039  10.923  20.734  0.00  0.00    +0.000 A 
ATOM     15  C   UNL     1       1.020  10.042  20.475  0.00  0.00    +0.000 A 
ATOM     16  C   UNL     1       1.177   9.466  19.212  0.00  0.00    +0.000 A 
ATOM     17  C   UNL     1       0.271   9.756  18.198  0.00  0.00    +0.000 A 
ATOM     18  C   UNL     1      -0.815  10.585  18.476  0.00  0.00    +0.000 A 
ATOM     19  C   UNL     1      -1.935  10.917  17.529  0.00  0.00    +0.000 C 
ATOM     20  C   UNL     1      -2.716  12.027  18.305  0.00  0.00    +0.000 C 
ATOM     21  C   UNL     1      -4.234  11.812  18.268  0.00  0.00    +0.000 C 
BRANCH  19  22
ATOM     22  O   UNL     1      -2.797   9.804  17.265  0.00  0.00    +0.000 OA
ATOM     23  C   UNL     1      -2.969   9.474  15.897  0.00  0.00    +0.000 C 
ENDBRANCH  19  22
ENDBRANCH   1  11
BRANCH   1  24
ATOM     24  C   UNL     1      -3.594  12.322  22.907  0.00  0.00    +0.000 C 
ATOM     25  O   UNL     1      -3.499  11.736  23.975  0.00  0.00    +0.000 OA
BRANCH  24  27
ATOM     26  C   UNL     1      -5.763  13.174  23.035  0.00  0.00    +0.000 C 
ATOM     27  O   UNL     1      -4.754  12.563  22.234  0.00  0.00    +0.000 OA
ENDBRANCH  24  27
ENDBRANCH   1  24
TORSDOF 4
ENDMDL
MODEL 8
REMARK VINA RESULT:      -5.9      6.329      9.342
REMARK  Name = 
REMARK  7 active torsions:
REMARK  status: ('A' for Active; 'I' for Inactive)
REMARK    1  A    between atoms: C_1  and  O_2
REMARK    2  A    between atoms: O_2  and  C_3
REMARK    3  A    between atoms: C_3  and  C_5
REMARK    4  A    between atoms: C_5  and  C_6
REMARK    5  A    between atoms: C_14  and  O_15
REMARK    6  A    between atoms: O_15  and  C_16
REMARK    7  A    between atoms: C_17  and  C_18
REMARK                            x       y       z     vdW  Elec       q    Type
REMARK                         _______ _______ _______ _____ _____    ______ ____
ROOT
ATOM      1  C   UNL     1      -1.434  12.858  20.109  0.00  0.00    +0.000 C 
ATOM      2  C   UNL     1      -1.063  14.295  19.552  0.00  0.00    +0.000 C 
ATOM      3  O   UNL     1      -0.535  15.319  20.490  0.00  0.00    +0.000 OA
ATOM      4  C   UNL     1       0.797  14.995  20.663  0.00  0.00    +0.000 A 
ATOM      5  C   UNL     1       1.707  15.757  21.366  0.00  0.00    +0.000 A 
ATOM      6  C   UNL     1       3.023  15.302  21.416  0.00  0.00    +0.000 A 
ATOM      7  C   UNL     1       3.387  14.109  20.766  0.00  0.00    +0.000 A 
ATOM      8  C   UNL     1       2.437  13.352  20.065  0.00  0.00    +0.000 A 
ATOM      9  C   UNL     1       1.123  13.800  20.018  0.00  0.00    +0.000 A 
ATOM     10  C   UNL     1      -0.091  13.268  19.323  0.00  0.00    +0.000 C 
ENDROOT
BRANCH   1  11
ATOM     11  C   UNL     1      -2.574  13.332  20.958  0.00  0.00    +0.000 C 
ATOM     12  C   UNL     1      -3.900  13.096  20.878  0.00  0.00    +0.000 C 
ATOM     13  C   UNL     1      -4.666  12.352  19.874  0.00  0.00    +0.000 A 
ATOM     14  C   UNL     1      -4.263  11.776  18.678  0.00  0.00    +0.000 A 
ATOM     15  C   UNL     1      -5.209  11.120  17.878  0.00  0.00    +0.000 A 
ATOM     16  C   UNL     1      -6.555  11.079  18.251  0.00  0.00    +0.000 A 
ATOM     17  C   UNL     1      -6.966  11.684  19.434  0.00  0.00    +0.000 A 
ATOM     18  C   UNL     1      -6.013  12.283  20.256  0.00  0.00    +0.000 A 
ATOM     19  C   UNL     1      -6.272  12.891  21.607  0.00  0.00    +0.000 C 
ATOM     20  C   UNL     1      -4.906  13.576  21.938  0.00  0.00    +0.000 C 
ATOM     21  C   UNL     1      -4.447  13.309  23.377  0.00  0.00    +0.000 C 
BRANCH  19  22
ATOM     22  O   UNL     1      -6.588  11.918  22.610  0.00  0.00    +0.000 OA
ATOM     23  C   UNL     1      -7.916  11.955  23.102  0.00  0.00    +0.000 C 
ENDBRANCH  19  22
ENDBRANCH   1  11
BRANCH   1  24
ATOM     24  C   UNL     1      -0.877  11.653  20.827  0.00  0.00    +0.000 C 
ATOM     25  O   UNL     1      -0.706  10.596  20.238  0.00  0.00    +0.000 OA
BRANCH  24  27
ATOM     26  C   UNL     1      -1.053  10.821  23.001  0.00  0.00    +0.000 C 
ATOM     27  O   UNL     1      -0.621  11.877  22.147  0.00  0.00    +0.000 OA
ENDBRANCH  24  27
ENDBRANCH   1  24
TORSDOF 4
ENDMDL
MODEL 9
REMARK VINA RESULT:      -5.9      5.658      8.165
REMARK  Name = 
REMARK  7 active torsions:
REMARK  status: ('A' for Active; 'I' for Inactive)
REMARK    1  A    between atoms: C_1  and  O_2
REMARK    2  A    between atoms: O_2  and  C_3
REMARK    3  A    between atoms: C_3  and  C_5
REMARK    4  A    between atoms: C_5  and  C_6
REMARK    5  A    between atoms: C_14  and  O_15
REMARK    6  A    between atoms: O_15  and  C_16
REMARK    7  A    between atoms: C_17  and  C_18
REMARK                            x       y       z     vdW  Elec       q    Type
REMARK                         _______ _______ _______ _____ _____    ______ ____
ROOT
ATOM      1  C   UNL     1      -0.314  12.294  20.467  0.00  0.00    +0.000 C 
ATOM      2  C   UNL     1       0.116  13.339  19.355  0.00  0.00    +0.000 C 
ATOM      3  O   UNL     1       0.143  14.785  19.694  0.00  0.00    +0.000 OA
ATOM      4  C   UNL     1       1.324  14.970  20.386  0.00  0.00    +0.000 A 
ATOM      5  C   UNL     1       1.816  16.194  20.790  0.00  0.00    +0.000 A 
ATOM      6  C   UNL     1       3.044  16.206  21.450  0.00  0.00    +0.000 A 
ATOM      7  C   UNL     1       3.736  15.006  21.685  0.00  0.00    +0.000 A 
ATOM      8  C   UNL     1       3.206  13.775  21.268  0.00  0.00    +0.000 A 
ATOM      9  C   UNL     1       1.982  13.758  20.615  0.00  0.00    +0.000 A 
ATOM     10  C   UNL     1       1.187  12.645  20.006  0.00  0.00    +0.000 C 
ENDROOT
BRANCH   1  11
ATOM     11  C   UNL     1      -1.733  12.769  20.558  0.00  0.00    +0.000 C 
ATOM     12  C   UNL     1      -2.813  12.495  19.797  0.00  0.00    +0.000 C 
ATOM     13  C   UNL     1      -2.926  11.693  18.576  0.00  0.00    +0.000 A 
ATOM     14  C   UNL     1      -1.947  11.082  17.804  0.00  0.00    +0.000 A 
ATOM     15  C   UNL     1      -2.322  10.372  16.656  0.00  0.00    +0.000 A 
ATOM     16  C   UNL     1      -3.660  10.308  16.260  0.00  0.00    +0.000 A 
ATOM     17  C   UNL     1      -4.639  10.947  17.013  0.00  0.00    +0.000 A 
ATOM     18  C   UNL     1      -4.269  11.603  18.187  0.00  0.00    +0.000 A 
ATOM     19  C   UNL     1      -5.209  12.254  19.165  0.00  0.00    +0.000 C 
ATOM     20  C   UNL     1      -4.229  12.988  20.138  0.00  0.00    +0.000 C 
ATOM     21  C   UNL     1      -4.604  12.789  21.611  0.00  0.00    +0.000 C 
BRANCH  19  22
ATOM     22  O   UNL     1      -6.007  11.312  19.891  0.00  0.00    +0.000 OA
ATOM     23  C   UNL     1      -7.405  11.397  19.673  0.00  0.00    +0.000 C 
ENDBRANCH  19  22
ENDBRANCH   1  11
BRANCH   1  24
ATOM     24  C   UNL     1       0.022  11.780  21.846  0.00  0.00    +0.000 C 
ATOM     25  O   UNL     1      -0.331  12.390  22.845  0.00  0.00    +0.000 OA
BRANCH  24  27
ATOM     26  C   UNL     1       0.121   9.554  22.539  0.00  0.00    +0.000 C 
ATOM     27  O   UNL     1       0.744  10.624  21.835  0.00  0.00    +0.000 OA
ENDBRANCH  24  27
ENDBRANCH   1  24
TORSDOF 4
ENDMDL
