MODEL 1
REMARK VINA RESULT:      -8.4      0.000      0.000
REMARK  Name = 
REMARK  8 active torsions:
REMARK  status: ('A' for Active; 'I' for Inactive)
REMARK    1  A    between atoms: C_1  and  O_2
REMARK    2  A    between atoms: O_2  and  C_3
REMARK    3  A    between atoms: C_7  and  C_8
REMARK    4  A    between atoms: C_8  and  N_9
REMARK    5  A    between atoms: N_9  and  C_10
REMARK    6  A    between atoms: C_13  and  S_14
REMARK    7  A    between atoms: S_14  and  N_17
REMARK    8  A    between atoms: C_26  and  O_27
REMARK                            x       y       z     vdW  Elec       q    Type
REMARK                         _______ _______ _______ _____ _____    ______ ____
ROOT
ATOM      1  C   UNL     1       7.942   7.565  18.362  0.00  0.00    +0.000 A 
ATOM      2  C   UNL     1       7.998   6.301  18.965  0.00  0.00    +0.000 A 
ATOM      3  C   UNL     1       7.144   5.270  18.559  0.00  0.00    +0.000 A 
ATOM      4  C   UNL     1       6.175   5.519  17.585  0.00  0.00    +0.000 A 
ATOM      5  C   UNL     1       6.071   6.781  17.001  0.00  0.00    +0.000 A 
ATOM      6  C   UNL     1       6.934   7.801  17.413  0.00  0.00    +0.000 A 
ENDROOT
BRANCH   4   7
ATOM      7  S   UNL     1       5.084   4.206  17.087  0.00  0.00    +0.000 S 
ATOM      8  O   UNL     1       3.789   4.791  16.801  0.00  0.00    +0.000 OA
ATOM      9  O   UNL     1       5.787   3.429  16.085  0.00  0.00    +0.000 OA
BRANCH   7  10
ATOM     10  N   UNL     1       4.979   3.233  18.462  0.00  0.00    +0.000 N 
ATOM     11  C   UNL     1       3.684   3.108  19.012  0.00  0.00    +0.000 A 
ATOM     12  C   UNL     1       2.749   2.220  18.513  0.00  0.00    +0.000 A 
ATOM     13  C   UNL     1       1.502   2.179  19.134  0.00  0.00    +0.000 A 
ATOM     14  C   UNL     1       1.244   3.043  20.193  0.00  0.00    +0.000 A 
ATOM     15  C   UNL     1       2.247   3.907  20.599  0.00  0.00    +0.000 A 
ATOM     16  N   UNL     1       3.475   3.951  20.034  0.00  0.00    +0.000 NA
ATOM     17  H   UNL     1       5.608   3.591  19.175  0.00  0.00    +0.000 HD
ENDBRANCH   7  10
ENDBRANCH   4   7
BRANCH   1  18
ATOM     18  N   UNL     1       8.764   8.637  18.757  0.00  0.00    +0.000 N 
ATOM     19  H   UNL     1       8.637   8.822  19.754  0.00  0.00    +0.000 HD
BRANCH  18  20
ATOM     20  C   UNL     1       8.650   9.901  18.003  0.00  0.00    +0.000 C 
BRANCH  20  25
ATOM     21  C   UNL     1       9.814  13.450  18.979  0.00  0.00    +0.000 A 
ATOM     22  C   UNL     1      10.533  13.149  20.141  0.00  0.00    +0.000 A 
ATOM     23  C   UNL     1      10.625  11.839  20.609  0.00  0.00    +0.000 A 
ATOM     24  C   UNL     1       9.997  10.808  19.915  0.00  0.00    +0.000 A 
ATOM     25  C   UNL     1       9.250  11.074  18.754  0.00  0.00    +0.000 A 
ATOM     26  C   UNL     1       9.172  12.406  18.297  0.00  0.00    +0.000 A 
BRANCH  21  28
ATOM     27  C   UNL     1      10.937  15.302  17.962  0.00  0.00    +0.000 C 
ATOM     28  O   UNL     1       9.822  14.786  18.675  0.00  0.00    +0.000 OA
ENDBRANCH  21  28
BRANCH  26  29
ATOM     29  O   UNL     1       8.424  12.669  17.179  0.00  0.00    +0.000 OA
ATOM     30  H   UNL     1       8.947  13.334  16.676  0.00  0.00    +0.000 HD
ENDBRANCH  26  29
ENDBRANCH  20  25
ENDBRANCH  18  20
ENDBRANCH   1  18
TORSDOF 7
ENDMDL
MODEL 2
REMARK VINA RESULT:      -8.2      1.151      1.457
REMARK  Name = 
REMARK  8 active torsions:
REMARK  status: ('A' for Active; 'I' for Inactive)
REMARK    1  A    between atoms: C_1  and  O_2
REMARK    2  A    between atoms: O_2  and  C_3
REMARK    3  A    between atoms: C_7  and  C_8
REMARK    4  A    between atoms: C_8  and  N_9
REMARK    5  A    between atoms: N_9  and  C_10
REMARK    6  A    between atoms: C_13  and  S_14
REMARK    7  A    between atoms: S_14  and  N_17
REMARK    8  A    between atoms: C_26  and  O_27
REMARK                            x       y       z     vdW  Elec       q    Type
REMARK                         _______ _______ _______ _____ _____    ______ ____
ROOT
ATOM      1  C   UNL     1       7.803   7.518  18.171  0.00  0.00    +0.000 A 
ATOM      2  C   UNL     1       7.916   6.311  18.873  0.00  0.00    +0.000 A 
ATOM      3  C   UNL     1       7.052   5.242  18.614  0.00  0.00    +0.000 A 
ATOM      4  C   UNL     1       6.017   5.398  17.689  0.00  0.00    +0.000 A 
ATOM      5  C   UNL     1       5.857   6.605  17.010  0.00  0.00    +0.000 A 
ATOM      6  C   UNL     1       6.731   7.664  17.275  0.00  0.00    +0.000 A 
ENDROOT
BRANCH   4   7
ATOM      7  S   UNL     1       4.914   4.038  17.378  0.00  0.00    +0.000 S 
ATOM      8  O   UNL     1       5.226   3.507  16.065  0.00  0.00    +0.000 OA
ATOM      9  O   UNL     1       4.949   3.189  18.551  0.00  0.00    +0.000 OA
BRANCH   7  10
ATOM     10  N   UNL     1       3.389   4.762  17.352  0.00  0.00    +0.000 N 
ATOM     11  C   UNL     1       2.504   4.334  18.366  0.00  0.00    +0.000 A 
ATOM     12  C   UNL     1       2.544   4.844  19.650  0.00  0.00    +0.000 A 
ATOM     13  C   UNL     1       1.622   4.350  20.570  0.00  0.00    +0.000 A 
ATOM     14  C   UNL     1       0.734   3.356  20.173  0.00  0.00    +0.000 A 
ATOM     15  C   UNL     1       0.795   2.901  18.866  0.00  0.00    +0.000 A 
ATOM     16  N   UNL     1       1.660   3.380  17.943  0.00  0.00    +0.000 NA
ATOM     17  H   UNL     1       2.958   4.603  16.446  0.00  0.00    +0.000 HD
ENDBRANCH   7  10
ENDBRANCH   4   7
BRANCH   1  18
ATOM     18  N   UNL     1       8.634   8.626  18.418  0.00  0.00    +0.000 N 
ATOM     19  H   UNL     1       8.771   8.739  19.424  0.00  0.00    +0.000 HD
BRANCH  18  20
ATOM     20  C   UNL     1       8.243   9.921  17.826  0.00  0.00    +0.000 C 
BRANCH  20  25
ATOM     21  C   UNL     1       9.817  13.409  18.334  0.00  0.00    +0.000 A 
ATOM     22  C   UNL     1      10.788  13.090  19.290  0.00  0.00    +0.000 A 
ATOM     23  C   UNL     1      10.920  11.789  19.773  0.00  0.00    +0.000 A 
ATOM     24  C   UNL     1      10.079  10.785  19.301  0.00  0.00    +0.000 A 
ATOM     25  C   UNL     1       9.079  11.070  18.355  0.00  0.00    +0.000 A 
ATOM     26  C   UNL     1       8.965  12.393  17.878  0.00  0.00    +0.000 A 
BRANCH  21  28
ATOM     27  C   UNL     1       9.603  15.696  19.004  0.00  0.00    +0.000 C 
ATOM     28  O   UNL     1       9.824  14.734  17.984  0.00  0.00    +0.000 OA
ENDBRANCH  21  28
BRANCH  26  29
ATOM     29  O   UNL     1       7.974  12.677  16.974  0.00  0.00    +0.000 OA
ATOM     30  H   UNL     1       8.407  13.242  16.295  0.00  0.00    +0.000 HD
ENDBRANCH  26  29
ENDBRANCH  20  25
ENDBRANCH  18  20
ENDBRANCH   1  18
TORSDOF 7
ENDMDL
MODEL 3
REMARK VINA RESULT:      -8.2      0.531      1.069
REMARK  Name = 
REMARK  8 active torsions:
REMARK  status: ('A' for Active; 'I' for Inactive)
REMARK    1  A    between atoms: C_1  and  O_2
REMARK    2  A    between atoms: O_2  and  C_3
REMARK    3  A    between atoms: C_7  and  C_8
REMARK    4  A    between atoms: C_8  and  N_9
REMARK    5  A    between atoms: N_9  and  C_10
REMARK    6  A    between atoms: C_13  and  S_14
REMARK    7  A    between atoms: S_14  and  N_17
REMARK    8  A    between atoms: C_26  and  O_27
REMARK                            x       y       z     vdW  Elec       q    Type
REMARK                         _______ _______ _______ _____ _____    ______ ____
ROOT
ATOM      1  C   UNL     1       8.012   7.864  18.355  0.00  0.00    +0.000 A 
ATOM      2  C   UNL     1       7.075   7.997  17.322  0.00  0.00    +0.000 A 
ATOM      3  C   UNL     1       6.248   6.930  16.956  0.00  0.00    +0.000 A 
ATOM      4  C   UNL     1       6.402   5.690  17.581  0.00  0.00    +0.000 A 
ATOM      5  C   UNL     1       7.358   5.521  18.582  0.00  0.00    +0.000 A 
ATOM      6  C   UNL     1       8.174   6.598  18.942  0.00  0.00    +0.000 A 
ENDROOT
BRANCH   4   7
ATOM      7  S   UNL     1       5.357   4.335  17.098  0.00  0.00    +0.000 S 
ATOM      8  O   UNL     1       4.034   4.868  16.837  0.00  0.00    +0.000 OA
ATOM      9  O   UNL     1       6.073   3.590  16.082  0.00  0.00    +0.000 OA
BRANCH   7  10
ATOM     10  N   UNL     1       5.316   3.356  18.473  0.00  0.00    +0.000 N 
ATOM     11  C   UNL     1       4.025   3.069  18.967  0.00  0.00    +0.000 A 
ATOM     12  C   UNL     1       3.230   2.072  18.433  0.00  0.00    +0.000 A 
ATOM     13  C   UNL     1       1.973   1.875  19.001  0.00  0.00    +0.000 A 
ATOM     14  C   UNL     1       1.564   2.698  20.044  0.00  0.00    +0.000 A 
ATOM     15  C   UNL     1       2.432   3.682  20.488  0.00  0.00    +0.000 A 
ATOM     16  N   UNL     1       3.668   3.879  19.976  0.00  0.00    +0.000 NA
ATOM     17  H   UNL     1       5.864   3.789  19.210  0.00  0.00    +0.000 HD
ENDBRANCH   7  10
ENDBRANCH   4   7
BRANCH   1  18
ATOM     18  N   UNL     1       8.880   8.903  18.738  0.00  0.00    +0.000 N 
ATOM     19  H   UNL     1       8.854   9.021  19.752  0.00  0.00    +0.000 HD
BRANCH  18  20
ATOM     20  C   UNL     1       8.707  10.216  18.084  0.00  0.00    +0.000 C 
BRANCH  20  25
ATOM     21  C   UNL     1      10.495  13.555  18.831  0.00  0.00    +0.000 A 
ATOM     22  C   UNL     1      11.202  13.189  19.981  0.00  0.00    +0.000 A 
ATOM     23  C   UNL     1      11.091  11.905  20.515  0.00  0.00    +0.000 A 
ATOM     24  C   UNL     1      10.269  10.966  19.898  0.00  0.00    +0.000 A 
ATOM     25  C   UNL     1       9.528  11.302  18.751  0.00  0.00    +0.000 A 
ATOM     26  C   UNL     1       9.657  12.606  18.227  0.00  0.00    +0.000 A 
BRANCH  21  28
ATOM     27  C   UNL     1      11.074  15.788  19.465  0.00  0.00    +0.000 C 
ATOM     28  O   UNL     1      10.715  14.854  18.456  0.00  0.00    +0.000 OA
ENDBRANCH  21  28
BRANCH  26  29
ATOM     29  O   UNL     1       8.917  12.941  17.124  0.00  0.00    +0.000 OA
ATOM     30  H   UNL     1       9.270  13.814  16.839  0.00  0.00    +0.000 HD
ENDBRANCH  26  29
ENDBRANCH  20  25
ENDBRANCH  18  20
ENDBRANCH   1  18
TORSDOF 7
ENDMDL
MODEL 4
REMARK VINA RESULT:      -8.1      1.183      1.784
REMARK  Name = 
REMARK  8 active torsions:
REMARK  status: ('A' for Active; 'I' for Inactive)
REMARK    1  A    between atoms: C_1  and  O_2
REMARK    2  A    between atoms: O_2  and  C_3
REMARK    3  A    between atoms: C_7  and  C_8
REMARK    4  A    between atoms: C_8  and  N_9
REMARK    5  A    between atoms: N_9  and  C_10
REMARK    6  A    between atoms: C_13  and  S_14
REMARK    7  A    between atoms: S_14  and  N_17
REMARK    8  A    between atoms: C_26  and  O_27
REMARK                            x       y       z     vdW  Elec       q    Type
REMARK                         _______ _______ _______ _____ _____    ______ ____
ROOT
ATOM      1  C   UNL     1       7.991   7.881  18.282  0.00  0.00    +0.000 A 
ATOM      2  C   UNL     1       7.003   7.928  17.290  0.00  0.00    +0.000 A 
ATOM      3  C   UNL     1       6.157   6.838  17.062  0.00  0.00    +0.000 A 
ATOM      4  C   UNL     1       6.339   5.658  17.786  0.00  0.00    +0.000 A 
ATOM      5  C   UNL     1       7.345   5.572  18.749  0.00  0.00    +0.000 A 
ATOM      6  C   UNL     1       8.181   6.671  18.969  0.00  0.00    +0.000 A 
ENDROOT
BRANCH   4   7
ATOM      7  S   UNL     1       5.268   4.273  17.479  0.00  0.00    +0.000 S 
ATOM      8  O   UNL     1       5.657   3.685  16.211  0.00  0.00    +0.000 OA
ATOM      9  O   UNL     1       5.246   3.479  18.691  0.00  0.00    +0.000 OA
BRANCH   7  10
ATOM     10  N   UNL     1       3.741   4.976  17.336  0.00  0.00    +0.000 N 
ATOM     11  C   UNL     1       2.876   4.762  18.432  0.00  0.00    +0.000 A 
ATOM     12  C   UNL     1       2.938   5.522  19.585  0.00  0.00    +0.000 A 
ATOM     13  C   UNL     1       2.035   5.225  20.603  0.00  0.00    +0.000 A 
ATOM     14  C   UNL     1       1.144   4.171  20.432  0.00  0.00    +0.000 A 
ATOM     15  C   UNL     1       1.182   3.461  19.244  0.00  0.00    +0.000 A 
ATOM     16  N   UNL     1       2.028   3.743  18.227  0.00  0.00    +0.000 NA
ATOM     17  H   UNL     1       3.293   4.637  16.489  0.00  0.00    +0.000 HD
ENDBRANCH   7  10
ENDBRANCH   4   7
BRANCH   1  18
ATOM     18  N   UNL     1       8.880   8.944  18.526  0.00  0.00    +0.000 N 
ATOM     19  H   UNL     1       9.046   9.034  19.531  0.00  0.00    +0.000 HD
BRANCH  18  20
ATOM     20  C   UNL     1       8.539  10.266  17.963  0.00  0.00    +0.000 C 
BRANCH  20  25
ATOM     21  C   UNL     1      10.236  13.678  18.579  0.00  0.00    +0.000 A 
ATOM     22  C   UNL     1      11.119  13.318  19.603  0.00  0.00    +0.000 A 
ATOM     23  C   UNL     1      11.153  12.014  20.097  0.00  0.00    +0.000 A 
ATOM     24  C   UNL     1      10.302  11.049  19.566  0.00  0.00    +0.000 A 
ATOM     25  C   UNL     1       9.388  11.376  18.550  0.00  0.00    +0.000 A 
ATOM     26  C   UNL     1       9.372  12.701  18.063  0.00  0.00    +0.000 A 
BRANCH  21  28
ATOM     27  C   UNL     1       9.421  15.914  18.819  0.00  0.00    +0.000 C 
ATOM     28  O   UNL     1      10.332  14.999  18.228  0.00  0.00    +0.000 OA
ENDBRANCH  21  28
BRANCH  26  29
ATOM     29  O   UNL     1       8.465  13.027  17.089  0.00  0.00    +0.000 OA
ATOM     30  H   UNL     1       8.989  13.061  16.258  0.00  0.00    +0.000 HD
ENDBRANCH  26  29
ENDBRANCH  20  25
ENDBRANCH  18  20
ENDBRANCH   1  18
TORSDOF 7
ENDMDL
MODEL 5
REMARK VINA RESULT:      -8.1      6.543      8.941
REMARK  Name = 
REMARK  8 active torsions:
REMARK  status: ('A' for Active; 'I' for Inactive)
REMARK    1  A    between atoms: C_1  and  O_2
REMARK    2  A    between atoms: O_2  and  C_3
REMARK    3  A    between atoms: C_7  and  C_8
REMARK    4  A    between atoms: C_8  and  N_9
REMARK    5  A    between atoms: N_9  and  C_10
REMARK    6  A    between atoms: C_13  and  S_14
REMARK    7  A    between atoms: S_14  and  N_17
REMARK    8  A    between atoms: C_26  and  O_27
REMARK                            x       y       z     vdW  Elec       q    Type
REMARK                         _______ _______ _______ _____ _____    ______ ____
ROOT
ATOM      1  C   UNL     1       0.954   9.153  19.348  0.00  0.00    +0.000 A 
ATOM      2  C   UNL     1       1.617   9.224  18.115  0.00  0.00    +0.000 A 
ATOM      3  C   UNL     1       2.595   8.287  17.767  0.00  0.00    +0.000 A 
ATOM      4  C   UNL     1       2.969   7.304  18.686  0.00  0.00    +0.000 A 
ATOM      5  C   UNL     1       2.354   7.240  19.937  0.00  0.00    +0.000 A 
ATOM      6  C   UNL     1       1.374   8.180  20.269  0.00  0.00    +0.000 A 
ENDROOT
BRANCH   4   7
ATOM      7  S   UNL     1       4.224   6.127  18.240  0.00  0.00    +0.000 S 
ATOM      8  O   UNL     1       5.239   6.829  17.480  0.00  0.00    +0.000 OA
ATOM      9  O   UNL     1       4.568   5.399  19.445  0.00  0.00    +0.000 OA
BRANCH   7  10
ATOM     10  N   UNL     1       3.411   5.040  17.237  0.00  0.00    +0.000 N 
ATOM     11  C   UNL     1       2.772   3.970  17.901  0.00  0.00    +0.000 A 
ATOM     12  C   UNL     1       1.529   4.101  18.494  0.00  0.00    +0.000 A 
ATOM     13  C   UNL     1       0.993   2.979  19.122  0.00  0.00    +0.000 A 
ATOM     14  C   UNL     1       1.733   1.801  19.154  0.00  0.00    +0.000 A 
ATOM     15  C   UNL     1       2.978   1.787  18.547  0.00  0.00    +0.000 A 
ATOM     16  N   UNL     1       3.513   2.851  17.907  0.00  0.00    +0.000 NA
ATOM     17  H   UNL     1       4.061   4.664  16.552  0.00  0.00    +0.000 HD
ENDBRANCH   7  10
ENDBRANCH   4   7
BRANCH   1  18
ATOM     18  N   UNL     1      -0.017  10.090  19.748  0.00  0.00    +0.000 N 
ATOM     19  H   UNL     1      -0.885   9.608  19.989  0.00  0.00    +0.000 HD
BRANCH  18  20
ATOM     20  C   UNL     1      -0.312  11.206  18.829  0.00  0.00    +0.000 C 
BRANCH  20  25
ATOM     21  C   UNL     1      -4.040  11.521  17.877  0.00  0.00    +0.000 A 
ATOM     22  C   UNL     1      -4.112  10.536  16.887  0.00  0.00    +0.000 A 
ATOM     23  C   UNL     1      -2.985   9.801  16.520  0.00  0.00    +0.000 A 
ATOM     24  C   UNL     1      -1.765  10.044  17.147  0.00  0.00    +0.000 A 
ATOM     25  C   UNL     1      -1.648  11.039  18.133  0.00  0.00    +0.000 A 
ATOM     26  C   UNL     1      -2.803  11.768  18.490  0.00  0.00    +0.000 A 
BRANCH  21  28
ATOM     27  C   UNL     1      -6.407  11.345  18.175  0.00  0.00    +0.000 C 
ATOM     28  O   UNL     1      -5.238  12.148  18.099  0.00  0.00    +0.000 OA
ENDBRANCH  21  28
BRANCH  26  29
ATOM     29  O   UNL     1      -2.685  12.755  19.434  0.00  0.00    +0.000 OA
ATOM     30  H   UNL     1      -3.126  13.539  19.036  0.00  0.00    +0.000 HD
ENDBRANCH  26  29
ENDBRANCH  20  25
ENDBRANCH  18  20
ENDBRANCH   1  18
TORSDOF 7
ENDMDL
MODEL 6
REMARK VINA RESULT:      -8.0      1.603      2.281
REMARK  Name = 
REMARK  8 active torsions:
REMARK  status: ('A' for Active; 'I' for Inactive)
REMARK    1  A    between atoms: C_1  and  O_2
REMARK    2  A    between atoms: O_2  and  C_3
REMARK    3  A    between atoms: C_7  and  C_8
REMARK    4  A    between atoms: C_8  and  N_9
REMARK    5  A    between atoms: N_9  and  C_10
REMARK    6  A    between atoms: C_13  and  S_14
REMARK    7  A    between atoms: S_14  and  N_17
REMARK    8  A    between atoms: C_26  and  O_27
REMARK                            x       y       z     vdW  Elec       q    Type
REMARK                         _______ _______ _______ _____ _____    ______ ____
ROOT
ATOM      1  C   UNL     1       7.655   8.010  17.861  0.00  0.00    +0.000 A 
ATOM      2  C   UNL     1       6.492   7.940  17.081  0.00  0.00    +0.000 A 
ATOM      3  C   UNL     1       5.696   6.790  17.075  0.00  0.00    +0.000 A 
ATOM      4  C   UNL     1       6.096   5.668  17.804  0.00  0.00    +0.000 A 
ATOM      5  C   UNL     1       7.272   5.699  18.554  0.00  0.00    +0.000 A 
ATOM      6  C   UNL     1       8.056   6.856  18.554  0.00  0.00    +0.000 A 
ENDROOT
BRANCH   4   7
ATOM      7  S   UNL     1       5.084   4.206  17.779  0.00  0.00    +0.000 S 
ATOM      8  O   UNL     1       5.341   3.512  16.532  0.00  0.00    +0.000 OA
ATOM      9  O   UNL     1       5.271   3.541  19.052  0.00  0.00    +0.000 OA
BRANCH   7  10
ATOM     10  N   UNL     1       3.509   4.813  17.780  0.00  0.00    +0.000 N 
ATOM     11  C   UNL     1       2.669   4.303  18.794  0.00  0.00    +0.000 A 
ATOM     12  C   UNL     1       2.684   4.793  20.087  0.00  0.00    +0.000 A 
ATOM     13  C   UNL     1       1.811   4.216  21.006  0.00  0.00    +0.000 A 
ATOM     14  C   UNL     1       0.997   3.165  20.599  0.00  0.00    +0.000 A 
ATOM     15  C   UNL     1       1.078   2.738  19.284  0.00  0.00    +0.000 A 
ATOM     16  N   UNL     1       1.895   3.296  18.362  0.00  0.00    +0.000 NA
ATOM     17  H   UNL     1       3.081   4.637  16.875  0.00  0.00    +0.000 HD
ENDBRANCH   7  10
ENDBRANCH   4   7
BRANCH   1  18
ATOM     18  N   UNL     1       8.498   9.136  17.875  0.00  0.00    +0.000 N 
ATOM     19  H   UNL     1       9.250   9.015  17.195  0.00  0.00    +0.000 HD
BRANCH  18  20
ATOM     20  C   UNL     1       9.069   9.547  19.173  0.00  0.00    +0.000 C 
BRANCH  20  25
ATOM     21  C   UNL     1      10.437  13.035  20.103  0.00  0.00    +0.000 A 
ATOM     22  C   UNL     1      10.823  13.480  18.834  0.00  0.00    +0.000 A 
ATOM     23  C   UNL     1      10.666  12.671  17.710  0.00  0.00    +0.000 A 
ATOM     24  C   UNL     1      10.114  11.399  17.843  0.00  0.00    +0.000 A 
ATOM     25  C   UNL     1       9.730  10.910  19.103  0.00  0.00    +0.000 A 
ATOM     26  C   UNL     1       9.897  11.747  20.227  0.00  0.00    +0.000 A 
BRANCH  21  28
ATOM     27  C   UNL     1       9.654  14.898  21.384  0.00  0.00    +0.000 C 
ATOM     28  O   UNL     1      10.674  13.956  21.090  0.00  0.00    +0.000 OA
ENDBRANCH  21  28
BRANCH  26  29
ATOM     29  O   UNL     1       9.546  11.261  21.460  0.00  0.00    +0.000 OA
ATOM     30  H   UNL     1       8.570  11.375  21.507  0.00  0.00    +0.000 HD
ENDBRANCH  26  29
ENDBRANCH  20  25
ENDBRANCH  18  20
ENDBRANCH   1  18
TORSDOF 7
ENDMDL
MODEL 7
REMARK VINA RESULT:      -7.9      6.558      9.163
REMARK  Name = 
REMARK  8 active torsions:
REMARK  status: ('A' for Active; 'I' for Inactive)
REMARK    1  A    between atoms: C_1  and  O_2
REMARK    2  A    between atoms: O_2  and  C_3
REMARK    3  A    between atoms: C_7  and  C_8
REMARK    4  A    between atoms: C_8  and  N_9
REMARK    5  A    between atoms: N_9  and  C_10
REMARK    6  A    between atoms: C_13  and  S_14
REMARK    7  A    between atoms: S_14  and  N_17
REMARK    8  A    between atoms: C_26  and  O_27
REMARK                            x       y       z     vdW  Elec       q    Type
REMARK                         _______ _______ _______ _____ _____    ______ ____
ROOT
ATOM      1  C   UNL     1       1.052   9.470  19.649  0.00  0.00    +0.000 A 
ATOM      2  C   UNL     1       1.653   9.088  18.442  0.00  0.00    +0.000 A 
ATOM      3  C   UNL     1       2.244   7.828  18.297  0.00  0.00    +0.000 A 
ATOM      4  C   UNL     1       2.298   6.960  19.390  0.00  0.00    +0.000 A 
ATOM      5  C   UNL     1       1.745   7.336  20.615  0.00  0.00    +0.000 A 
ATOM      6  C   UNL     1       1.153   8.596  20.743  0.00  0.00    +0.000 A 
ENDROOT
BRANCH   4   7
ATOM      7  S   UNL     1       3.065   5.368  19.201  0.00  0.00    +0.000 S 
ATOM      8  O   UNL     1       2.948   4.667  20.465  0.00  0.00    +0.000 OA
ATOM      9  O   UNL     1       2.542   4.790  17.979  0.00  0.00    +0.000 OA
BRANCH   7  10
ATOM     10  N   UNL     1       4.684   5.739  18.903  0.00  0.00    +0.000 N 
ATOM     11  C   UNL     1       5.119   5.515  17.578  0.00  0.00    +0.000 A 
ATOM     12  C   UNL     1       4.893   6.422  16.559  0.00  0.00    +0.000 A 
ATOM     13  C   UNL     1       5.367   6.098  15.290  0.00  0.00    +0.000 A 
ATOM     14  C   UNL     1       6.010   4.880  15.097  0.00  0.00    +0.000 A 
ATOM     15  C   UNL     1       6.164   4.036  16.184  0.00  0.00    +0.000 A 
ATOM     16  N   UNL     1       5.739   4.334  17.433  0.00  0.00    +0.000 NA
ATOM     17  H   UNL     1       5.273   5.209  19.539  0.00  0.00    +0.000 HD
ENDBRANCH   7  10
ENDBRANCH   4   7
BRANCH   1  18
ATOM     18  N   UNL     1       0.470  10.736  19.845  0.00  0.00    +0.000 N 
ATOM     19  H   UNL     1      -0.310  10.661  20.501  0.00  0.00    +0.000 HD
BRANCH  18  20
ATOM     20  C   UNL     1       0.038  11.484  18.649  0.00  0.00    +0.000 C 
BRANCH  20  25
ATOM     21  C   UNL     1      -3.816  11.669  18.540  0.00  0.00    +0.000 A 
ATOM     22  C   UNL     1      -4.080  10.561  17.727  0.00  0.00    +0.000 A 
ATOM     23  C   UNL     1      -3.043   9.786  17.209  0.00  0.00    +0.000 A 
ATOM     24  C   UNL     1      -1.721  10.110  17.505  0.00  0.00    +0.000 A 
ATOM     25  C   UNL     1      -1.415  11.226  18.303  0.00  0.00    +0.000 A 
ATOM     26  C   UNL     1      -2.481  11.995  18.818  0.00  0.00    +0.000 A 
BRANCH  21  28
ATOM     27  C   UNL     1      -6.065  11.530  19.344  0.00  0.00    +0.000 C 
ATOM     28  O   UNL     1      -4.952  12.318  18.948  0.00  0.00    +0.000 OA
ENDBRANCH  21  28
BRANCH  26  29
ATOM     29  O   UNL     1      -2.183  13.097  19.576  0.00  0.00    +0.000 OA
ATOM     30  H   UNL     1      -1.800  12.735  20.407  0.00  0.00    +0.000 HD
ENDBRANCH  26  29
ENDBRANCH  20  25
ENDBRANCH  18  20
ENDBRANCH   1  18
TORSDOF 7
ENDMDL
MODEL 8
REMARK VINA RESULT:      -7.9      1.452      2.007
REMARK  Name = 
REMARK  8 active torsions:
REMARK  status: ('A' for Active; 'I' for Inactive)
REMARK    1  A    between atoms: C_1  and  O_2
REMARK    2  A    between atoms: O_2  and  C_3
REMARK    3  A    between atoms: C_7  and  C_8
REMARK    4  A    between atoms: C_8  and  N_9
REMARK    5  A    between atoms: N_9  and  C_10
REMARK    6  A    between atoms: C_13  and  S_14
REMARK    7  A    between atoms: S_14  and  N_17
REMARK    8  A    between atoms: C_26  and  O_27
REMARK                            x       y       z     vdW  Elec       q    Type
REMARK                         _______ _______ _______ _____ _____    ______ ____
ROOT
ATOM      1  C   UNL     1       7.827   8.345  17.961  0.00  0.00    +0.000 A 
ATOM      2  C   UNL     1       6.699   8.250  17.135  0.00  0.00    +0.000 A 
ATOM      3  C   UNL     1       5.947   7.073  17.073  0.00  0.00    +0.000 A 
ATOM      4  C   UNL     1       6.361   5.949  17.792  0.00  0.00    +0.000 A 
ATOM      5  C   UNL     1       7.506   6.006  18.587  0.00  0.00    +0.000 A 
ATOM      6  C   UNL     1       8.245   7.191  18.644  0.00  0.00    +0.000 A 
ENDROOT
BRANCH   4   7
ATOM      7  S   UNL     1       5.407   4.452  17.694  0.00  0.00    +0.000 S 
ATOM      8  O   UNL     1       5.854   3.718  16.527  0.00  0.00    +0.000 OA
ATOM      9  O   UNL     1       5.436   3.846  19.010  0.00  0.00    +0.000 OA
BRANCH   7  10
ATOM     10  N   UNL     1       3.830   5.001  17.453  0.00  0.00    +0.000 N 
ATOM     11  C   UNL     1       2.937   4.755  18.519  0.00  0.00    +0.000 A 
ATOM     12  C   UNL     1       2.874   5.566  19.637  0.00  0.00    +0.000 A 
ATOM     13  C   UNL     1       1.955   5.228  20.628  0.00  0.00    +0.000 A 
ATOM     14  C   UNL     1       1.174   4.089  20.468  0.00  0.00    +0.000 A 
ATOM     15  C   UNL     1       1.334   3.335  19.318  0.00  0.00    +0.000 A 
ATOM     16  N   UNL     1       2.197   3.652  18.326  0.00  0.00    +0.000 NA
ATOM     17  H   UNL     1       3.456   4.585  16.604  0.00  0.00    +0.000 HD
ENDBRANCH   7  10
ENDBRANCH   4   7
BRANCH   1  18
ATOM     18  N   UNL     1       8.626   9.501  18.033  0.00  0.00    +0.000 N 
ATOM     19  H   UNL     1       9.299   9.506  17.265  0.00  0.00    +0.000 HD
BRANCH  18  20
ATOM     20  C   UNL     1       9.326   9.771  19.305  0.00  0.00    +0.000 C 
BRANCH  20  25
ATOM     21  C   UNL     1      10.962  13.213  18.691  0.00  0.00    +0.000 A 
ATOM     22  C   UNL     1      10.566  13.872  19.861  0.00  0.00    +0.000 A 
ATOM     23  C   UNL     1       9.775  13.231  20.814  0.00  0.00    +0.000 A 
ATOM     24  C   UNL     1       9.372  11.914  20.608  0.00  0.00    +0.000 A 
ATOM     25  C   UNL     1       9.734  11.225  19.438  0.00  0.00    +0.000 A 
ATOM     26  C   UNL     1      10.536  11.893  18.487  0.00  0.00    +0.000 A 
BRANCH  21  28
ATOM     27  C   UNL     1      11.200  15.257  17.470  0.00  0.00    +0.000 C 
ATOM     28  O   UNL     1      11.724  13.998  17.866  0.00  0.00    +0.000 OA
ENDBRANCH  21  28
BRANCH  26  29
ATOM     29  O   UNL     1      10.869  11.230  17.335  0.00  0.00    +0.000 OA
ATOM     30  H   UNL     1      11.455  10.496  17.627  0.00  0.00    +0.000 HD
ENDBRANCH  26  29
ENDBRANCH  20  25
ENDBRANCH  18  20
ENDBRANCH   1  18
TORSDOF 7
ENDMDL
MODEL 9
REMARK VINA RESULT:      -7.9      7.024      9.286
REMARK  Name = 
REMARK  8 active torsions:
REMARK  status: ('A' for Active; 'I' for Inactive)
REMARK    1  A    between atoms: C_1  and  O_2
REMARK    2  A    between atoms: O_2  and  C_3
REMARK    3  A    between atoms: C_7  and  C_8
REMARK    4  A    between atoms: C_8  and  N_9
REMARK    5  A    between atoms: N_9  and  C_10
REMARK    6  A    between atoms: C_13  and  S_14
REMARK    7  A    between atoms: S_14  and  N_17
REMARK    8  A    between atoms: C_26  and  O_27
REMARK                            x       y       z     vdW  Elec       q    Type
REMARK                         _______ _______ _______ _____ _____    ______ ____
ROOT
ATOM      1  C   UNL     1       0.573   9.917  19.416  0.00  0.00    +0.000 A 
ATOM      2  C   UNL     1       0.993   8.989  20.378  0.00  0.00    +0.000 A 
ATOM      3  C   UNL     1       1.865   7.948  20.044  0.00  0.00    +0.000 A 
ATOM      4  C   UNL     1       2.273   7.786  18.718  0.00  0.00    +0.000 A 
ATOM      5  C   UNL     1       1.833   8.671  17.734  0.00  0.00    +0.000 A 
ATOM      6  C   UNL     1       0.966   9.711  18.083  0.00  0.00    +0.000 A 
ENDROOT
BRANCH   4   7
ATOM      7  S   UNL     1       3.370   6.450  18.301  0.00  0.00    +0.000 S 
ATOM      8  O   UNL     1       4.148   6.861  17.148  0.00  0.00    +0.000 OA
ATOM      9  O   UNL     1       4.020   6.037  19.529  0.00  0.00    +0.000 OA
BRANCH   7  10
ATOM     10  N   UNL     1       2.324   5.199  17.866  0.00  0.00    +0.000 N 
ATOM     11  C   UNL     1       2.116   4.217  18.858  0.00  0.00    +0.000 A 
ATOM     12  C   UNL     1       1.218   4.387  19.895  0.00  0.00    +0.000 A 
ATOM     13  C   UNL     1       1.093   3.351  20.818  0.00  0.00    +0.000 A 
ATOM     14  C   UNL     1       1.889   2.219  20.678  0.00  0.00    +0.000 A 
ATOM     15  C   UNL     1       2.772   2.161  19.613  0.00  0.00    +0.000 A 
ATOM     16  N   UNL     1       2.896   3.138  18.686  0.00  0.00    +0.000 NA
ATOM     17  H   UNL     1       2.670   4.751  17.022  0.00  0.00    +0.000 HD
ENDBRANCH   7  10
ENDBRANCH   4   7
BRANCH   1  18
ATOM     18  N   UNL     1      -0.323  10.963  19.703  0.00  0.00    +0.000 N 
ATOM     19  H   UNL     1      -1.180  10.583  20.110  0.00  0.00    +0.000 HD
BRANCH  18  20
ATOM     20  C   UNL     1      -0.667  11.890  18.607  0.00  0.00    +0.000 C 
BRANCH  20  25
ATOM     21  C   UNL     1      -4.508  11.584  18.374  0.00  0.00    +0.000 A 
ATOM     22  C   UNL     1      -4.623  11.070  17.077  0.00  0.00    +0.000 A 
ATOM     23  C   UNL     1      -3.494  10.847  16.290  0.00  0.00    +0.000 A 
ATOM     24  C   UNL     1      -2.228  11.134  16.796  0.00  0.00    +0.000 A 
ATOM     25  C   UNL     1      -2.073  11.668  18.087  0.00  0.00    +0.000 A 
ATOM     26  C   UNL     1      -3.230  11.884  18.866  0.00  0.00    +0.000 A 
BRANCH  21  28
ATOM     27  C   UNL     1      -6.882  11.818  18.183  0.00  0.00    +0.000 C 
ATOM     28  O   UNL     1      -5.718  11.748  18.994  0.00  0.00    +0.000 OA
ENDBRANCH  21  28
BRANCH  26  29
ATOM     29  O   UNL     1      -3.082  12.427  20.115  0.00  0.00    +0.000 OA
ATOM     30  H   UNL     1      -3.223  13.392  19.989  0.00  0.00    +0.000 HD
ENDBRANCH  26  29
ENDBRANCH  20  25
ENDBRANCH  18  20
ENDBRANCH   1  18
TORSDOF 7
ENDMDL
