MODEL 1
REMARK VINA RESULT:      -6.5      0.000      0.000
REMARK  Name = 
REMARK  10 active torsions:
REMARK  status: ('A' for Active; 'I' for Inactive)
REMARK    1  A    between atoms: C_1  and  C_2
REMARK    2  A    between atoms: C_2  and  O_3
REMARK    3  A    between atoms: O_3  and  C_4
REMARK    4  A    between atoms: C_4  and  C_6
REMARK    5  A    between atoms: C_6  and  N_7
REMARK    6  A    between atoms: N_7  and  C_17
REMARK    7  A    between atoms: C_8  and  C_10
REMARK    8  A    between atoms: C_17  and  C_18
REMARK    9  A    between atoms: C_17  and  C_19
REMARK   10  A    between atoms: C_17  and  C_20
REMARK                            x       y       z     vdW  Elec       q    Type
REMARK                         _______ _______ _______ _____ _____    ______ ____
ROOT
ATOM      1  N   UNL     1       5.584   4.625  17.027  0.00  0.00    +0.000 N 
ATOM      2  C   UNL     1       4.156   4.637  17.152  0.00  0.00    +0.000 C 
ATOM      3  O   UNL     1       3.486   3.965  16.362  0.00  0.00    +0.000 OA
ENDROOT
BRANCH   2   4
ATOM      4  C   UNL     1       3.361   5.417  18.192  0.00  0.00    +0.000 A 
ATOM      5  C   UNL     1       3.047   6.779  18.149  0.00  0.00    +0.000 A 
ATOM      6  C   UNL     1       2.369   7.414  19.180  0.00  0.00    +0.000 A 
ATOM      7  N   UNL     1       1.925   6.779  20.265  0.00  0.00    +0.000 NA
ATOM      8  C   UNL     1       2.187   5.451  20.300  0.00  0.00    +0.000 A 
ATOM      9  C   UNL     1       2.883   4.742  19.326  0.00  0.00    +0.000 A 
ATOM     10  F   UNL     1       3.073   3.437  19.526  0.00  0.00    +0.000 F 
ENDBRANCH   2   4
BRANCH   1  11
ATOM     11  C   UNL     1       6.598   5.363  17.854  0.00  0.00    +0.000 C 
ATOM     12  C   UNL     1       6.294   5.470  19.380  0.00  0.00    +0.000 C 
ATOM     13  C   UNL     1       7.926   4.553  17.842  0.00  0.00    +0.000 C 
ATOM     14  C   UNL     1       6.632   6.859  17.436  0.00  0.00    +0.000 C 
ENDBRANCH   1  11
BRANCH   1  15
ATOM     15  C   UNL     1       6.120   3.776  15.928  0.00  0.00    +0.000 C 
BRANCH  15  16
ATOM     16  C   UNL     1       6.419   4.488  14.605  0.00  0.00    +0.000 C 
ATOM     17  O   UNL     1       7.374   5.242  14.452  0.00  0.00    +0.000 OA
BRANCH  16  18
ATOM     18  O   UNL     1       5.474   4.232  13.659  0.00  0.00    +0.000 OA
BRANCH  18  20
ATOM     19  C   UNL     1       4.716   3.184  11.617  0.00  0.00    +0.000 C 
ATOM     20  C   UNL     1       5.877   3.388  12.570  0.00  0.00    +0.000 C 
ENDBRANCH  18  20
ENDBRANCH  16  18
ENDBRANCH  15  16
ENDBRANCH   1  15
TORSDOF 6
ENDMDL
MODEL 2
REMARK VINA RESULT:      -6.4      2.076      2.998
REMARK  Name = 
REMARK  10 active torsions:
REMARK  status: ('A' for Active; 'I' for Inactive)
REMARK    1  A    between atoms: C_1  and  C_2
REMARK    2  A    between atoms: C_2  and  O_3
REMARK    3  A    between atoms: O_3  and  C_4
REMARK    4  A    between atoms: C_4  and  C_6
REMARK    5  A    between atoms: C_6  and  N_7
REMARK    6  A    between atoms: N_7  and  C_17
REMARK    7  A    between atoms: C_8  and  C_10
REMARK    8  A    between atoms: C_17  and  C_18
REMARK    9  A    between atoms: C_17  and  C_19
REMARK   10  A    between atoms: C_17  and  C_20
REMARK                            x       y       z     vdW  Elec       q    Type
REMARK                         _______ _______ _______ _____ _____    ______ ____
ROOT
ATOM      1  N   UNL     1       3.964   4.429  17.409  0.00  0.00    +0.000 N 
ATOM      2  C   UNL     1       3.456   3.190  17.918  0.00  0.00    +0.000 C 
ATOM      3  O   UNL     1       3.594   2.168  17.237  0.00  0.00    +0.000 OA
ENDROOT
BRANCH   2   4
ATOM      4  C   UNL     1       2.740   3.002  19.250  0.00  0.00    +0.000 A 
ATOM      5  C   UNL     1       1.380   3.207  19.500  0.00  0.00    +0.000 A 
ATOM      6  C   UNL     1       0.833   3.069  20.768  0.00  0.00    +0.000 A 
ATOM      7  N   UNL     1       1.540   2.689  21.833  0.00  0.00    +0.000 NA
ATOM      8  C   UNL     1       2.850   2.447  21.596  0.00  0.00    +0.000 A 
ATOM      9  C   UNL     1       3.485   2.587  20.365  0.00  0.00    +0.000 A 
ATOM     10  F   UNL     1       4.791   2.328  20.309  0.00  0.00    +0.000 F 
ENDBRANCH   2   4
BRANCH   1  11
ATOM     11  C   UNL     1       3.905   5.791  18.042  0.00  0.00    +0.000 C 
ATOM     12  C   UNL     1       4.559   6.953  17.234  0.00  0.00    +0.000 C 
ATOM     13  C   UNL     1       2.416   6.238  18.109  0.00  0.00    +0.000 C 
ATOM     14  C   UNL     1       4.747   5.804  19.347  0.00  0.00    +0.000 C 
ENDBRANCH   1  11
BRANCH   1  15
ATOM     15  C   UNL     1       4.629   4.349  16.079  0.00  0.00    +0.000 C 
BRANCH  15  16
ATOM     16  C   UNL     1       6.129   4.043  16.088  0.00  0.00    +0.000 C 
ATOM     17  O   UNL     1       6.864   4.327  17.027  0.00  0.00    +0.000 OA
BRANCH  16  18
ATOM     18  O   UNL     1       6.547   3.485  14.919  0.00  0.00    +0.000 OA
BRANCH  18  20
ATOM     19  C   UNL     1       5.925   3.463  12.583  0.00  0.00    +0.000 C 
ATOM     20  C   UNL     1       6.423   4.300  13.744  0.00  0.00    +0.000 C 
ENDBRANCH  18  20
ENDBRANCH  16  18
ENDBRANCH  15  16
ENDBRANCH   1  15
TORSDOF 6
ENDMDL
MODEL 3
REMARK VINA RESULT:      -6.4      3.001      6.210
REMARK  Name = 
REMARK  10 active torsions:
REMARK  status: ('A' for Active; 'I' for Inactive)
REMARK    1  A    between atoms: C_1  and  C_2
REMARK    2  A    between atoms: C_2  and  O_3
REMARK    3  A    between atoms: O_3  and  C_4
REMARK    4  A    between atoms: C_4  and  C_6
REMARK    5  A    between atoms: C_6  and  N_7
REMARK    6  A    between atoms: N_7  and  C_17
REMARK    7  A    between atoms: C_8  and  C_10
REMARK    8  A    between atoms: C_17  and  C_18
REMARK    9  A    between atoms: C_17  and  C_19
REMARK   10  A    between atoms: C_17  and  C_20
REMARK                            x       y       z     vdW  Elec       q    Type
REMARK                         _______ _______ _______ _____ _____    ______ ____
ROOT
ATOM      1  N   UNL     1       3.447   3.269  19.018  0.00  0.00    +0.000 N 
ATOM      2  C   UNL     1       4.668   3.960  18.729  0.00  0.00    +0.000 C 
ATOM      3  O   UNL     1       5.519   4.060  19.619  0.00  0.00    +0.000 OA
ENDROOT
BRANCH   2   4
ATOM      4  C   UNL     1       5.033   4.602  17.396  0.00  0.00    +0.000 A 
ATOM      5  C   UNL     1       5.631   3.968  16.303  0.00  0.00    +0.000 A 
ATOM      6  C   UNL     1       5.982   4.657  15.151  0.00  0.00    +0.000 A 
ATOM      7  N   UNL     1       5.742   5.956  14.971  0.00  0.00    +0.000 NA
ATOM      8  C   UNL     1       5.126   6.574  16.006  0.00  0.00    +0.000 A 
ATOM      9  C   UNL     1       4.764   5.967  17.206  0.00  0.00    +0.000 A 
ATOM     10  F   UNL     1       4.181   6.727  18.133  0.00  0.00    +0.000 F 
ENDBRANCH   2   4
BRANCH   1  11
ATOM     11  C   UNL     1       2.273   3.032  18.112  0.00  0.00    +0.000 C 
ATOM     12  C   UNL     1       1.043   2.317  18.752  0.00  0.00    +0.000 C 
ATOM     13  C   UNL     1       1.676   4.411  17.709  0.00  0.00    +0.000 C 
ATOM     14  C   UNL     1       2.666   2.033  16.989  0.00  0.00    +0.000 C 
ENDBRANCH   1  11
BRANCH   1  15
ATOM     15  C   UNL     1       3.334   2.726  20.400  0.00  0.00    +0.000 C 
BRANCH  15  16
ATOM     16  C   UNL     1       2.463   3.526  21.373  0.00  0.00    +0.000 C 
ATOM     17  O   UNL     1       1.677   3.001  22.155  0.00  0.00    +0.000 OA
BRANCH  16  18
ATOM     18  O   UNL     1       2.621   4.869  21.220  0.00  0.00    +0.000 OA
BRANCH  18  20
ATOM     19  C   UNL     1       1.822   7.011  20.433  0.00  0.00    +0.000 C 
ATOM     20  C   UNL     1       1.441   5.615  20.884  0.00  0.00    +0.000 C 
ENDBRANCH  18  20
ENDBRANCH  16  18
ENDBRANCH  15  16
ENDBRANCH   1  15
TORSDOF 6
ENDMDL
MODEL 4
REMARK VINA RESULT:      -6.4      2.003      2.713
REMARK  Name = 
REMARK  10 active torsions:
REMARK  status: ('A' for Active; 'I' for Inactive)
REMARK    1  A    between atoms: C_1  and  C_2
REMARK    2  A    between atoms: C_2  and  O_3
REMARK    3  A    between atoms: O_3  and  C_4
REMARK    4  A    between atoms: C_4  and  C_6
REMARK    5  A    between atoms: C_6  and  N_7
REMARK    6  A    between atoms: N_7  and  C_17
REMARK    7  A    between atoms: C_8  and  C_10
REMARK    8  A    between atoms: C_17  and  C_18
REMARK    9  A    between atoms: C_17  and  C_19
REMARK   10  A    between atoms: C_17  and  C_20
REMARK                            x       y       z     vdW  Elec       q    Type
REMARK                         _______ _______ _______ _____ _____    ______ ____
ROOT
ATOM      1  N   UNL     1       4.030   4.519  17.427  0.00  0.00    +0.000 N 
ATOM      2  C   UNL     1       3.379   3.317  17.857  0.00  0.00    +0.000 C 
ATOM      3  O   UNL     1       3.328   2.359  17.078  0.00  0.00    +0.000 OA
ENDROOT
BRANCH   2   4
ATOM      4  C   UNL     1       2.725   3.096  19.215  0.00  0.00    +0.000 A 
ATOM      5  C   UNL     1       1.388   3.340  19.544  0.00  0.00    +0.000 A 
ATOM      6  C   UNL     1       0.901   3.166  20.832  0.00  0.00    +0.000 A 
ATOM      7  N   UNL     1       1.645   2.715  21.842  0.00  0.00    +0.000 NA
ATOM      8  C   UNL     1       2.932   2.437  21.528  0.00  0.00    +0.000 A 
ATOM      9  C   UNL     1       3.508   2.607  20.272  0.00  0.00    +0.000 A 
ATOM     10  F   UNL     1       4.800   2.303  20.137  0.00  0.00    +0.000 F 
ENDBRANCH   2   4
BRANCH   1  11
ATOM     11  C   UNL     1       4.205   5.806  18.183  0.00  0.00    +0.000 C 
ATOM     12  C   UNL     1       2.941   6.347  18.920  0.00  0.00    +0.000 C 
ATOM     13  C   UNL     1       5.187   5.553  19.363  0.00  0.00    +0.000 C 
ATOM     14  C   UNL     1       4.509   6.963  17.193  0.00  0.00    +0.000 C 
ENDBRANCH   1  11
BRANCH   1  15
ATOM     15  C   UNL     1       4.595   4.481  16.050  0.00  0.00    +0.000 C 
BRANCH  15  16
ATOM     16  C   UNL     1       6.050   4.022  15.926  0.00  0.00    +0.000 C 
ATOM     17  O   UNL     1       6.909   4.288  16.760  0.00  0.00    +0.000 OA
BRANCH  16  18
ATOM     18  O   UNL     1       6.280   3.346  14.767  0.00  0.00    +0.000 OA
BRANCH  18  20
ATOM     19  C   UNL     1       5.939   3.332  12.373  0.00  0.00    +0.000 C 
ATOM     20  C   UNL     1       6.379   4.142  13.576  0.00  0.00    +0.000 C 
ENDBRANCH  18  20
ENDBRANCH  16  18
ENDBRANCH  15  16
ENDBRANCH   1  15
TORSDOF 6
ENDMDL
MODEL 5
REMARK VINA RESULT:      -6.4      2.692      6.279
REMARK  Name = 
REMARK  10 active torsions:
REMARK  status: ('A' for Active; 'I' for Inactive)
REMARK    1  A    between atoms: C_1  and  C_2
REMARK    2  A    between atoms: C_2  and  O_3
REMARK    3  A    between atoms: O_3  and  C_4
REMARK    4  A    between atoms: C_4  and  C_6
REMARK    5  A    between atoms: C_6  and  N_7
REMARK    6  A    between atoms: N_7  and  C_17
REMARK    7  A    between atoms: C_8  and  C_10
REMARK    8  A    between atoms: C_17  and  C_18
REMARK    9  A    between atoms: C_17  and  C_19
REMARK   10  A    between atoms: C_17  and  C_20
REMARK                            x       y       z     vdW  Elec       q    Type
REMARK                         _______ _______ _______ _____ _____    ______ ____
ROOT
ATOM      1  N   UNL     1       2.977   4.280  18.651  0.00  0.00    +0.000 N 
ATOM      2  C   UNL     1       3.830   5.263  18.051  0.00  0.00    +0.000 C 
ATOM      3  O   UNL     1       3.458   6.441  18.037  0.00  0.00    +0.000 OA
ENDROOT
BRANCH   2   4
ATOM      4  C   UNL     1       5.186   4.993  17.410  0.00  0.00    +0.000 A 
ATOM      5  C   UNL     1       5.431   4.744  16.057  0.00  0.00    +0.000 A 
ATOM      6  C   UNL     1       6.700   4.445  15.579  0.00  0.00    +0.000 A 
ATOM      7  N   UNL     1       7.786   4.415  16.352  0.00  0.00    +0.000 NA
ATOM      8  C   UNL     1       7.568   4.695  17.659  0.00  0.00    +0.000 A 
ATOM      9  C   UNL     1       6.328   4.977  18.226  0.00  0.00    +0.000 A 
ATOM     10  F   UNL     1       6.286   5.210  19.538  0.00  0.00    +0.000 F 
ENDBRANCH   2   4
BRANCH   1  11
ATOM     11  C   UNL     1       3.205   2.800  18.775  0.00  0.00    +0.000 C 
ATOM     12  C   UNL     1       2.017   1.968  19.351  0.00  0.00    +0.000 C 
ATOM     13  C   UNL     1       3.359   2.204  17.346  0.00  0.00    +0.000 C 
ATOM     14  C   UNL     1       4.317   2.524  19.824  0.00  0.00    +0.000 C 
ENDBRANCH   1  11
BRANCH   1  15
ATOM     15  C   UNL     1       1.700   4.801  19.213  0.00  0.00    +0.000 C 
BRANCH  15  16
ATOM     16  C   UNL     1       1.750   5.300  20.660  0.00  0.00    +0.000 C 
ATOM     17  O   UNL     1       2.348   4.708  21.552  0.00  0.00    +0.000 OA
BRANCH  16  18
ATOM     18  O   UNL     1       1.008   6.427  20.841  0.00  0.00    +0.000 OA
BRANCH  18  20
ATOM     19  C   UNL     1       0.875   8.792  21.324  0.00  0.00    +0.000 C 
ATOM     20  C   UNL     1       1.710   7.674  20.731  0.00  0.00    +0.000 C 
ENDBRANCH  18  20
ENDBRANCH  16  18
ENDBRANCH  15  16
ENDBRANCH   1  15
TORSDOF 6
ENDMDL
MODEL 6
REMARK VINA RESULT:      -6.3      2.297      3.726
REMARK  Name = 
REMARK  10 active torsions:
REMARK  status: ('A' for Active; 'I' for Inactive)
REMARK    1  A    between atoms: C_1  and  C_2
REMARK    2  A    between atoms: C_2  and  O_3
REMARK    3  A    between atoms: O_3  and  C_4
REMARK    4  A    between atoms: C_4  and  C_6
REMARK    5  A    between atoms: C_6  and  N_7
REMARK    6  A    between atoms: N_7  and  C_17
REMARK    7  A    between atoms: C_8  and  C_10
REMARK    8  A    between atoms: C_17  and  C_18
REMARK    9  A    between atoms: C_17  and  C_19
REMARK   10  A    between atoms: C_17  and  C_20
REMARK                            x       y       z     vdW  Elec       q    Type
REMARK                         _______ _______ _______ _____ _____    ______ ____
ROOT
ATOM      1  N   UNL     1       4.181   4.452  17.439  0.00  0.00    +0.000 N 
ATOM      2  C   UNL     1       3.703   3.206  17.961  0.00  0.00    +0.000 C 
ATOM      3  O   UNL     1       4.048   2.158  17.404  0.00  0.00    +0.000 OA
ENDROOT
BRANCH   2   4
ATOM      4  C   UNL     1       2.786   3.039  19.166  0.00  0.00    +0.000 A 
ATOM      5  C   UNL     1       1.405   3.254  19.196  0.00  0.00    +0.000 A 
ATOM      6  C   UNL     1       0.665   3.136  20.365  0.00  0.00    +0.000 A 
ATOM      7  N   UNL     1       1.193   2.768  21.533  0.00  0.00    +0.000 NA
ATOM      8  C   UNL     1       2.522   2.518  21.508  0.00  0.00    +0.000 A 
ATOM      9  C   UNL     1       3.344   2.637  20.390  0.00  0.00    +0.000 A 
ATOM     10  F   UNL     1       4.641   2.371  20.544  0.00  0.00    +0.000 F 
ENDBRANCH   2   4
BRANCH   1  11
ATOM     11  C   UNL     1       3.892   5.841  17.933  0.00  0.00    +0.000 C 
ATOM     12  C   UNL     1       2.392   6.268  17.944  0.00  0.00    +0.000 C 
ATOM     13  C   UNL     1       4.263   5.914  19.442  0.00  0.00    +0.000 C 
ATOM     14  C   UNL     1       4.508   6.886  16.962  0.00  0.00    +0.000 C 
ENDBRANCH   1  11
BRANCH   1  15
ATOM     15  C   UNL     1       5.072   4.346  16.250  0.00  0.00    +0.000 C 
BRANCH  15  16
ATOM     16  C   UNL     1       6.577   4.420  16.522  0.00  0.00    +0.000 C 
ATOM     17  O   UNL     1       7.409   4.589  15.637  0.00  0.00    +0.000 OA
BRANCH  16  18
ATOM     18  O   UNL     1       6.874   4.217  17.835  0.00  0.00    +0.000 OA
BRANCH  18  20
ATOM     19  C   UNL     1       7.769   6.299  18.675  0.00  0.00    +0.000 C 
ATOM     20  C   UNL     1       8.063   4.854  18.324  0.00  0.00    +0.000 C 
ENDBRANCH  18  20
ENDBRANCH  16  18
ENDBRANCH  15  16
ENDBRANCH   1  15
TORSDOF 6
ENDMDL
MODEL 7
REMARK VINA RESULT:      -6.3      2.802      4.798
REMARK  Name = 
REMARK  10 active torsions:
REMARK  status: ('A' for Active; 'I' for Inactive)
REMARK    1  A    between atoms: C_1  and  C_2
REMARK    2  A    between atoms: C_2  and  O_3
REMARK    3  A    between atoms: O_3  and  C_4
REMARK    4  A    between atoms: C_4  and  C_6
REMARK    5  A    between atoms: C_6  and  N_7
REMARK    6  A    between atoms: N_7  and  C_17
REMARK    7  A    between atoms: C_8  and  C_10
REMARK    8  A    between atoms: C_17  and  C_18
REMARK    9  A    between atoms: C_17  and  C_19
REMARK   10  A    between atoms: C_17  and  C_20
REMARK                            x       y       z     vdW  Elec       q    Type
REMARK                         _______ _______ _______ _____ _____    ______ ____
ROOT
ATOM      1  N   UNL     1       6.312   5.340  17.433  0.00  0.00    +0.000 N 
ATOM      2  C   UNL     1       5.388   5.031  18.484  0.00  0.00    +0.000 C 
ATOM      3  O   UNL     1       5.671   5.366  19.639  0.00  0.00    +0.000 OA
ENDROOT
BRANCH   2   4
ATOM      4  C   UNL     1       4.057   4.309  18.315  0.00  0.00    +0.000 A 
ATOM      5  C   UNL     1       3.829   2.938  18.463  0.00  0.00    +0.000 A 
ATOM      6  C   UNL     1       2.588   2.365  18.224  0.00  0.00    +0.000 A 
ATOM      7  N   UNL     1       1.509   3.070  17.883  0.00  0.00    +0.000 NA
ATOM      8  C   UNL     1       1.706   4.405  17.776  0.00  0.00    +0.000 A 
ATOM      9  C   UNL     1       2.920   5.058  17.970  0.00  0.00    +0.000 A 
ATOM     10  F   UNL     1       2.946   6.380  17.804  0.00  0.00    +0.000 F 
ENDBRANCH   2   4
BRANCH   1  11
ATOM     11  C   UNL     1       6.195   5.027  15.968  0.00  0.00    +0.000 C 
ATOM     12  C   UNL     1       5.642   3.614  15.609  0.00  0.00    +0.000 C 
ATOM     13  C   UNL     1       5.120   5.966  15.348  0.00  0.00    +0.000 C 
ATOM     14  C   UNL     1       7.608   4.983  15.323  0.00  0.00    +0.000 C 
ENDBRANCH   1  11
BRANCH   1  15
ATOM     15  C   UNL     1       7.545   6.057  17.858  0.00  0.00    +0.000 C 
BRANCH  15  16
ATOM     16  C   UNL     1       7.521   7.583  17.732  0.00  0.00    +0.000 C 
ATOM     17  O   UNL     1       6.762   8.180  16.976  0.00  0.00    +0.000 OA
BRANCH  16  18
ATOM     18  O   UNL     1       8.471   8.178  18.504  0.00  0.00    +0.000 OA
BRANCH  18  20
ATOM     19  C   UNL     1       9.306  10.204  19.525  0.00  0.00    +0.000 C 
ATOM     20  C   UNL     1       8.670   9.584  18.296  0.00  0.00    +0.000 C 
ENDBRANCH  18  20
ENDBRANCH  16  18
ENDBRANCH  15  16
ENDBRANCH   1  15
TORSDOF 6
ENDMDL
MODEL 8
REMARK VINA RESULT:      -6.3      2.962      5.859
REMARK  Name = 
REMARK  10 active torsions:
REMARK  status: ('A' for Active; 'I' for Inactive)
REMARK    1  A    between atoms: C_1  and  C_2
REMARK    2  A    between atoms: C_2  and  O_3
REMARK    3  A    between atoms: O_3  and  C_4
REMARK    4  A    between atoms: C_4  and  C_6
REMARK    5  A    between atoms: C_6  and  N_7
REMARK    6  A    between atoms: N_7  and  C_17
REMARK    7  A    between atoms: C_8  and  C_10
REMARK    8  A    between atoms: C_17  and  C_18
REMARK    9  A    between atoms: C_17  and  C_19
REMARK   10  A    between atoms: C_17  and  C_20
REMARK                            x       y       z     vdW  Elec       q    Type
REMARK                         _______ _______ _______ _____ _____    ______ ____
ROOT
ATOM      1  N   UNL     1       3.338   4.947  19.669  0.00  0.00    +0.000 N 
ATOM      2  C   UNL     1       4.437   4.105  19.299  0.00  0.00    +0.000 C 
ATOM      3  O   UNL     1       4.778   3.203  20.071  0.00  0.00    +0.000 OA
ENDROOT
BRANCH   2   4
ATOM      4  C   UNL     1       5.248   4.215  18.014  0.00  0.00    +0.000 A 
ATOM      5  C   UNL     1       4.847   3.803  16.740  0.00  0.00    +0.000 A 
ATOM      6  C   UNL     1       5.687   3.888  15.638  0.00  0.00    +0.000 A 
ATOM      7  N   UNL     1       6.915   4.405  15.691  0.00  0.00    +0.000 NA
ATOM      8  C   UNL     1       7.300   4.846  16.911  0.00  0.00    +0.000 A 
ATOM      9  C   UNL     1       6.535   4.774  18.072  0.00  0.00    +0.000 A 
ATOM     10  F   UNL     1       7.074   5.236  19.200  0.00  0.00    +0.000 F 
ENDBRANCH   2   4
BRANCH   1  11
ATOM     11  C   UNL     1       2.754   6.105  18.910  0.00  0.00    +0.000 C 
ATOM     12  C   UNL     1       3.768   6.995  18.127  0.00  0.00    +0.000 C 
ATOM     13  C   UNL     1       1.861   5.543  17.765  0.00  0.00    +0.000 C 
ATOM     14  C   UNL     1       2.138   7.130  19.901  0.00  0.00    +0.000 C 
ENDBRANCH   1  11
BRANCH   1  15
ATOM     15  C   UNL     1       2.705   4.632  20.980  0.00  0.00    +0.000 C 
BRANCH  15  16
ATOM     16  C   UNL     1       1.737   3.446  20.997  0.00  0.00    +0.000 C 
ATOM     17  O   UNL     1       1.799   2.544  21.826  0.00  0.00    +0.000 OA
BRANCH  16  18
ATOM     18  O   UNL     1       0.855   3.486  19.961  0.00  0.00    +0.000 OA
BRANCH  18  20
ATOM     19  C   UNL     1       1.859   2.001  18.339  0.00  0.00    +0.000 C 
ATOM     20  C   UNL     1       0.667   2.260  19.238  0.00  0.00    +0.000 C 
ENDBRANCH  18  20
ENDBRANCH  16  18
ENDBRANCH  15  16
ENDBRANCH   1  15
TORSDOF 6
ENDMDL
MODEL 9
REMARK VINA RESULT:      -6.3      2.066      2.927
REMARK  Name = 
REMARK  10 active torsions:
REMARK  status: ('A' for Active; 'I' for Inactive)
REMARK    1  A    between atoms: C_1  and  C_2
REMARK    2  A    between atoms: C_2  and  O_3
REMARK    3  A    between atoms: O_3  and  C_4
REMARK    4  A    between atoms: C_4  and  C_6
REMARK    5  A    between atoms: C_6  and  N_7
REMARK    6  A    between atoms: N_7  and  C_17
REMARK    7  A    between atoms: C_8  and  C_10
REMARK    8  A    between atoms: C_17  and  C_18
REMARK    9  A    between atoms: C_17  and  C_19
REMARK   10  A    between atoms: C_17  and  C_20
REMARK                            x       y       z     vdW  Elec       q    Type
REMARK                         _______ _______ _______ _____ _____    ______ ____
ROOT
ATOM      1  N   UNL     1       4.372   4.380  17.393  0.00  0.00    +0.000 N 
ATOM      2  C   UNL     1       3.830   3.167  17.931  0.00  0.00    +0.000 C 
ATOM      3  O   UNL     1       4.073   2.102  17.354  0.00  0.00    +0.000 OA
ENDROOT
BRANCH   2   4
ATOM      4  C   UNL     1       2.961   3.056  19.178  0.00  0.00    +0.000 A 
ATOM      5  C   UNL     1       3.400   2.780  20.476  0.00  0.00    +0.000 A 
ATOM      6  C   UNL     1       2.519   2.637  21.539  0.00  0.00    +0.000 A 
ATOM      7  N   UNL     1       1.200   2.794  21.423  0.00  0.00    +0.000 NA
ATOM      8  C   UNL     1       0.765   3.102  20.179  0.00  0.00    +0.000 A 
ATOM      9  C   UNL     1       1.574   3.236  19.054  0.00  0.00    +0.000 A 
ATOM     10  F   UNL     1       0.981   3.523  17.895  0.00  0.00    +0.000 F 
ENDBRANCH   2   4
BRANCH   1  11
ATOM     11  C   UNL     1       4.206   5.782  17.907  0.00  0.00    +0.000 C 
ATOM     12  C   UNL     1       2.740   6.256  18.150  0.00  0.00    +0.000 C 
ATOM     13  C   UNL     1       4.815   5.858  19.337  0.00  0.00    +0.000 C 
ATOM     14  C   UNL     1       4.690   6.797  16.835  0.00  0.00    +0.000 C 
ENDBRANCH   1  11
BRANCH   1  15
ATOM     15  C   UNL     1       5.196   4.220  16.164  0.00  0.00    +0.000 C 
BRANCH  15  16
ATOM     16  C   UNL     1       6.712   4.331  16.345  0.00  0.00    +0.000 C 
ATOM     17  O   UNL     1       7.260   4.298  17.442  0.00  0.00    +0.000 OA
BRANCH  16  18
ATOM     18  O   UNL     1       7.358   4.531  15.163  0.00  0.00    +0.000 OA
BRANCH  18  20
ATOM     19  C   UNL     1       6.564   3.795  13.001  0.00  0.00    +0.000 C 
ATOM     20  C   UNL     1       6.538   4.896  14.043  0.00  0.00    +0.000 C 
ENDBRANCH  18  20
ENDBRANCH  16  18
ENDBRANCH  15  16
ENDBRANCH   1  15
TORSDOF 6
ENDMDL
