MODEL 1
REMARK VINA RESULT:      -7.7      0.000      0.000
REMARK  Name = 
REMARK  5 active torsions:
REMARK  status: ('A' for Active; 'I' for Inactive)
REMARK    1  A    between atoms: C_1  and  O_2
REMARK    2  A    between atoms: O_2  and  C_3
REMARK    3  A    between atoms: C_6  and  C_7
REMARK    4  A    between atoms: C_9  and  C_10
REMARK    5  A    between atoms: C_19  and  C_20
REMARK                            x       y       z     vdW  Elec       q    Type
REMARK                         _______ _______ _______ _____ _____    ______ ____
ROOT
ATOM      1  C   UNL     1       4.642   4.892  18.169  0.00  0.00    +0.000 C 
ATOM      2  C   UNL     1       4.391   6.367  18.450  0.00  0.00    +0.000 C 
ATOM      3  C   UNL     1       2.910   6.349  18.723  0.00  0.00    +0.000 C 
ATOM      4  N   UNL     1       2.333   5.192  18.603  0.00  0.00    +0.000 NA
ATOM      5  N   UNL     1       3.311   4.293  18.260  0.00  0.00    +0.000 N 
ATOM      6  C   UNL     1       3.085   2.932  18.162  0.00  0.00    +0.000 C 
ATOM      7  C   UNL     1       1.666   2.455  18.343  0.00  0.00    +0.000 C 
ATOM      8  O   UNL     1       3.980   2.119  17.918  0.00  0.00    +0.000 OA
ENDROOT
BRANCH   3   9
ATOM      9  C   UNL     1       2.188   7.582  19.119  0.00  0.00    +0.000 A 
ATOM     10  C   UNL     1       1.721   7.754  20.433  0.00  0.00    +0.000 A 
ATOM     11  C   UNL     1       1.010   8.905  20.773  0.00  0.00    +0.000 A 
ATOM     12  C   UNL     1       0.767   9.887  19.813  0.00  0.00    +0.000 A 
ATOM     13 CL   UNL     1      -0.119  11.296  20.241  0.00  0.00    +0.000 Cl
ATOM     14  C   UNL     1       1.237   9.729  18.509  0.00  0.00    +0.000 A 
ATOM     15  C   UNL     1       1.947   8.577  18.161  0.00  0.00    +0.000 A 
ENDBRANCH   3   9
BRANCH   1  19
ATOM     16  C   UNL     1       6.599   4.371  14.344  0.00  0.00    +0.000 A 
ATOM     17  C   UNL     1       5.205   4.407  14.422  0.00  0.00    +0.000 A 
ATOM     18  C   UNL     1       4.577   4.577  15.661  0.00  0.00    +0.000 A 
ATOM     19  C   UNL     1       5.335   4.698  16.836  0.00  0.00    +0.000 A 
ATOM     20  C   UNL     1       6.730   4.622  16.743  0.00  0.00    +0.000 A 
ATOM     21  C   UNL     1       7.354   4.471  15.505  0.00  0.00    +0.000 A 
BRANCH  16  23
ATOM     22  C   UNL     1       6.341   3.395  12.214  0.00  0.00    +0.000 C 
ATOM     23  O   UNL     1       7.119   4.203  13.090  0.00  0.00    +0.000 OA
ENDBRANCH  16  23
ENDBRANCH   1  19
TORSDOF 3
ENDMDL
MODEL 2
REMARK VINA RESULT:      -7.7      0.577      1.163
REMARK  Name = 
REMARK  5 active torsions:
REMARK  status: ('A' for Active; 'I' for Inactive)
REMARK    1  A    between atoms: C_1  and  O_2
REMARK    2  A    between atoms: O_2  and  C_3
REMARK    3  A    between atoms: C_6  and  C_7
REMARK    4  A    between atoms: C_9  and  C_10
REMARK    5  A    between atoms: C_19  and  C_20
REMARK                            x       y       z     vdW  Elec       q    Type
REMARK                         _______ _______ _______ _____ _____    ______ ____
ROOT
ATOM      1  C   UNL     1       4.562   4.882  18.737  0.00  0.00    +0.000 C 
ATOM      2  C   UNL     1       4.254   6.355  18.963  0.00  0.00    +0.000 C 
ATOM      3  C   UNL     1       2.776   6.289  19.246  0.00  0.00    +0.000 C 
ATOM      4  N   UNL     1       2.245   5.106  19.173  0.00  0.00    +0.000 NA
ATOM      5  N   UNL     1       3.256   4.235  18.858  0.00  0.00    +0.000 N 
ATOM      6  C   UNL     1       3.085   2.863  18.814  0.00  0.00    +0.000 C 
ATOM      7  C   UNL     1       1.687   2.337  19.022  0.00  0.00    +0.000 C 
ATOM      8  O   UNL     1       4.009   2.077  18.596  0.00  0.00    +0.000 OA
ENDROOT
BRANCH   3   9
ATOM      9  C   UNL     1       2.007   7.507  19.599  0.00  0.00    +0.000 A 
ATOM     10  C   UNL     1       1.825   8.540  18.665  0.00  0.00    +0.000 A 
ATOM     11  C   UNL     1       1.130   9.693  19.031  0.00  0.00    +0.000 A 
ATOM     12  C   UNL     1       0.613   9.820  20.320  0.00  0.00    +0.000 A 
ATOM     13 CL   UNL     1      -0.231  11.250  20.762  0.00  0.00    +0.000 Cl
ATOM     14  C   UNL     1       0.780   8.794  21.250  0.00  0.00    +0.000 A 
ATOM     15  C   UNL     1       1.478   7.637  20.890  0.00  0.00    +0.000 A 
ENDBRANCH   3   9
BRANCH   1  19
ATOM     16  C   UNL     1       6.523   4.294  14.923  0.00  0.00    +0.000 A 
ATOM     17  C   UNL     1       5.131   4.374  14.994  0.00  0.00    +0.000 A 
ATOM     18  C   UNL     1       4.501   4.565  16.229  0.00  0.00    +0.000 A 
ATOM     19  C   UNL     1       5.256   4.664  17.408  0.00  0.00    +0.000 A 
ATOM     20  C   UNL     1       6.649   4.546  17.323  0.00  0.00    +0.000 A 
ATOM     21  C   UNL     1       7.274   4.373  16.089  0.00  0.00    +0.000 A 
BRANCH  16  23
ATOM     22  C   UNL     1       6.145   3.562  12.716  0.00  0.00    +0.000 C 
ATOM     23  O   UNL     1       7.045   4.109  13.673  0.00  0.00    +0.000 OA
ENDBRANCH  16  23
ENDBRANCH   1  19
TORSDOF 3
ENDMDL
MODEL 3
REMARK VINA RESULT:      -7.6      0.972      1.398
REMARK  Name = 
REMARK  5 active torsions:
REMARK  status: ('A' for Active; 'I' for Inactive)
REMARK    1  A    between atoms: C_1  and  O_2
REMARK    2  A    between atoms: O_2  and  C_3
REMARK    3  A    between atoms: C_6  and  C_7
REMARK    4  A    between atoms: C_9  and  C_10
REMARK    5  A    between atoms: C_19  and  C_20
REMARK                            x       y       z     vdW  Elec       q    Type
REMARK                         _______ _______ _______ _____ _____    ______ ____
ROOT
ATOM      1  C   UNL     1       5.078   5.713  18.315  0.00  0.00    +0.000 C 
ATOM      2  C   UNL     1       4.422   7.079  18.164  0.00  0.00    +0.000 C 
ATOM      3  C   UNL     1       3.096   6.825  18.832  0.00  0.00    +0.000 C 
ATOM      4  N   UNL     1       2.907   5.612  19.258  0.00  0.00    +0.000 NA
ATOM      5  N   UNL     1       4.045   4.905  18.963  0.00  0.00    +0.000 N 
ATOM      6  C   UNL     1       4.253   3.602  19.377  0.00  0.00    +0.000 C 
ATOM      7  C   UNL     1       3.116   2.917  20.092  0.00  0.00    +0.000 C 
ATOM      8  O   UNL     1       5.303   2.990  19.168  0.00  0.00    +0.000 OA
ENDROOT
BRANCH   3   9
ATOM      9  C   UNL     1       2.099   7.909  18.994  0.00  0.00    +0.000 A 
ATOM     10  C   UNL     1       1.688   8.682  17.895  0.00  0.00    +0.000 A 
ATOM     11  C   UNL     1       0.778   9.723  18.079  0.00  0.00    +0.000 A 
ATOM     12  C   UNL     1       0.270   9.994  19.349  0.00  0.00    +0.000 A 
ATOM     13 CL   UNL     1      -0.843  11.285  19.564  0.00  0.00    +0.000 Cl
ATOM     14  C   UNL     1       0.664   9.224  20.444  0.00  0.00    +0.000 A 
ATOM     15  C   UNL     1       1.579   8.182  20.268  0.00  0.00    +0.000 A 
ENDBRANCH   3   9
BRANCH   1  19
ATOM     16  C   UNL     1       6.404   4.220  14.474  0.00  0.00    +0.000 A 
ATOM     17  C   UNL     1       5.050   4.183  14.814  0.00  0.00    +0.000 A 
ATOM     18  C   UNL     1       4.626   4.668  16.057  0.00  0.00    +0.000 A 
ATOM     19  C   UNL     1       5.553   5.182  16.978  0.00  0.00    +0.000 A 
ATOM     20  C   UNL     1       6.910   5.177  16.634  0.00  0.00    +0.000 A 
ATOM     21  C   UNL     1       7.328   4.709  15.389  0.00  0.00    +0.000 A 
BRANCH  16  23
ATOM     22  C   UNL     1       5.609   3.336  12.440  0.00  0.00    +0.000 C 
ATOM     23  O   UNL     1       6.720   3.725  13.239  0.00  0.00    +0.000 OA
ENDBRANCH  16  23
ENDBRANCH   1  19
TORSDOF 3
ENDMDL
MODEL 4
REMARK VINA RESULT:      -7.6      1.020      1.729
REMARK  Name = 
REMARK  5 active torsions:
REMARK  status: ('A' for Active; 'I' for Inactive)
REMARK    1  A    between atoms: C_1  and  O_2
REMARK    2  A    between atoms: O_2  and  C_3
REMARK    3  A    between atoms: C_6  and  C_7
REMARK    4  A    between atoms: C_9  and  C_10
REMARK    5  A    between atoms: C_19  and  C_20
REMARK                            x       y       z     vdW  Elec       q    Type
REMARK                         _______ _______ _______ _____ _____    ______ ____
ROOT
ATOM      1  C   UNL     1       5.092   5.795  18.238  0.00  0.00    +0.000 C 
ATOM      2  C   UNL     1       4.403   7.144  18.086  0.00  0.00    +0.000 C 
ATOM      3  C   UNL     1       3.112   6.881  18.817  0.00  0.00    +0.000 C 
ATOM      4  N   UNL     1       2.966   5.675  19.277  0.00  0.00    +0.000 NA
ATOM      5  N   UNL     1       4.103   4.983  18.948  0.00  0.00    +0.000 N 
ATOM      6  C   UNL     1       4.354   3.693  19.381  0.00  0.00    +0.000 C 
ATOM      7  C   UNL     1       3.262   3.004  20.160  0.00  0.00    +0.000 C 
ATOM      8  O   UNL     1       5.406   3.097  19.140  0.00  0.00    +0.000 OA
ENDROOT
BRANCH   3   9
ATOM      9  C   UNL     1       2.102   7.950  18.999  0.00  0.00    +0.000 A 
ATOM     10  C   UNL     1       1.699   8.752  17.918  0.00  0.00    +0.000 A 
ATOM     11  C   UNL     1       0.775   9.778  18.121  0.00  0.00    +0.000 A 
ATOM     12  C   UNL     1       0.248  10.005  19.392  0.00  0.00    +0.000 A 
ATOM     13 CL   UNL     1      -0.881  11.279  19.631  0.00  0.00    +0.000 Cl
ATOM     14  C   UNL     1       0.635   9.206  20.468  0.00  0.00    +0.000 A 
ATOM     15  C   UNL     1       1.563   8.178  20.273  0.00  0.00    +0.000 A 
ENDBRANCH   3   9
BRANCH   1  19
ATOM     16  C   UNL     1       6.342   4.192  14.417  0.00  0.00    +0.000 A 
ATOM     17  C   UNL     1       7.266   4.825  15.251  0.00  0.00    +0.000 A 
ATOM     18  C   UNL     1       6.858   5.341  16.486  0.00  0.00    +0.000 A 
ATOM     19  C   UNL     1       5.518   5.242  16.894  0.00  0.00    +0.000 A 
ATOM     20  C   UNL     1       4.599   4.636  16.029  0.00  0.00    +0.000 A 
ATOM     21  C   UNL     1       5.012   4.108  14.807  0.00  0.00    +0.000 A 
BRANCH  16  23
ATOM     22  C   UNL     1       5.858   3.301  12.290  0.00  0.00    +0.000 C 
ATOM     23  O   UNL     1       6.837   3.720  13.233  0.00  0.00    +0.000 OA
ENDBRANCH  16  23
ENDBRANCH   1  19
TORSDOF 3
ENDMDL
MODEL 5
REMARK VINA RESULT:      -7.5      0.963      1.434
REMARK  Name = 
REMARK  5 active torsions:
REMARK  status: ('A' for Active; 'I' for Inactive)
REMARK    1  A    between atoms: C_1  and  O_2
REMARK    2  A    between atoms: O_2  and  C_3
REMARK    3  A    between atoms: C_6  and  C_7
REMARK    4  A    between atoms: C_9  and  C_10
REMARK    5  A    between atoms: C_19  and  C_20
REMARK                            x       y       z     vdW  Elec       q    Type
REMARK                         _______ _______ _______ _____ _____    ______ ____
ROOT
ATOM      1  C   UNL     1       4.503   5.095  19.138  0.00  0.00    +0.000 C 
ATOM      2  C   UNL     1       4.105   6.560  19.258  0.00  0.00    +0.000 C 
ATOM      3  C   UNL     1       2.654   6.422  19.637  0.00  0.00    +0.000 C 
ATOM      4  N   UNL     1       2.204   5.205  19.698  0.00  0.00    +0.000 NA
ATOM      5  N   UNL     1       3.255   4.377  19.395  0.00  0.00    +0.000 N 
ATOM      6  C   UNL     1       3.178   2.998  19.478  0.00  0.00    +0.000 C 
ATOM      7  C   UNL     1       1.834   2.404  19.816  0.00  0.00    +0.000 C 
ATOM      8  O   UNL     1       4.141   2.259  19.269  0.00  0.00    +0.000 OA
ENDROOT
BRANCH   3   9
ATOM      9  C   UNL     1       1.823   7.614  19.934  0.00  0.00    +0.000 A 
ATOM     10  C   UNL     1       1.158   7.740  21.164  0.00  0.00    +0.000 A 
ATOM     11  C   UNL     1       0.350   8.852  21.407  0.00  0.00    +0.000 A 
ATOM     12  C   UNL     1       0.206   9.839  20.432  0.00  0.00    +0.000 A 
ATOM     13 CL   UNL     1      -0.800  11.198  20.738  0.00  0.00    +0.000 Cl
ATOM     14  C   UNL     1       0.873   9.726  19.212  0.00  0.00    +0.000 A 
ATOM     15  C   UNL     1       1.681   8.613  18.961  0.00  0.00    +0.000 A 
ENDBRANCH   3   9
BRANCH   1  19
ATOM     16  C   UNL     1       6.327   4.237  15.308  0.00  0.00    +0.000 A 
ATOM     17  C   UNL     1       7.122   4.405  16.444  0.00  0.00    +0.000 A 
ATOM     18  C   UNL     1       6.528   4.682  17.680  0.00  0.00    +0.000 A 
ATOM     19  C   UNL     1       5.134   4.806  17.791  0.00  0.00    +0.000 A 
ATOM     20  C   UNL     1       4.356   4.670  16.635  0.00  0.00    +0.000 A 
ATOM     21  C   UNL     1       4.949   4.378  15.408  0.00  0.00    +0.000 A 
BRANCH  16  23
ATOM     22  C   UNL     1       6.178   3.658  13.028  0.00  0.00    +0.000 C 
ATOM     23  O   UNL     1       7.000   3.968  14.148  0.00  0.00    +0.000 OA
ENDBRANCH  16  23
ENDBRANCH   1  19
TORSDOF 3
ENDMDL
MODEL 6
REMARK VINA RESULT:      -7.5      0.914      1.724
REMARK  Name = 
REMARK  5 active torsions:
REMARK  status: ('A' for Active; 'I' for Inactive)
REMARK    1  A    between atoms: C_1  and  O_2
REMARK    2  A    between atoms: O_2  and  C_3
REMARK    3  A    between atoms: C_6  and  C_7
REMARK    4  A    between atoms: C_9  and  C_10
REMARK    5  A    between atoms: C_19  and  C_20
REMARK                            x       y       z     vdW  Elec       q    Type
REMARK                         _______ _______ _______ _____ _____    ______ ____
ROOT
ATOM      1  C   UNL     1       4.460   5.065  19.096  0.00  0.00    +0.000 C 
ATOM      2  C   UNL     1       4.091   6.536  19.238  0.00  0.00    +0.000 C 
ATOM      3  C   UNL     1       2.630   6.424  19.585  0.00  0.00    +0.000 C 
ATOM      4  N   UNL     1       2.152   5.216  19.611  0.00  0.00    +0.000 NA
ATOM      5  N   UNL     1       3.190   4.371  19.312  0.00  0.00    +0.000 N 
ATOM      6  C   UNL     1       3.081   2.993  19.365  0.00  0.00    +0.000 C 
ATOM      7  C   UNL     1       1.718   2.421  19.663  0.00  0.00    +0.000 C 
ATOM      8  O   UNL     1       4.033   2.236  19.160  0.00  0.00    +0.000 OA
ENDROOT
BRANCH   3   9
ATOM      9  C   UNL     1       1.819   7.627  19.889  0.00  0.00    +0.000 A 
ATOM     10  C   UNL     1       1.654   8.644  18.934  0.00  0.00    +0.000 A 
ATOM     11  C   UNL     1       0.918   9.786  19.256  0.00  0.00    +0.000 A 
ATOM     12  C   UNL     1       0.344   9.916  20.520  0.00  0.00    +0.000 A 
ATOM     13 CL   UNL     1      -0.550  11.331  20.907  0.00  0.00    +0.000 Cl
ATOM     14  C   UNL     1       0.494   8.905  21.469  0.00  0.00    +0.000 A 
ATOM     15  C   UNL     1       1.232   7.760  21.155  0.00  0.00    +0.000 A 
ENDBRANCH   3   9
BRANCH   1  19
ATOM     16  C   UNL     1       6.344   4.245  15.286  0.00  0.00    +0.000 A 
ATOM     17  C   UNL     1       7.121   4.405  16.436  0.00  0.00    +0.000 A 
ATOM     18  C   UNL     1       6.508   4.670  17.665  0.00  0.00    +0.000 A 
ATOM     19  C   UNL     1       5.112   4.790  17.756  0.00  0.00    +0.000 A 
ATOM     20  C   UNL     1       4.352   4.662  16.587  0.00  0.00    +0.000 A 
ATOM     21  C   UNL     1       4.964   4.382  15.367  0.00  0.00    +0.000 A 
BRANCH  16  23
ATOM     22  C   UNL     1       6.231   3.686  13.000  0.00  0.00    +0.000 C 
ATOM     23  O   UNL     1       7.035   3.988  14.134  0.00  0.00    +0.000 OA
ENDBRANCH  16  23
ENDBRANCH   1  19
TORSDOF 3
ENDMDL
MODEL 7
REMARK VINA RESULT:      -7.0      5.058      8.525
REMARK  Name = 
REMARK  5 active torsions:
REMARK  status: ('A' for Active; 'I' for Inactive)
REMARK    1  A    between atoms: C_1  and  O_2
REMARK    2  A    between atoms: O_2  and  C_3
REMARK    3  A    between atoms: C_6  and  C_7
REMARK    4  A    between atoms: C_9  and  C_10
REMARK    5  A    between atoms: C_19  and  C_20
REMARK                            x       y       z     vdW  Elec       q    Type
REMARK                         _______ _______ _______ _____ _____    ______ ____
ROOT
ATOM      1  C   UNL     1       0.327  10.303  18.913  0.00  0.00    +0.000 C 
ATOM      2  C   UNL     1       1.141   9.491  17.916  0.00  0.00    +0.000 C 
ATOM      3  C   UNL     1       1.748   8.458  18.828  0.00  0.00    +0.000 C 
ATOM      4  N   UNL     1       1.458   8.585  20.088  0.00  0.00    +0.000 NA
ATOM      5  N   UNL     1       0.631   9.673  20.198  0.00  0.00    +0.000 N 
ATOM      6  C   UNL     1       0.022  10.042  21.385  0.00  0.00    +0.000 C 
ATOM      7  C   UNL     1       0.387   9.256  22.619  0.00  0.00    +0.000 C 
ATOM      8  O   UNL     1      -0.773  10.980  21.468  0.00  0.00    +0.000 OA
ENDROOT
BRANCH   3   9
ATOM      9  C   UNL     1       2.601   7.370  18.294  0.00  0.00    +0.000 A 
ATOM     10  C   UNL     1       3.702   7.655  17.471  0.00  0.00    +0.000 A 
ATOM     11  C   UNL     1       4.469   6.613  16.948  0.00  0.00    +0.000 A 
ATOM     12  C   UNL     1       4.146   5.289  17.245  0.00  0.00    +0.000 A 
ATOM     13 CL   UNL     1       5.090   4.013  16.587  0.00  0.00    +0.000 Cl
ATOM     14  C   UNL     1       3.060   4.997  18.072  0.00  0.00    +0.000 A 
ATOM     15  C   UNL     1       2.287   6.037  18.596  0.00  0.00    +0.000 A 
ENDBRANCH   3   9
BRANCH   1  19
ATOM     16  C   UNL     1       1.279  14.521  18.714  0.00  0.00    +0.000 A 
ATOM     17  C   UNL     1      -0.042  14.090  18.575  0.00  0.00    +0.000 A 
ATOM     18  C   UNL     1      -0.346  12.726  18.640  0.00  0.00    +0.000 A 
ATOM     19  C   UNL     1       0.671  11.776  18.833  0.00  0.00    +0.000 A 
ATOM     20  C   UNL     1       1.994  12.223  18.934  0.00  0.00    +0.000 A 
ATOM     21  C   UNL     1       2.291  13.584  18.886  0.00  0.00    +0.000 A 
BRANCH  16  23
ATOM     22  C   UNL     1       2.700  16.274  18.037  0.00  0.00    +0.000 C 
ATOM     23  O   UNL     1       1.475  15.872  18.637  0.00  0.00    +0.000 OA
ENDBRANCH  16  23
ENDBRANCH   1  19
TORSDOF 3
ENDMDL
MODEL 8
REMARK VINA RESULT:      -7.0      5.023      8.496
REMARK  Name = 
REMARK  5 active torsions:
REMARK  status: ('A' for Active; 'I' for Inactive)
REMARK    1  A    between atoms: C_1  and  O_2
REMARK    2  A    between atoms: O_2  and  C_3
REMARK    3  A    between atoms: C_6  and  C_7
REMARK    4  A    between atoms: C_9  and  C_10
REMARK    5  A    between atoms: C_19  and  C_20
REMARK                            x       y       z     vdW  Elec       q    Type
REMARK                         _______ _______ _______ _____ _____    ______ ____
ROOT
ATOM      1  C   UNL     1       0.298  10.277  18.970  0.00  0.00    +0.000 C 
ATOM      2  C   UNL     1       1.074   9.472  17.937  0.00  0.00    +0.000 C 
ATOM      3  C   UNL     1       1.734   8.448  18.822  0.00  0.00    +0.000 C 
ATOM      4  N   UNL     1       1.503   8.575  20.094  0.00  0.00    +0.000 NA
ATOM      5  N   UNL     1       0.670   9.654  20.241  0.00  0.00    +0.000 N 
ATOM      6  C   UNL     1       0.114  10.020  21.454  0.00  0.00    +0.000 C 
ATOM      7  C   UNL     1       0.546   9.241  22.671  0.00  0.00    +0.000 C 
ATOM      8  O   UNL     1      -0.686  10.950  21.573  0.00  0.00    +0.000 OA
ENDROOT
BRANCH   3   9
ATOM      9  C   UNL     1       2.573   7.367  18.251  0.00  0.00    +0.000 A 
ATOM     10  C   UNL     1       2.268   6.016  18.488  0.00  0.00    +0.000 A 
ATOM     11  C   UNL     1       3.093   5.016  17.972  0.00  0.00    +0.000 A 
ATOM     12  C   UNL     1       4.216   5.355  17.218  0.00  0.00    +0.000 A 
ATOM     13 CL   UNL     1       5.231   4.115  16.597  0.00  0.00    +0.000 Cl
ATOM     14  C   UNL     1       4.519   6.694  16.968  0.00  0.00    +0.000 A 
ATOM     15  C   UNL     1       3.698   7.701  17.484  0.00  0.00    +0.000 A 
ENDBRANCH   3   9
BRANCH   1  19
ATOM     16  C   UNL     1       1.252  14.488  18.653  0.00  0.00    +0.000 A 
ATOM     17  C   UNL     1       2.268  13.548  18.846  0.00  0.00    +0.000 A 
ATOM     18  C   UNL     1       1.955  12.188  18.947  0.00  0.00    +0.000 A 
ATOM     19  C   UNL     1       0.622  11.754  18.871  0.00  0.00    +0.000 A 
ATOM     20  C   UNL     1      -0.386  12.713  18.714  0.00  0.00    +0.000 A 
ATOM     21  C   UNL     1      -0.070  14.066  18.596  0.00  0.00    +0.000 A 
BRANCH  16  23
ATOM     22  C   UNL     1       2.941  15.989  17.982  0.00  0.00    +0.000 C 
ATOM     23  O   UNL     1       1.658  15.790  18.566  0.00  0.00    +0.000 OA
ENDBRANCH  16  23
ENDBRANCH   1  19
TORSDOF 3
ENDMDL
MODEL 9
REMARK VINA RESULT:      -7.0      4.985      8.490
REMARK  Name = 
REMARK  5 active torsions:
REMARK  status: ('A' for Active; 'I' for Inactive)
REMARK    1  A    between atoms: C_1  and  O_2
REMARK    2  A    between atoms: O_2  and  C_3
REMARK    3  A    between atoms: C_6  and  C_7
REMARK    4  A    between atoms: C_9  and  C_10
REMARK    5  A    between atoms: C_19  and  C_20
REMARK                            x       y       z     vdW  Elec       q    Type
REMARK                         _______ _______ _______ _____ _____    ______ ____
ROOT
ATOM      1  C   UNL     1       0.372  10.190  18.910  0.00  0.00    +0.000 C 
ATOM      2  C   UNL     1       1.164   9.387  17.888  0.00  0.00    +0.000 C 
ATOM      3  C   UNL     1       1.822   8.370  18.784  0.00  0.00    +0.000 C 
ATOM      4  N   UNL     1       1.576   8.500  20.052  0.00  0.00    +0.000 NA
ATOM      5  N   UNL     1       0.734   9.574  20.187  0.00  0.00    +0.000 N 
ATOM      6  C   UNL     1       0.162   9.939  21.392  0.00  0.00    +0.000 C 
ATOM      7  C   UNL     1       0.586   9.168  22.617  0.00  0.00    +0.000 C 
ATOM      8  O   UNL     1      -0.646  10.864  21.499  0.00  0.00    +0.000 OA
ENDROOT
BRANCH   3   9
ATOM      9  C   UNL     1       2.675   7.293  18.225  0.00  0.00    +0.000 A 
ATOM     10  C   UNL     1       3.826   7.599  17.481  0.00  0.00    +0.000 A 
ATOM     11  C   UNL     1       4.593   6.570  16.933  0.00  0.00    +0.000 A 
ATOM     12  C   UNL     1       4.220   5.240  17.126  0.00  0.00    +0.000 A 
ATOM     13 CL   UNL     1       5.166   3.982  16.436  0.00  0.00    +0.000 Cl
ATOM     14  C   UNL     1       3.084   4.928  17.873  0.00  0.00    +0.000 A 
ATOM     15  C   UNL     1       2.310   5.954  18.423  0.00  0.00    +0.000 A 
ENDBRANCH   3   9
BRANCH   1  19
ATOM     16  C   UNL     1       1.297  14.406  18.587  0.00  0.00    +0.000 A 
ATOM     17  C   UNL     1       2.324  13.467  18.705  0.00  0.00    +0.000 A 
ATOM     18  C   UNL     1       2.021  12.105  18.809  0.00  0.00    +0.000 A 
ATOM     19  C   UNL     1       0.686  11.669  18.809  0.00  0.00    +0.000 A 
ATOM     20  C   UNL     1      -0.331  12.627  18.726  0.00  0.00    +0.000 A 
ATOM     21  C   UNL     1      -0.025  13.981  18.606  0.00  0.00    +0.000 A 
BRANCH  16  23
ATOM     22  C   UNL     1       3.102  15.918  18.480  0.00  0.00    +0.000 C 
ATOM     23  O   UNL     1       1.694  15.711  18.491  0.00  0.00    +0.000 OA
ENDBRANCH  16  23
ENDBRANCH   1  19
TORSDOF 3
ENDMDL
