MODEL 1
REMARK VINA RESULT:      -7.3      0.000      0.000
REMARK  Name = 
REMARK  5 active torsions:
REMARK  status: ('A' for Active; 'I' for Inactive)
REMARK    1  A    between atoms: C_2  and  O_3
REMARK    2  A    between atoms: C_2  and  C_4
REMARK    3  A    between atoms: C_4  and  N_5
REMARK    4  A    between atoms: C_10  and  C_11
REMARK    5  A    between atoms: C_14  and  O_15
REMARK                            x       y       z     vdW  Elec       q    Type
REMARK                         _______ _______ _______ _____ _____    ______ ____
ROOT
ATOM      1  N   UNL     1       1.955   4.052  19.475  0.00  0.00    +0.000 N 
ATOM      2  C   UNL     1       2.376   5.356  19.431  0.00  0.00    +0.000 C 
ATOM      3  O   UNL     1       2.017   6.267  20.161  0.00  0.00    +0.000 OA
ATOM      4  S   UNL     1       3.557   5.566  18.157  0.00  0.00    +0.000 S 
ATOM      5  C   UNL     1       3.510   3.904  17.725  0.00  0.00    +0.000 C 
ATOM      6  C   UNL     1       4.262   3.275  16.811  0.00  0.00    +0.000 C 
ATOM      7  C   UNL     1       2.493   3.200  18.547  0.00  0.00    +0.000 C 
ATOM      8  O   UNL     1       2.116   2.050  18.370  0.00  0.00    +0.000 OA
ENDROOT
BRANCH   6   9
ATOM      9  C   UNL     1       5.330   3.910  16.034  0.00  0.00    +0.000 A 
ATOM     10  C   UNL     1       6.205   4.823  16.631  0.00  0.00    +0.000 A 
ATOM     11  C   UNL     1       7.209   5.435  15.874  0.00  0.00    +0.000 A 
ATOM     12  C   UNL     1       7.342   5.128  14.520  0.00  0.00    +0.000 A 
ATOM     13  C   UNL     1       6.482   4.204  13.921  0.00  0.00    +0.000 A 
ATOM     14 CL   UNL     1       6.619   3.794  12.251  0.00  0.00    +0.000 Cl
ATOM     15  C   UNL     1       5.477   3.595  14.678  0.00  0.00    +0.000 A 
BRANCH  12  16
ATOM     16  O   UNL     1       8.316   5.736  13.777  0.00  0.00    +0.000 OA
ATOM     17  H   UNL     1       9.025   6.046  14.362  0.00  0.00    +0.000 HD
ENDBRANCH  12  16
ENDBRANCH   6   9
BRANCH   1  18
ATOM     18  C   UNL     1       0.999   3.620  20.483  0.00  0.00    +0.000 C 
BRANCH  18  20
ATOM     19  O   UNL     1       2.831   2.729  21.777  0.00  0.00    +0.000 OA
ATOM     20  C   UNL     1       1.625   2.917  21.677  0.00  0.00    +0.000 C 
BRANCH  20  21
ATOM     21  O   UNL     1       0.759   2.377  22.567  0.00  0.00    +0.000 OA
ATOM     22  H   UNL     1       0.542   2.950  23.331  0.00  0.00    +0.000 HD
ENDBRANCH  20  21
ENDBRANCH  18  20
ENDBRANCH   1  18
TORSDOF 5
ENDMDL
MODEL 2
REMARK VINA RESULT:      -7.2      1.132      1.171
REMARK  Name = 
REMARK  5 active torsions:
REMARK  status: ('A' for Active; 'I' for Inactive)
REMARK    1  A    between atoms: C_2  and  O_3
REMARK    2  A    between atoms: C_2  and  C_4
REMARK    3  A    between atoms: C_4  and  N_5
REMARK    4  A    between atoms: C_10  and  C_11
REMARK    5  A    between atoms: C_14  and  O_15
REMARK                            x       y       z     vdW  Elec       q    Type
REMARK                         _______ _______ _______ _____ _____    ______ ____
ROOT
ATOM      1  N   UNL     1       2.911   4.675  19.994  0.00  0.00    +0.000 N 
ATOM      2  C   UNL     1       2.840   5.884  19.353  0.00  0.00    +0.000 C 
ATOM      3  O   UNL     1       2.235   6.876  19.726  0.00  0.00    +0.000 OA
ATOM      4  S   UNL     1       3.777   5.841  17.876  0.00  0.00    +0.000 S 
ATOM      5  C   UNL     1       4.291   4.224  18.151  0.00  0.00    +0.000 C 
ATOM      6  C   UNL     1       5.149   3.502  17.417  0.00  0.00    +0.000 C 
ATOM      7  C   UNL     1       3.649   3.696  19.381  0.00  0.00    +0.000 C 
ATOM      8  O   UNL     1       3.691   2.532  19.755  0.00  0.00    +0.000 OA
ENDROOT
BRANCH   6   9
ATOM      9  C   UNL     1       5.867   4.006  16.243  0.00  0.00    +0.000 A 
ATOM     10  C   UNL     1       6.894   4.945  16.379  0.00  0.00    +0.000 A 
ATOM     11  C   UNL     1       7.559   5.431  15.249  0.00  0.00    +0.000 A 
ATOM     12  C   UNL     1       7.201   4.972  13.982  0.00  0.00    +0.000 A 
ATOM     13  C   UNL     1       6.186   4.021  13.840  0.00  0.00    +0.000 A 
ATOM     14 CL   UNL     1       5.719   3.425  12.290  0.00  0.00    +0.000 Cl
ATOM     15  C   UNL     1       5.521   3.538  14.970  0.00  0.00    +0.000 A 
BRANCH  12  16
ATOM     16  O   UNL     1       7.842   5.457  12.876  0.00  0.00    +0.000 OA
ATOM     17  H   UNL     1       7.207   5.556  12.149  0.00  0.00    +0.000 HD
ENDBRANCH  12  16
ENDBRANCH   6   9
BRANCH   1  18
ATOM     18  C   UNL     1       2.243   4.476  21.271  0.00  0.00    +0.000 C 
BRANCH  18  20
ATOM     19  O   UNL     1       1.405   2.412  22.199  0.00  0.00    +0.000 OA
ATOM     20  C   UNL     1       1.335   3.258  21.317  0.00  0.00    +0.000 C 
BRANCH  20  21
ATOM     21  O   UNL     1       0.531   3.079  20.242  0.00  0.00    +0.000 OA
ATOM     22  H   UNL     1      -0.168   2.402  20.357  0.00  0.00    +0.000 HD
ENDBRANCH  20  21
ENDBRANCH  18  20
ENDBRANCH   1  18
TORSDOF 5
ENDMDL
MODEL 3
REMARK VINA RESULT:      -7.2      4.459      6.488
REMARK  Name = 
REMARK  5 active torsions:
REMARK  status: ('A' for Active; 'I' for Inactive)
REMARK    1  A    between atoms: C_2  and  O_3
REMARK    2  A    between atoms: C_2  and  C_4
REMARK    3  A    between atoms: C_4  and  N_5
REMARK    4  A    between atoms: C_10  and  C_11
REMARK    5  A    between atoms: C_14  and  O_15
REMARK                            x       y       z     vdW  Elec       q    Type
REMARK                         _______ _______ _______ _____ _____    ______ ____
ROOT
ATOM      1  N   UNL     1       0.845   9.964  19.330  0.00  0.00    +0.000 N 
ATOM      2  C   UNL     1       0.697   9.254  20.493  0.00  0.00    +0.000 C 
ATOM      3  O   UNL     1       0.028   9.570  21.464  0.00  0.00    +0.000 OA
ATOM      4  S   UNL     1       1.612   7.765  20.411  0.00  0.00    +0.000 S 
ATOM      5  C   UNL     1       2.146   8.083  18.809  0.00  0.00    +0.000 C 
ATOM      6  C   UNL     1       2.876   7.286  18.017  0.00  0.00    +0.000 C 
ATOM      7  C   UNL     1       1.657   9.416  18.373  0.00  0.00    +0.000 C 
ATOM      8  O   UNL     1       1.997   9.991  17.348  0.00  0.00    +0.000 OA
ENDROOT
BRANCH   6   9
ATOM      9  C   UNL     1       3.313   5.933  18.374  0.00  0.00    +0.000 A 
ATOM     10  C   UNL     1       4.591   5.708  18.895  0.00  0.00    +0.000 A 
ATOM     11  C   UNL     1       5.002   4.410  19.216  0.00  0.00    +0.000 A 
ATOM     12  C   UNL     1       4.132   3.338  19.020  0.00  0.00    +0.000 A 
ATOM     13  C   UNL     1       2.848   3.558  18.514  0.00  0.00    +0.000 A 
ATOM     14 CL   UNL     1       1.741   2.259  18.264  0.00  0.00    +0.000 Cl
ATOM     15  C   UNL     1       2.439   4.855  18.192  0.00  0.00    +0.000 A 
BRANCH  12  16
ATOM     16  O   UNL     1       4.539   2.068  19.320  0.00  0.00    +0.000 OA
ATOM     17  H   UNL     1       5.162   1.757  18.644  0.00  0.00    +0.000 HD
ENDBRANCH  12  16
ENDBRANCH   6   9
BRANCH   1  18
ATOM     18  C   UNL     1       0.144  11.226  19.142  0.00  0.00    +0.000 C 
BRANCH  18  20
ATOM     19  O   UNL     1      -1.843  10.137  18.313  0.00  0.00    +0.000 OA
ATOM     20  C   UNL     1      -1.114  11.120  18.297  0.00  0.00    +0.000 C 
BRANCH  20  21
ATOM     21  O   UNL     1      -1.316  12.122  17.408  0.00  0.00    +0.000 OA
ATOM     22  H   UNL     1      -1.215  11.867  16.468  0.00  0.00    +0.000 HD
ENDBRANCH  20  21
ENDBRANCH  18  20
ENDBRANCH   1  18
TORSDOF 5
ENDMDL
MODEL 4
REMARK VINA RESULT:      -7.2      4.235      7.491
REMARK  Name = 
REMARK  5 active torsions:
REMARK  status: ('A' for Active; 'I' for Inactive)
REMARK    1  A    between atoms: C_2  and  O_3
REMARK    2  A    between atoms: C_2  and  C_4
REMARK    3  A    between atoms: C_4  and  N_5
REMARK    4  A    between atoms: C_10  and  C_11
REMARK    5  A    between atoms: C_14  and  O_15
REMARK                            x       y       z     vdW  Elec       q    Type
REMARK                         _______ _______ _______ _____ _____    ______ ____
ROOT
ATOM      1  N   UNL     1       5.948   5.137  16.512  0.00  0.00    +0.000 N 
ATOM      2  C   UNL     1       6.504   6.347  16.836  0.00  0.00    +0.000 C 
ATOM      3  O   UNL     1       7.637   6.724  16.583  0.00  0.00    +0.000 OA
ATOM      4  S   UNL     1       5.335   7.341  17.678  0.00  0.00    +0.000 S 
ATOM      5  C   UNL     1       4.104   6.149  17.550  0.00  0.00    +0.000 C 
ATOM      6  C   UNL     1       2.825   6.250  17.936  0.00  0.00    +0.000 C 
ATOM      7  C   UNL     1       4.652   4.929  16.906  0.00  0.00    +0.000 C 
ATOM      8  O   UNL     1       4.070   3.856  16.815  0.00  0.00    +0.000 OA
ENDROOT
BRANCH   6   9
ATOM      9  C   UNL     1       2.221   7.459  18.503  0.00  0.00    +0.000 A 
ATOM     10  C   UNL     1       1.868   8.536  17.683  0.00  0.00    +0.000 A 
ATOM     11  C   UNL     1       1.308   9.691  18.239  0.00  0.00    +0.000 A 
ATOM     12  C   UNL     1       1.095   9.766  19.615  0.00  0.00    +0.000 A 
ATOM     13  C   UNL     1       1.430   8.687  20.438  0.00  0.00    +0.000 A 
ATOM     14 CL   UNL     1       1.175   8.740  22.144  0.00  0.00    +0.000 Cl
ATOM     15  C   UNL     1       1.992   7.535  19.882  0.00  0.00    +0.000 A 
BRANCH  12  16
ATOM     16  O   UNL     1       0.559  10.900  20.159  0.00  0.00    +0.000 OA
ATOM     17  H   UNL     1       0.534  11.602  19.489  0.00  0.00    +0.000 HD
ENDBRANCH  12  16
ENDBRANCH   6   9
BRANCH   1  18
ATOM     18  C   UNL     1       6.715   4.148  15.768  0.00  0.00    +0.000 C 
BRANCH  18  20
ATOM     19  O   UNL     1       6.208   3.775  13.439  0.00  0.00    +0.000 OA
ATOM     20  C   UNL     1       6.814   4.429  14.278  0.00  0.00    +0.000 C 
BRANCH  20  21
ATOM     21  O   UNL     1       7.727   5.359  13.910  0.00  0.00    +0.000 OA
ATOM     22  H   UNL     1       7.980   5.990  14.615  0.00  0.00    +0.000 HD
ENDBRANCH  20  21
ENDBRANCH  18  20
ENDBRANCH   1  18
TORSDOF 5
ENDMDL
MODEL 5
REMARK VINA RESULT:      -7.2      4.466      6.548
REMARK  Name = 
REMARK  5 active torsions:
REMARK  status: ('A' for Active; 'I' for Inactive)
REMARK    1  A    between atoms: C_2  and  O_3
REMARK    2  A    between atoms: C_2  and  C_4
REMARK    3  A    between atoms: C_4  and  N_5
REMARK    4  A    between atoms: C_10  and  C_11
REMARK    5  A    between atoms: C_14  and  O_15
REMARK                            x       y       z     vdW  Elec       q    Type
REMARK                         _______ _______ _______ _____ _____    ______ ____
ROOT
ATOM      1  N   UNL     1       0.890   9.714  19.337  0.00  0.00    +0.000 N 
ATOM      2  C   UNL     1       0.814   9.069  20.545  0.00  0.00    +0.000 C 
ATOM      3  O   UNL     1       0.171   9.418  21.522  0.00  0.00    +0.000 OA
ATOM      4  S   UNL     1       1.780   7.611  20.512  0.00  0.00    +0.000 S 
ATOM      5  C   UNL     1       2.241   7.852  18.874  0.00  0.00    +0.000 C 
ATOM      6  C   UNL     1       2.969   7.036  18.101  0.00  0.00    +0.000 C 
ATOM      7  C   UNL     1       1.686   9.138  18.381  0.00  0.00    +0.000 C 
ATOM      8  O   UNL     1       1.964   9.663  17.312  0.00  0.00    +0.000 OA
ENDROOT
BRANCH   6   9
ATOM      9  C   UNL     1       3.471   5.723  18.518  0.00  0.00    +0.000 A 
ATOM     10  C   UNL     1       4.805   5.554  18.900  0.00  0.00    +0.000 A 
ATOM     11  C   UNL     1       5.276   4.293  19.279  0.00  0.00    +0.000 A 
ATOM     12  C   UNL     1       4.409   3.201  19.282  0.00  0.00    +0.000 A 
ATOM     13  C   UNL     1       3.070   3.366  18.916  0.00  0.00    +0.000 A 
ATOM     14 CL   UNL     1       1.965   2.040  18.913  0.00  0.00    +0.000 Cl
ATOM     15  C   UNL     1       2.601   4.626  18.536  0.00  0.00    +0.000 A 
BRANCH  12  16
ATOM     16  O   UNL     1       4.872   1.965  19.639  0.00  0.00    +0.000 OA
ATOM     17  H   UNL     1       4.668   1.326  18.939  0.00  0.00    +0.000 HD
ENDBRANCH  12  16
ENDBRANCH   6   9
BRANCH   1  18
ATOM     18  C   UNL     1       0.136  10.936  19.105  0.00  0.00    +0.000 C 
BRANCH  18  20
ATOM     19  O   UNL     1       1.144  12.836  20.199  0.00  0.00    +0.000 OA
ATOM     20  C   UNL     1       0.971  12.205  19.165  0.00  0.00    +0.000 C 
BRANCH  20  21
ATOM     21  O   UNL     1       1.404  12.685  17.975  0.00  0.00    +0.000 OA
ATOM     22  H   UNL     1       1.429  12.028  17.249  0.00  0.00    +0.000 HD
ENDBRANCH  20  21
ENDBRANCH  18  20
ENDBRANCH   1  18
TORSDOF 5
ENDMDL
MODEL 6
REMARK VINA RESULT:      -7.0      3.813      7.269
REMARK  Name = 
REMARK  5 active torsions:
REMARK  status: ('A' for Active; 'I' for Inactive)
REMARK    1  A    between atoms: C_2  and  O_3
REMARK    2  A    between atoms: C_2  and  C_4
REMARK    3  A    between atoms: C_4  and  N_5
REMARK    4  A    between atoms: C_10  and  C_11
REMARK    5  A    between atoms: C_14  and  O_15
REMARK                            x       y       z     vdW  Elec       q    Type
REMARK                         _______ _______ _______ _____ _____    ______ ____
ROOT
ATOM      1  N   UNL     1       5.984   4.841  16.320  0.00  0.00    +0.000 N 
ATOM      2  C   UNL     1       6.528   6.036  16.714  0.00  0.00    +0.000 C 
ATOM      3  O   UNL     1       7.621   6.481  16.404  0.00  0.00    +0.000 OA
ATOM      4  S   UNL     1       5.410   6.895  17.751  0.00  0.00    +0.000 S 
ATOM      5  C   UNL     1       4.211   5.672  17.612  0.00  0.00    +0.000 C 
ATOM      6  C   UNL     1       2.970   5.683  18.116  0.00  0.00    +0.000 C 
ATOM      7  C   UNL     1       4.737   4.543  16.802  0.00  0.00    +0.000 C 
ATOM      8  O   UNL     1       4.183   3.462  16.655  0.00  0.00    +0.000 OA
ENDROOT
BRANCH   6   9
ATOM      9  C   UNL     1       2.381   6.805  18.852  0.00  0.00    +0.000 A 
ATOM     10  C   UNL     1       2.020   6.669  20.197  0.00  0.00    +0.000 A 
ATOM     11  C   UNL     1       1.443   7.741  20.884  0.00  0.00    +0.000 A 
ATOM     12  C   UNL     1       1.232   8.953  20.226  0.00  0.00    +0.000 A 
ATOM     13  C   UNL     1       1.606   9.101  18.888  0.00  0.00    +0.000 A 
ATOM     14 CL   UNL     1       1.367  10.586  18.043  0.00  0.00    +0.000 Cl
ATOM     15  C   UNL     1       2.180   8.028  18.202  0.00  0.00    +0.000 A 
BRANCH  12  16
ATOM     16  O   UNL     1       0.656   9.998  20.895  0.00  0.00    +0.000 OA
ATOM     17  H   UNL     1      -0.267  10.097  20.610  0.00  0.00    +0.000 HD
ENDBRANCH  12  16
ENDBRANCH   6   9
BRANCH   1  18
ATOM     18  C   UNL     1       6.712   3.962  15.417  0.00  0.00    +0.000 C 
BRANCH  18  20
ATOM     19  O   UNL     1       5.899   3.751  13.154  0.00  0.00    +0.000 OA
ATOM     20  C   UNL     1       6.609   4.351  13.951  0.00  0.00    +0.000 C 
BRANCH  20  21
ATOM     21  O   UNL     1       7.460   5.319  13.535  0.00  0.00    +0.000 OA
ATOM     22  H   UNL     1       7.936   5.787  14.252  0.00  0.00    +0.000 HD
ENDBRANCH  20  21
ENDBRANCH  18  20
ENDBRANCH   1  18
TORSDOF 5
ENDMDL
MODEL 7
REMARK VINA RESULT:      -6.9      4.031      7.422
REMARK  Name = 
REMARK  5 active torsions:
REMARK  status: ('A' for Active; 'I' for Inactive)
REMARK    1  A    between atoms: C_2  and  O_3
REMARK    2  A    between atoms: C_2  and  C_4
REMARK    3  A    between atoms: C_4  and  N_5
REMARK    4  A    between atoms: C_10  and  C_11
REMARK    5  A    between atoms: C_14  and  O_15
REMARK                            x       y       z     vdW  Elec       q    Type
REMARK                         _______ _______ _______ _____ _____    ______ ____
ROOT
ATOM      1  N   UNL     1       4.780   4.673  16.590  0.00  0.00    +0.000 N 
ATOM      2  C   UNL     1       3.984   3.971  17.457  0.00  0.00    +0.000 C 
ATOM      3  O   UNL     1       4.002   2.766  17.655  0.00  0.00    +0.000 OA
ATOM      4  S   UNL     1       2.899   5.057  18.297  0.00  0.00    +0.000 S 
ATOM      5  C   UNL     1       3.549   6.443  17.516  0.00  0.00    +0.000 C 
ATOM      6  C   UNL     1       3.234   7.727  17.734  0.00  0.00    +0.000 C 
ATOM      7  C   UNL     1       4.576   6.027  16.528  0.00  0.00    +0.000 C 
ATOM      8  O   UNL     1       5.107   6.764  15.708  0.00  0.00    +0.000 OA
ENDROOT
BRANCH   6   9
ATOM      9  C   UNL     1       2.286   8.190  18.751  0.00  0.00    +0.000 A 
ATOM     10  C   UNL     1       2.176   7.531  19.980  0.00  0.00    +0.000 A 
ATOM     11  C   UNL     1       1.256   7.972  20.936  0.00  0.00    +0.000 A 
ATOM     12  C   UNL     1       0.449   9.076  20.665  0.00  0.00    +0.000 A 
ATOM     13  C   UNL     1       0.565   9.750  19.445  0.00  0.00    +0.000 A 
ATOM     14 CL   UNL     1      -0.411  11.124  19.076  0.00  0.00    +0.000 Cl
ATOM     15  C   UNL     1       1.484   9.307  18.490  0.00  0.00    +0.000 A 
BRANCH  12  16
ATOM     16  O   UNL     1      -0.461   9.499  21.595  0.00  0.00    +0.000 OA
ATOM     17  H   UNL     1      -0.530   8.841  22.304  0.00  0.00    +0.000 HD
ENDBRANCH  12  16
ENDBRANCH   6   9
BRANCH   1  18
ATOM     18  C   UNL     1       5.796   3.991  15.803  0.00  0.00    +0.000 C 
BRANCH  18  20
ATOM     19  O   UNL     1       7.719   5.269  15.101  0.00  0.00    +0.000 OA
ATOM     20  C   UNL     1       7.194   4.567  15.956  0.00  0.00    +0.000 C 
BRANCH  20  21
ATOM     21  O   UNL     1       7.893   4.145  17.037  0.00  0.00    +0.000 OA
ATOM     22  H   UNL     1       7.983   3.174  17.116  0.00  0.00    +0.000 HD
ENDBRANCH  20  21
ENDBRANCH  18  20
ENDBRANCH   1  18
TORSDOF 5
ENDMDL
MODEL 8
REMARK VINA RESULT:      -6.8      4.326      7.452
REMARK  Name = 
REMARK  5 active torsions:
REMARK  status: ('A' for Active; 'I' for Inactive)
REMARK    1  A    between atoms: C_2  and  O_3
REMARK    2  A    between atoms: C_2  and  C_4
REMARK    3  A    between atoms: C_4  and  N_5
REMARK    4  A    between atoms: C_10  and  C_11
REMARK    5  A    between atoms: C_14  and  O_15
REMARK                            x       y       z     vdW  Elec       q    Type
REMARK                         _______ _______ _______ _____ _____    ______ ____
ROOT
ATOM      1  N   UNL     1       4.783   4.896  17.400  0.00  0.00    +0.000 N 
ATOM      2  C   UNL     1       4.133   4.351  18.476  0.00  0.00    +0.000 C 
ATOM      3  O   UNL     1       4.325   3.251  18.969  0.00  0.00    +0.000 OA
ATOM      4  S   UNL     1       2.951   5.480  19.102  0.00  0.00    +0.000 S 
ATOM      5  C   UNL     1       3.367   6.684  17.948  0.00  0.00    +0.000 C 
ATOM      6  C   UNL     1       2.890   7.933  17.861  0.00  0.00    +0.000 C 
ATOM      7  C   UNL     1       4.393   6.152  17.016  0.00  0.00    +0.000 C 
ATOM      8  O   UNL     1       4.777   6.709  15.997  0.00  0.00    +0.000 OA
ENDROOT
BRANCH   6   9
ATOM      9  C   UNL     1       1.937   8.526  18.804  0.00  0.00    +0.000 A 
ATOM     10  C   UNL     1       1.880   8.093  20.132  0.00  0.00    +0.000 A 
ATOM     11  C   UNL     1       0.954   8.656  21.018  0.00  0.00    +0.000 A 
ATOM     12  C   UNL     1       0.090   9.656  20.575  0.00  0.00    +0.000 A 
ATOM     13  C   UNL     1       0.153  10.106  19.252  0.00  0.00    +0.000 A 
ATOM     14 CL   UNL     1      -0.894  11.346  18.669  0.00  0.00    +0.000 Cl
ATOM     15  C   UNL     1       1.077   9.541  18.369  0.00  0.00    +0.000 A 
BRANCH  12  16
ATOM     16  O   UNL     1      -0.824  10.197  21.437  0.00  0.00    +0.000 OA
ATOM     17  H   UNL     1      -0.784  11.165  21.387  0.00  0.00    +0.000 HD
ENDBRANCH  12  16
ENDBRANCH   6   9
BRANCH   1  18
ATOM     18  C   UNL     1       5.844   4.159  16.729  0.00  0.00    +0.000 C 
BRANCH  18  20
ATOM     19  O   UNL     1       7.917   4.385  17.944  0.00  0.00    +0.000 OA
ATOM     20  C   UNL     1       7.239   4.711  16.978  0.00  0.00    +0.000 C 
BRANCH  20  21
ATOM     21  O   UNL     1       7.642   5.699  16.144  0.00  0.00    +0.000 OA
ATOM     22  H   UNL     1       8.608   5.854  16.125  0.00  0.00    +0.000 HD
ENDBRANCH  20  21
ENDBRANCH  18  20
ENDBRANCH   1  18
TORSDOF 5
ENDMDL
MODEL 9
REMARK VINA RESULT:      -6.8      4.542      7.482
REMARK  Name = 
REMARK  5 active torsions:
REMARK  status: ('A' for Active; 'I' for Inactive)
REMARK    1  A    between atoms: C_2  and  O_3
REMARK    2  A    between atoms: C_2  and  C_4
REMARK    3  A    between atoms: C_4  and  N_5
REMARK    4  A    between atoms: C_10  and  C_11
REMARK    5  A    between atoms: C_14  and  O_15
REMARK                            x       y       z     vdW  Elec       q    Type
REMARK                         _______ _______ _______ _____ _____    ______ ____
ROOT
ATOM      1  N   UNL     1       4.641   4.989  17.587  0.00  0.00    +0.000 N 
ATOM      2  C   UNL     1       3.876   4.521  18.622  0.00  0.00    +0.000 C 
ATOM      3  O   UNL     1       3.984   3.441  19.183  0.00  0.00    +0.000 OA
ATOM      4  S   UNL     1       2.681   5.715  19.079  0.00  0.00    +0.000 S 
ATOM      5  C   UNL     1       3.243   6.845  17.913  0.00  0.00    +0.000 C 
ATOM      6  C   UNL     1       2.820   8.102  17.721  0.00  0.00    +0.000 C 
ATOM      7  C   UNL     1       4.332   6.236  17.108  0.00  0.00    +0.000 C 
ATOM      8  O   UNL     1       4.828   6.728  16.104  0.00  0.00    +0.000 OA
ENDROOT
BRANCH   6   9
ATOM      9  C   UNL     1       1.805   8.771  18.540  0.00  0.00    +0.000 A 
ATOM     10  C   UNL     1       0.808   9.553  17.948  0.00  0.00    +0.000 A 
ATOM     11  C   UNL     1      -0.144  10.201  18.741  0.00  0.00    +0.000 A 
ATOM     12  C   UNL     1      -0.103  10.061  20.128  0.00  0.00    +0.000 A 
ATOM     13  C   UNL     1       0.880   9.267  20.725  0.00  0.00    +0.000 A 
ATOM     14 CL   UNL     1       0.960   9.064  22.437  0.00  0.00    +0.000 Cl
ATOM     15  C   UNL     1       1.833   8.622  19.931  0.00  0.00    +0.000 A 
BRANCH  12  16
ATOM     16  O   UNL     1      -1.026  10.705  20.904  0.00  0.00    +0.000 OA
ATOM     17  H   UNL     1      -1.672  11.154  20.336  0.00  0.00    +0.000 HD
ENDBRANCH  12  16
ENDBRANCH   6   9
BRANCH   1  18
ATOM     18  C   UNL     1       5.734   4.188  17.055  0.00  0.00    +0.000 C 
BRANCH  18  20
ATOM     19  O   UNL     1       7.703   4.442  18.428  0.00  0.00    +0.000 OA
ATOM     20  C   UNL     1       7.118   4.722  17.390  0.00  0.00    +0.000 C 
BRANCH  20  21
ATOM     21  O   UNL     1       7.617   5.647  16.536  0.00  0.00    +0.000 OA
ATOM     22  H   UNL     1       7.270   6.554  16.661  0.00  0.00    +0.000 HD
ENDBRANCH  20  21
ENDBRANCH  18  20
ENDBRANCH   1  18
TORSDOF 5
ENDMDL
