MODEL 1
REMARK VINA RESULT:      -8.0      0.000      0.000
REMARK  Name = 
REMARK  6 active torsions:
REMARK  status: ('A' for Active; 'I' for Inactive)
REMARK    1  A    between atoms: C_2  and  C_18
REMARK    2  A    between atoms: N_3  and  C_4
REMARK    3  A    between atoms: C_4  and  C_5
REMARK    4  A    between atoms: N_9  and  C_10
REMARK    5  A    between atoms: C_10  and  C_11
REMARK    6  A    between atoms: C_11  and  C_12
REMARK                            x       y       z     vdW  Elec       q    Type
REMARK                         _______ _______ _______ _____ _____    ______ ____
ROOT
ATOM      1  C   UNL     1       2.051   3.717  19.245  0.00  0.00    +0.000 C 
ATOM      2  C   UNL     1       0.804   3.056  19.827  0.00  0.00    +0.000 C 
ATOM      3  C   UNL     1       1.212   2.703  21.241  0.00  0.00    +0.000 C 
ATOM      4  C   UNL     1       2.288   3.718  21.599  0.00  0.00    +0.000 C 
ATOM      5  N   UNL     1       2.607   4.494  20.384  0.00  0.00    +0.000 NA
ENDROOT
BRANCH   1   6
ATOM      6  C   UNL     1       3.093   2.690  18.739  0.00  0.00    +0.000 C 
BRANCH   6   9
ATOM      7  O   UNL     1       5.590   3.829  19.194  0.00  0.00    +0.000 OA
ATOM      8  C   UNL     1       5.200   3.750  18.032  0.00  0.00    +0.000 C 
ATOM      9  N   UNL     1       3.965   3.229  17.704  0.00  0.00    +0.000 N 
ATOM     10  H   UNL     1       3.562   3.476  16.811  0.00  0.00    +0.000 HD
BRANCH   8  11
ATOM     11  C   UNL     1       6.034   4.223  16.838  0.00  0.00    +0.000 C 
ATOM     12  C   UNL     1       5.317   5.339  16.058  0.00  0.00    +0.000 C 
ATOM     13  C   UNL     1       5.293   6.673  16.811  0.00  0.00    +0.000 C 
ATOM     14  C   UNL     1       6.681   7.103  17.274  0.00  0.00    +0.000 C 
ATOM     15  C   UNL     1       7.400   5.998  18.043  0.00  0.00    +0.000 C 
ATOM     16  C   UNL     1       7.436   4.691  17.253  0.00  0.00    +0.000 C 
ENDBRANCH   8  11
ENDBRANCH   6   9
ENDBRANCH   1   6
BRANCH   5  17
ATOM     17  C   UNL     1       2.048   5.859  20.425  0.00  0.00    +0.000 C 
BRANCH  17  18
ATOM     18  C   UNL     1       2.661   6.809  19.377  0.00  0.00    +0.000 C 
BRANCH  18  19
ATOM     19  C   UNL     1       1.912   8.119  19.334  0.00  0.00    +0.000 A 
ATOM     20  C   UNL     1       1.933   8.911  18.176  0.00  0.00    +0.000 A 
ATOM     21  C   UNL     1       1.277  10.140  18.151  0.00  0.00    +0.000 A 
ATOM     22  C   UNL     1       0.597  10.590  19.282  0.00  0.00    +0.000 A 
ATOM     23  C   UNL     1       0.571   9.807  20.436  0.00  0.00    +0.000 A 
ATOM     24  C   UNL     1       1.225   8.579  20.464  0.00  0.00    +0.000 A 
ENDBRANCH  18  19
ENDBRANCH  17  18
ENDBRANCH   5  17
TORSDOF 6
ENDMDL
MODEL 2
REMARK VINA RESULT:      -7.9      0.840      1.614
REMARK  Name = 
REMARK  6 active torsions:
REMARK  status: ('A' for Active; 'I' for Inactive)
REMARK    1  A    between atoms: C_2  and  C_18
REMARK    2  A    between atoms: N_3  and  C_4
REMARK    3  A    between atoms: C_4  and  C_5
REMARK    4  A    between atoms: N_9  and  C_10
REMARK    5  A    between atoms: C_10  and  C_11
REMARK    6  A    between atoms: C_11  and  C_12
REMARK                            x       y       z     vdW  Elec       q    Type
REMARK                         _______ _______ _______ _____ _____    ______ ____
ROOT
ATOM      1  C   UNL     1       3.014   3.677  19.516  0.00  0.00    +0.000 C 
ATOM      2  C   UNL     1       1.816   2.731  19.511  0.00  0.00    +0.000 C 
ATOM      3  C   UNL     1       1.624   2.388  20.972  0.00  0.00    +0.000 C 
ATOM      4  C   UNL     1       2.180   3.586  21.729  0.00  0.00    +0.000 C 
ATOM      5  N   UNL     1       2.824   4.485  20.750  0.00  0.00    +0.000 NA
ENDROOT
BRANCH   1   6
ATOM      6  C   UNL     1       4.368   2.930  19.568  0.00  0.00    +0.000 C 
BRANCH   6   9
ATOM      7  O   UNL     1       5.862   5.275  19.691  0.00  0.00    +0.000 OA
ATOM      8  C   UNL     1       6.018   4.546  18.714  0.00  0.00    +0.000 C 
ATOM      9  N   UNL     1       5.304   3.378  18.545  0.00  0.00    +0.000 N 
ATOM     10  H   UNL     1       5.221   2.997  17.612  0.00  0.00    +0.000 HD
BRANCH   8  11
ATOM     11  C   UNL     1       7.008   4.861  17.589  0.00  0.00    +0.000 C 
ATOM     12  C   UNL     1       6.634   4.127  16.288  0.00  0.00    +0.000 C 
ATOM     13  C   UNL     1       5.389   4.708  15.611  0.00  0.00    +0.000 C 
ATOM     14  C   UNL     1       5.491   6.215  15.405  0.00  0.00    +0.000 C 
ATOM     15  C   UNL     1       5.868   6.949  16.689  0.00  0.00    +0.000 C 
ATOM     16  C   UNL     1       7.131   6.369  17.323  0.00  0.00    +0.000 C 
ENDBRANCH   8  11
ENDBRANCH   6   9
ENDBRANCH   1   6
BRANCH   5  17
ATOM     17  C   UNL     1       2.022   5.693  20.482  0.00  0.00    +0.000 C 
BRANCH  17  18
ATOM     18  C   UNL     1       2.511   6.503  19.265  0.00  0.00    +0.000 C 
BRANCH  18  19
ATOM     19  C   UNL     1       1.959   7.907  19.294  0.00  0.00    +0.000 A 
ATOM     20  C   UNL     1       1.327   8.398  20.446  0.00  0.00    +0.000 A 
ATOM     21  C   UNL     1       0.779   9.680  20.458  0.00  0.00    +0.000 A 
ATOM     22  C   UNL     1       0.856  10.481  19.320  0.00  0.00    +0.000 A 
ATOM     23  C   UNL     1       1.485  10.000  18.171  0.00  0.00    +0.000 A 
ATOM     24  C   UNL     1       2.033   8.720  18.156  0.00  0.00    +0.000 A 
ENDBRANCH  18  19
ENDBRANCH  17  18
ENDBRANCH   5  17
TORSDOF 6
ENDMDL
MODEL 3
REMARK VINA RESULT:      -7.9      1.290      4.581
REMARK  Name = 
REMARK  6 active torsions:
REMARK  status: ('A' for Active; 'I' for Inactive)
REMARK    1  A    between atoms: C_2  and  C_18
REMARK    2  A    between atoms: N_3  and  C_4
REMARK    3  A    between atoms: C_4  and  C_5
REMARK    4  A    between atoms: N_9  and  C_10
REMARK    5  A    between atoms: C_10  and  C_11
REMARK    6  A    between atoms: C_11  and  C_12
REMARK                            x       y       z     vdW  Elec       q    Type
REMARK                         _______ _______ _______ _____ _____    ______ ____
ROOT
ATOM      1  C   UNL     1       5.453   4.576  17.497  0.00  0.00    +0.000 C 
ATOM      2  C   UNL     1       6.892   4.968  17.173  0.00  0.00    +0.000 C 
ATOM      3  C   UNL     1       6.859   5.256  15.687  0.00  0.00    +0.000 C 
ATOM      4  C   UNL     1       5.426   5.685  15.407  0.00  0.00    +0.000 C 
ATOM      5  N   UNL     1       4.637   5.474  16.638  0.00  0.00    +0.000 NA
ENDROOT
BRANCH   1   6
ATOM      6  C   UNL     1       5.145   3.095  17.169  0.00  0.00    +0.000 C 
BRANCH   6   9
ATOM      7  O   UNL     1       4.998   2.722  19.923  0.00  0.00    +0.000 OA
ATOM      8  C   UNL     1       3.999   2.463  19.255  0.00  0.00    +0.000 C 
ATOM      9  N   UNL     1       3.981   2.586  17.881  0.00  0.00    +0.000 N 
ATOM     10  H   UNL     1       3.284   2.069  17.362  0.00  0.00    +0.000 HD
BRANCH   8  11
ATOM     11  C   UNL     1       2.687   1.974  19.873  0.00  0.00    +0.000 C 
ATOM     12  C   UNL     1       2.470   2.569  21.276  0.00  0.00    +0.000 C 
ATOM     13  C   UNL     1       2.119   4.060  21.245  0.00  0.00    +0.000 C 
ATOM     14  C   UNL     1       0.952   4.361  20.311  0.00  0.00    +0.000 C 
ATOM     15  C   UNL     1       1.157   3.769  18.920  0.00  0.00    +0.000 C 
ATOM     16  C   UNL     1       1.473   2.275  18.982  0.00  0.00    +0.000 C 
ENDBRANCH   8  11
ENDBRANCH   6   9
ENDBRANCH   1   6
BRANCH   5  17
ATOM     17  C   UNL     1       4.324   6.739  17.329  0.00  0.00    +0.000 C 
BRANCH  17  18
ATOM     18  C   UNL     1       3.520   6.550  18.630  0.00  0.00    +0.000 C 
BRANCH  18  19
ATOM     19  C   UNL     1       2.517   7.663  18.812  0.00  0.00    +0.000 A 
ATOM     20  C   UNL     1       2.216   8.527  17.749  0.00  0.00    +0.000 A 
ATOM     21  C   UNL     1       1.322   9.581  17.929  0.00  0.00    +0.000 A 
ATOM     22  C   UNL     1       0.724   9.783  19.173  0.00  0.00    +0.000 A 
ATOM     23  C   UNL     1       1.018   8.927  20.234  0.00  0.00    +0.000 A 
ATOM     24  C   UNL     1       1.910   7.873  20.057  0.00  0.00    +0.000 A 
ENDBRANCH  18  19
ENDBRANCH  17  18
ENDBRANCH   5  17
TORSDOF 6
ENDMDL
MODEL 4
REMARK VINA RESULT:      -7.8      1.268      4.681
REMARK  Name = 
REMARK  6 active torsions:
REMARK  status: ('A' for Active; 'I' for Inactive)
REMARK    1  A    between atoms: C_2  and  C_18
REMARK    2  A    between atoms: N_3  and  C_4
REMARK    3  A    between atoms: C_4  and  C_5
REMARK    4  A    between atoms: N_9  and  C_10
REMARK    5  A    between atoms: C_10  and  C_11
REMARK    6  A    between atoms: C_11  and  C_12
REMARK                            x       y       z     vdW  Elec       q    Type
REMARK                         _______ _______ _______ _____ _____    ______ ____
ROOT
ATOM      1  C   UNL     1       5.378   4.716  17.543  0.00  0.00    +0.000 C 
ATOM      2  C   UNL     1       6.810   5.153  17.245  0.00  0.00    +0.000 C 
ATOM      3  C   UNL     1       6.797   5.432  15.757  0.00  0.00    +0.000 C 
ATOM      4  C   UNL     1       5.356   5.810  15.445  0.00  0.00    +0.000 C 
ATOM      5  N   UNL     1       4.550   5.580  16.661  0.00  0.00    +0.000 NA
ENDROOT
BRANCH   1   6
ATOM      6  C   UNL     1       5.127   3.223  17.218  0.00  0.00    +0.000 C 
BRANCH   6   9
ATOM      7  O   UNL     1       4.980   2.664  19.940  0.00  0.00    +0.000 OA
ATOM      8  C   UNL     1       3.977   2.466  19.259  0.00  0.00    +0.000 C 
ATOM      9  N   UNL     1       3.957   2.683  17.896  0.00  0.00    +0.000 N 
ATOM     10  H   UNL     1       3.251   2.213  17.346  0.00  0.00    +0.000 HD
BRANCH   8  11
ATOM     11  C   UNL     1       2.658   1.954  19.847  0.00  0.00    +0.000 C 
ATOM     12  C   UNL     1       2.428   2.498  21.268  0.00  0.00    +0.000 C 
ATOM     13  C   UNL     1       2.077   3.989  21.288  0.00  0.00    +0.000 C 
ATOM     14  C   UNL     1       0.919   4.325  20.355  0.00  0.00    +0.000 C 
ATOM     15  C   UNL     1       1.137   3.784  18.945  0.00  0.00    +0.000 C 
ATOM     16  C   UNL     1       1.453   2.289  18.956  0.00  0.00    +0.000 C 
ENDBRANCH   8  11
ENDBRANCH   6   9
ENDBRANCH   1   6
BRANCH   5  17
ATOM     17  C   UNL     1       4.180   6.838  17.337  0.00  0.00    +0.000 C 
BRANCH  17  18
ATOM     18  C   UNL     1       3.379   6.628  18.638  0.00  0.00    +0.000 C 
BRANCH  18  19
ATOM     19  C   UNL     1       2.418   7.768  18.868  0.00  0.00    +0.000 A 
ATOM     20  C   UNL     1       1.838   7.964  20.130  0.00  0.00    +0.000 A 
ATOM     21  C   UNL     1       0.918   8.990  20.333  0.00  0.00    +0.000 A 
ATOM     22  C   UNL     1       0.565   9.828  19.275  0.00  0.00    +0.000 A 
ATOM     23  C   UNL     1       1.138   9.640  18.017  0.00  0.00    +0.000 A 
ATOM     24  C   UNL     1       2.059   8.616  17.813  0.00  0.00    +0.000 A 
ENDBRANCH  18  19
ENDBRANCH  17  18
ENDBRANCH   5  17
TORSDOF 6
ENDMDL
MODEL 5
REMARK VINA RESULT:      -7.8      0.896      1.348
REMARK  Name = 
REMARK  6 active torsions:
REMARK  status: ('A' for Active; 'I' for Inactive)
REMARK    1  A    between atoms: C_2  and  C_18
REMARK    2  A    between atoms: N_3  and  C_4
REMARK    3  A    between atoms: C_4  and  C_5
REMARK    4  A    between atoms: N_9  and  C_10
REMARK    5  A    between atoms: C_10  and  C_11
REMARK    6  A    between atoms: C_11  and  C_12
REMARK                            x       y       z     vdW  Elec       q    Type
REMARK                         _______ _______ _______ _____ _____    ______ ____
ROOT
ATOM      1  C   UNL     1       2.774   3.558  19.410  0.00  0.00    +0.000 C 
ATOM      2  C   UNL     1       1.485   2.762  19.598  0.00  0.00    +0.000 C 
ATOM      3  C   UNL     1       1.427   2.521  21.091  0.00  0.00    +0.000 C 
ATOM      4  C   UNL     1       2.199   3.682  21.702  0.00  0.00    +0.000 C 
ATOM      5  N   UNL     1       2.821   4.446  20.602  0.00  0.00    +0.000 NA
ENDROOT
BRANCH   1   6
ATOM      6  C   UNL     1       4.033   2.659  19.362  0.00  0.00    +0.000 C 
BRANCH   6   9
ATOM      7  O   UNL     1       3.632   3.581  16.767  0.00  0.00    +0.000 OA
ATOM      8  C   UNL     1       4.769   3.647  17.230  0.00  0.00    +0.000 C 
ATOM      9  N   UNL     1       5.076   3.189  18.494  0.00  0.00    +0.000 N 
ATOM     10  H   UNL     1       6.040   2.963  18.701  0.00  0.00    +0.000 HD
BRANCH   8  11
ATOM     11  C   UNL     1       5.952   4.233  16.454  0.00  0.00    +0.000 C 
ATOM     12  C   UNL     1       5.502   5.366  15.514  0.00  0.00    +0.000 C 
ATOM     13  C   UNL     1       5.116   6.645  16.262  0.00  0.00    +0.000 C 
ATOM     14  C   UNL     1       6.204   7.103  17.227  0.00  0.00    +0.000 C 
ATOM     15  C   UNL     1       6.659   5.984  18.158  0.00  0.00    +0.000 C 
ATOM     16  C   UNL     1       7.069   4.733  17.381  0.00  0.00    +0.000 C 
ENDBRANCH   8  11
ENDBRANCH   6   9
ENDBRANCH   1   6
BRANCH   5  17
ATOM     17  C   UNL     1       2.134   5.725  20.345  0.00  0.00    +0.000 C 
BRANCH  17  18
ATOM     18  C   UNL     1       2.701   6.502  19.140  0.00  0.00    +0.000 C 
BRANCH  18  19
ATOM     19  C   UNL     1       2.111   7.888  19.066  0.00  0.00    +0.000 A 
ATOM     20  C   UNL     1       1.457   8.442  20.176  0.00  0.00    +0.000 A 
ATOM     21  C   UNL     1       0.875   9.706  20.093  0.00  0.00    +0.000 A 
ATOM     22  C   UNL     1       0.939  10.426  18.901  0.00  0.00    +0.000 A 
ATOM     23  C   UNL     1       1.589   9.881  17.793  0.00  0.00    +0.000 A 
ATOM     24  C   UNL     1       2.172   8.620  17.873  0.00  0.00    +0.000 A 
ENDBRANCH  18  19
ENDBRANCH  17  18
ENDBRANCH   5  17
TORSDOF 6
ENDMDL
MODEL 6
REMARK VINA RESULT:      -7.8      1.368      4.700
REMARK  Name = 
REMARK  6 active torsions:
REMARK  status: ('A' for Active; 'I' for Inactive)
REMARK    1  A    between atoms: C_2  and  C_18
REMARK    2  A    between atoms: N_3  and  C_4
REMARK    3  A    between atoms: C_4  and  C_5
REMARK    4  A    between atoms: N_9  and  C_10
REMARK    5  A    between atoms: C_10  and  C_11
REMARK    6  A    between atoms: C_11  and  C_12
REMARK                            x       y       z     vdW  Elec       q    Type
REMARK                         _______ _______ _______ _____ _____    ______ ____
ROOT
ATOM      1  C   UNL     1       5.806   5.696  18.350  0.00  0.00    +0.000 C 
ATOM      2  C   UNL     1       7.025   6.492  17.892  0.00  0.00    +0.000 C 
ATOM      3  C   UNL     1       7.043   6.289  16.393  0.00  0.00    +0.000 C 
ATOM      4  C   UNL     1       5.591   6.033  16.017  0.00  0.00    +0.000 C 
ATOM      5  N   UNL     1       4.811   5.913  17.266  0.00  0.00    +0.000 NA
ENDROOT
BRANCH   1   6
ATOM      6  C   UNL     1       6.101   4.185  18.510  0.00  0.00    +0.000 C 
BRANCH   6   9
ATOM      7  O   UNL     1       3.870   2.906  17.447  0.00  0.00    +0.000 OA
ATOM      8  C   UNL     1       4.031   2.861  18.665  0.00  0.00    +0.000 C 
ATOM      9  N   UNL     1       5.088   3.488  19.291  0.00  0.00    +0.000 N 
ATOM     10  H   UNL     1       5.004   3.700  20.276  0.00  0.00    +0.000 HD
BRANCH   8  11
ATOM     11  C   UNL     1       3.078   2.117  19.604  0.00  0.00    +0.000 C 
ATOM     12  C   UNL     1       3.015   2.788  20.988  0.00  0.00    +0.000 C 
ATOM     13  C   UNL     1       2.259   4.120  20.972  0.00  0.00    +0.000 C 
ATOM     14  C   UNL     1       0.880   3.997  20.335  0.00  0.00    +0.000 C 
ATOM     15  C   UNL     1       0.934   3.328  18.965  0.00  0.00    +0.000 C 
ATOM     16  C   UNL     1       1.664   1.987  19.020  0.00  0.00    +0.000 C 
ENDBRANCH   8  11
ENDBRANCH   6   9
ENDBRANCH   1   6
BRANCH   5  17
ATOM     17  C   UNL     1       3.983   7.106  17.529  0.00  0.00    +0.000 C 
BRANCH  17  18
ATOM     18  C   UNL     1       2.580   6.776  18.076  0.00  0.00    +0.000 C 
BRANCH  18  19
ATOM     19  C   UNL     1       1.994   7.959  18.806  0.00  0.00    +0.000 A 
ATOM     20  C   UNL     1       1.727   7.884  20.180  0.00  0.00    +0.000 A 
ATOM     21  C   UNL     1       1.146   8.962  20.846  0.00  0.00    +0.000 A 
ATOM     22  C   UNL     1       0.824  10.123  20.144  0.00  0.00    +0.000 A 
ATOM     23  C   UNL     1       1.087  10.205  18.776  0.00  0.00    +0.000 A 
ATOM     24  C   UNL     1       1.668   9.130  18.109  0.00  0.00    +0.000 A 
ENDBRANCH  18  19
ENDBRANCH  17  18
ENDBRANCH   5  17
TORSDOF 6
ENDMDL
MODEL 7
REMARK VINA RESULT:      -7.7      2.723      7.117
REMARK  Name = 
REMARK  6 active torsions:
REMARK  status: ('A' for Active; 'I' for Inactive)
REMARK    1  A    between atoms: C_2  and  C_18
REMARK    2  A    between atoms: N_3  and  C_4
REMARK    3  A    between atoms: C_4  and  C_5
REMARK    4  A    between atoms: N_9  and  C_10
REMARK    5  A    between atoms: C_10  and  C_11
REMARK    6  A    between atoms: C_11  and  C_12
REMARK                            x       y       z     vdW  Elec       q    Type
REMARK                         _______ _______ _______ _____ _____    ______ ____
ROOT
ATOM      1  C   UNL     1       5.610   6.085  17.410  0.00  0.00    +0.000 C 
ATOM      2  C   UNL     1       6.582   7.228  17.128  0.00  0.00    +0.000 C 
ATOM      3  C   UNL     1       7.621   7.092  18.220  0.00  0.00    +0.000 C 
ATOM      4  C   UNL     1       7.608   5.615  18.587  0.00  0.00    +0.000 C 
ATOM      5  N   UNL     1       6.487   4.976  17.869  0.00  0.00    +0.000 NA
ENDROOT
BRANCH   1   6
ATOM      6  C   UNL     1       4.573   6.436  18.506  0.00  0.00    +0.000 C 
BRANCH   6   9
ATOM      7  O   UNL     1       2.187   6.206  19.919  0.00  0.00    +0.000 OA
ATOM      8  C   UNL     1       2.969   5.258  19.956  0.00  0.00    +0.000 C 
ATOM      9  N   UNL     1       4.190   5.286  19.313  0.00  0.00    +0.000 N 
ATOM     10  H   UNL     1       4.912   4.653  19.629  0.00  0.00    +0.000 HD
BRANCH   8  11
ATOM     11  C   UNL     1       2.674   3.963  20.717  0.00  0.00    +0.000 C 
ATOM     12  C   UNL     1       1.173   3.620  20.683  0.00  0.00    +0.000 C 
ATOM     13  C   UNL     1       0.702   3.141  19.306  0.00  0.00    +0.000 C 
ATOM     14  C   UNL     1       1.559   2.003  18.763  0.00  0.00    +0.000 C 
ATOM     15  C   UNL     1       3.048   2.333  18.800  0.00  0.00    +0.000 C 
ATOM     16  C   UNL     1       3.495   2.776  20.192  0.00  0.00    +0.000 C 
ENDBRANCH   8  11
ENDBRANCH   6   9
ENDBRANCH   1   6
BRANCH   5  17
ATOM     17  C   UNL     1       6.943   4.150  16.735  0.00  0.00    +0.000 C 
BRANCH  17  18
ATOM     18  C   UNL     1       5.845   3.877  15.688  0.00  0.00    +0.000 C 
BRANCH  18  19
ATOM     19  C   UNL     1       6.375   4.071  14.288  0.00  0.00    +0.000 A 
ATOM     20  C   UNL     1       7.352   5.042  14.027  0.00  0.00    +0.000 A 
ATOM     21  C   UNL     1       7.810   5.251  12.727  0.00  0.00    +0.000 A 
ATOM     22  C   UNL     1       7.293   4.493  11.677  0.00  0.00    +0.000 A 
ATOM     23  C   UNL     1       6.322   3.524  11.929  0.00  0.00    +0.000 A 
ATOM     24  C   UNL     1       5.863   3.314  13.227  0.00  0.00    +0.000 A 
ENDBRANCH  18  19
ENDBRANCH  17  18
ENDBRANCH   5  17
TORSDOF 6
ENDMDL
MODEL 8
REMARK VINA RESULT:      -7.7      1.003      1.847
REMARK  Name = 
REMARK  6 active torsions:
REMARK  status: ('A' for Active; 'I' for Inactive)
REMARK    1  A    between atoms: C_2  and  C_18
REMARK    2  A    between atoms: N_3  and  C_4
REMARK    3  A    between atoms: C_4  and  C_5
REMARK    4  A    between atoms: N_9  and  C_10
REMARK    5  A    between atoms: C_10  and  C_11
REMARK    6  A    between atoms: C_11  and  C_12
REMARK                            x       y       z     vdW  Elec       q    Type
REMARK                         _______ _______ _______ _____ _____    ______ ____
ROOT
ATOM      1  C   UNL     1       2.830   3.681  19.157  0.00  0.00    +0.000 C 
ATOM      2  C   UNL     1       1.837   2.810  18.391  0.00  0.00    +0.000 C 
ATOM      3  C   UNL     1       1.286   1.879  19.449  0.00  0.00    +0.000 C 
ATOM      4  C   UNL     1       1.418   2.651  20.754  0.00  0.00    +0.000 C 
ATOM      5  N   UNL     1       2.177   3.888  20.477  0.00  0.00    +0.000 NA
ENDROOT
BRANCH   1   6
ATOM      6  C   UNL     1       4.207   2.999  19.343  0.00  0.00    +0.000 C 
BRANCH   6   9
ATOM      7  O   UNL     1       5.768   5.279  19.672  0.00  0.00    +0.000 OA
ATOM      8  C   UNL     1       5.949   4.601  18.663  0.00  0.00    +0.000 C 
ATOM      9  N   UNL     1       5.206   3.470  18.393  0.00  0.00    +0.000 N 
ATOM     10  H   UNL     1       5.157   3.146  17.437  0.00  0.00    +0.000 HD
BRANCH   8  11
ATOM     11  C   UNL     1       7.004   4.944  17.607  0.00  0.00    +0.000 C 
ATOM     12  C   UNL     1       6.696   4.260  16.262  0.00  0.00    +0.000 C 
ATOM     13  C   UNL     1       5.496   4.880  15.538  0.00  0.00    +0.000 C 
ATOM     14  C   UNL     1       5.625   6.392  15.392  0.00  0.00    +0.000 C 
ATOM     15  C   UNL     1       5.936   7.076  16.720  0.00  0.00    +0.000 C 
ATOM     16  C   UNL     1       7.156   6.458  17.402  0.00  0.00    +0.000 C 
ENDBRANCH   8  11
ENDBRANCH   6   9
ENDBRANCH   1   6
BRANCH   5  17
ATOM     17  C   UNL     1       1.316   5.086  20.467  0.00  0.00    +0.000 C 
BRANCH  17  18
ATOM     18  C   UNL     1       2.030   6.364  20.949  0.00  0.00    +0.000 C 
BRANCH  18  19
ATOM     19  C   UNL     1       1.980   7.441  19.894  0.00  0.00    +0.000 A 
ATOM     20  C   UNL     1       1.258   8.622  20.118  0.00  0.00    +0.000 A 
ATOM     21  C   UNL     1       1.176   9.598  19.126  0.00  0.00    +0.000 A 
ATOM     22  C   UNL     1       1.813   9.402  17.901  0.00  0.00    +0.000 A 
ATOM     23  C   UNL     1       2.534   8.229  17.672  0.00  0.00    +0.000 A 
ATOM     24  C   UNL     1       2.617   7.253  18.661  0.00  0.00    +0.000 A 
ENDBRANCH  18  19
ENDBRANCH  17  18
ENDBRANCH   5  17
TORSDOF 6
ENDMDL
MODEL 9
REMARK VINA RESULT:      -7.7      0.973      1.620
REMARK  Name = 
REMARK  6 active torsions:
REMARK  status: ('A' for Active; 'I' for Inactive)
REMARK    1  A    between atoms: C_2  and  C_18
REMARK    2  A    between atoms: N_3  and  C_4
REMARK    3  A    between atoms: C_4  and  C_5
REMARK    4  A    between atoms: N_9  and  C_10
REMARK    5  A    between atoms: C_10  and  C_11
REMARK    6  A    between atoms: C_11  and  C_12
REMARK                            x       y       z     vdW  Elec       q    Type
REMARK                         _______ _______ _______ _____ _____    ______ ____
ROOT
ATOM      1  C   UNL     1       2.709   3.798  19.094  0.00  0.00    +0.000 C 
ATOM      2  C   UNL     1       1.640   3.148  18.219  0.00  0.00    +0.000 C 
ATOM      3  C   UNL     1       0.997   2.130  19.136  0.00  0.00    +0.000 C 
ATOM      4  C   UNL     1       1.197   2.689  20.538  0.00  0.00    +0.000 C 
ATOM      5  N   UNL     1       2.073   3.874  20.436  0.00  0.00    +0.000 NA
ENDROOT
BRANCH   1   6
ATOM      6  C   UNL     1       4.013   2.968  19.166  0.00  0.00    +0.000 C 
BRANCH   6   9
ATOM      7  O   UNL     1       5.655   5.159  19.663  0.00  0.00    +0.000 OA
ATOM      8  C   UNL     1       5.829   4.538  18.617  0.00  0.00    +0.000 C 
ATOM      9  N   UNL     1       5.047   3.457  18.265  0.00  0.00    +0.000 N 
ATOM     10  H   UNL     1       5.005   3.194  17.290  0.00  0.00    +0.000 HD
BRANCH   8  11
ATOM     11  C   UNL     1       6.916   4.903  17.602  0.00  0.00    +0.000 C 
ATOM     12  C   UNL     1       6.643   4.259  16.231  0.00  0.00    +0.000 C 
ATOM     13  C   UNL     1       5.470   4.906  15.489  0.00  0.00    +0.000 C 
ATOM     14  C   UNL     1       5.611   6.421  15.389  0.00  0.00    +0.000 C 
ATOM     15  C   UNL     1       5.887   7.065  16.744  0.00  0.00    +0.000 C 
ATOM     16  C   UNL     1       7.083   6.421  17.444  0.00  0.00    +0.000 C 
ENDBRANCH   8  11
ENDBRANCH   6   9
ENDBRANCH   1   6
BRANCH   5  17
ATOM     17  C   UNL     1       1.332   5.138  20.608  0.00  0.00    +0.000 C 
BRANCH  17  18
ATOM     18  C   UNL     1       2.239   6.356  20.874  0.00  0.00    +0.000 C 
BRANCH  18  19
ATOM     19  C   UNL     1       2.019   7.429  19.836  0.00  0.00    +0.000 A 
ATOM     20  C   UNL     1       2.601   7.318  18.565  0.00  0.00    +0.000 A 
ATOM     21  C   UNL     1       2.432   8.329  17.621  0.00  0.00    +0.000 A 
ATOM     22  C   UNL     1       1.684   9.462  17.940  0.00  0.00    +0.000 A 
ATOM     23  C   UNL     1       1.102   9.579  19.202  0.00  0.00    +0.000 A 
ATOM     24  C   UNL     1       1.268   8.570  20.147  0.00  0.00    +0.000 A 
ENDBRANCH  18  19
ENDBRANCH  17  18
ENDBRANCH   5  17
TORSDOF 6
ENDMDL
