MODEL 1
REMARK VINA RESULT:      -8.0      0.000      0.000
REMARK  Name = 
REMARK  5 active torsions:
REMARK  status: ('A' for Active; 'I' for Inactive)
REMARK    1  A    between atoms: C_1  and  C_2
REMARK    2  A    between atoms: C_2  and  C_3
REMARK    3  A    between atoms: C_2  and  C_10
REMARK    4  A    between atoms: C_3  and  C_4
REMARK    5  A    between atoms: C_13  and  C_14
REMARK                            x       y       z     vdW  Elec       q    Type
REMARK                         _______ _______ _______ _____ _____    ______ ____
ROOT
ATOM      1  C   UNL     1       5.289   4.169  14.638  0.00  0.00    +0.000 C 
ATOM      2  C   UNL     1       5.441   4.491  16.135  0.00  0.00    +0.000 C 
ENDROOT
BRANCH   2   3
ATOM      3  C   UNL     1       4.243   4.104  17.000  0.00  0.00    +0.000 A 
ATOM      4  C   UNL     1       3.901   2.769  17.260  0.00  0.00    +0.000 A 
ATOM      5  C   UNL     1       2.844   2.443  18.113  0.00  0.00    +0.000 A 
ATOM      6  C   UNL     1       2.090   3.447  18.731  0.00  0.00    +0.000 A 
ATOM      7  C   UNL     1       2.408   4.785  18.461  0.00  0.00    +0.000 A 
ATOM      8  C   UNL     1       3.474   5.107  17.615  0.00  0.00    +0.000 A 
BRANCH   6   9
ATOM      9  C   UNL     1       0.972   3.104  19.682  0.00  0.00    +0.000 C 
ATOM     10  F   UNL     1      -0.055   2.426  19.095  0.00  0.00    +0.000 F 
ATOM     11  F   UNL     1       1.391   2.318  20.714  0.00  0.00    +0.000 F 
ATOM     12  F   UNL     1       0.413   4.205  20.254  0.00  0.00    +0.000 F 
ENDBRANCH   6   9
ENDBRANCH   2   3
BRANCH   2  13
ATOM     13  C   UNL     1       5.931   5.944  16.365  0.00  0.00    +0.000 C 
BRANCH  13  14
ATOM     14  C   UNL     1       7.352   6.096  16.919  0.00  0.00    +0.000 C 
ATOM     15  C   UNL     1       7.583   7.468  17.537  0.00  0.00    +0.000 C 
ATOM     16  O   UNL     1       8.144   7.208  18.819  0.00  0.00    +0.000 OA
ATOM     17  C   UNL     1       8.006   5.879  18.991  0.00  0.00    +0.000 C 
ATOM     18  N   UNL     1       8.364   5.440  20.211  0.00  0.00    +0.000 N 
ATOM     19  N   UNL     1       7.580   5.154  18.019  0.00  0.00    +0.000 NA
ATOM     20  H   UNL     1       9.039   6.029  20.678  0.00  0.00    +0.000 HD
ATOM     21  H   UNL     1       8.570   4.450  20.228  0.00  0.00    +0.000 HD
ENDBRANCH  13  14
ENDBRANCH   2  13
TORSDOF 4
ENDMDL
MODEL 2
REMARK VINA RESULT:      -7.9      0.109      1.395
REMARK  Name = 
REMARK  5 active torsions:
REMARK  status: ('A' for Active; 'I' for Inactive)
REMARK    1  A    between atoms: C_1  and  C_2
REMARK    2  A    between atoms: C_2  and  C_3
REMARK    3  A    between atoms: C_2  and  C_10
REMARK    4  A    between atoms: C_3  and  C_4
REMARK    5  A    between atoms: C_13  and  C_14
REMARK                            x       y       z     vdW  Elec       q    Type
REMARK                         _______ _______ _______ _____ _____    ______ ____
ROOT
ATOM      1  C   UNL     1       5.129   4.168  14.682  0.00  0.00    +0.000 C 
ATOM      2  C   UNL     1       5.416   4.521  16.151  0.00  0.00    +0.000 C 
ENDROOT
BRANCH   2   3
ATOM      3  C   UNL     1       4.294   4.174  17.127  0.00  0.00    +0.000 A 
ATOM      4  C   UNL     1       3.499   5.154  17.740  0.00  0.00    +0.000 A 
ATOM      5  C   UNL     1       2.433   4.807  18.573  0.00  0.00    +0.000 A 
ATOM      6  C   UNL     1       2.131   3.465  18.824  0.00  0.00    +0.000 A 
ATOM      7  C   UNL     1       2.932   2.477  18.236  0.00  0.00    +0.000 A 
ATOM      8  C   UNL     1       3.993   2.828  17.394  0.00  0.00    +0.000 A 
BRANCH   6   9
ATOM      9  C   UNL     1       0.959   3.082  19.692  0.00  0.00    +0.000 C 
ATOM     10  F   UNL     1       0.285   4.152  20.202  0.00  0.00    +0.000 F 
ATOM     11  F   UNL     1       0.030   2.348  19.016  0.00  0.00    +0.000 F 
ATOM     12  F   UNL     1       1.324   2.326  20.763  0.00  0.00    +0.000 F 
ENDBRANCH   6   9
ENDBRANCH   2   3
BRANCH   2  13
ATOM     13  C   UNL     1       5.945   5.971  16.302  0.00  0.00    +0.000 C 
BRANCH  13  14
ATOM     14  C   UNL     1       7.357   6.117  16.879  0.00  0.00    +0.000 C 
ATOM     15  C   UNL     1       7.589   7.494  17.487  0.00  0.00    +0.000 C 
ATOM     16  O   UNL     1       8.125   7.243  18.781  0.00  0.00    +0.000 OA
ATOM     17  C   UNL     1       7.972   5.917  18.964  0.00  0.00    +0.000 C 
ATOM     18  N   UNL     1       8.305   5.488  20.195  0.00  0.00    +0.000 N 
ATOM     19  N   UNL     1       7.557   5.186  17.993  0.00  0.00    +0.000 NA
ATOM     20  H   UNL     1       8.976   6.076  20.668  0.00  0.00    +0.000 HD
ATOM     21  H   UNL     1       8.502   4.497  20.226  0.00  0.00    +0.000 HD
ENDBRANCH  13  14
ENDBRANCH   2  13
TORSDOF 4
ENDMDL
MODEL 3
REMARK VINA RESULT:      -7.4      2.445      3.525
REMARK  Name = 
REMARK  5 active torsions:
REMARK  status: ('A' for Active; 'I' for Inactive)
REMARK    1  A    between atoms: C_1  and  C_2
REMARK    2  A    between atoms: C_2  and  C_3
REMARK    3  A    between atoms: C_2  and  C_10
REMARK    4  A    between atoms: C_3  and  C_4
REMARK    5  A    between atoms: C_13  and  C_14
REMARK                            x       y       z     vdW  Elec       q    Type
REMARK                         _______ _______ _______ _____ _____    ______ ____
ROOT
ATOM      1  C   UNL     1       7.222   5.910  18.467  0.00  0.00    +0.000 C 
ATOM      2  C   UNL     1       5.893   6.280  17.786  0.00  0.00    +0.000 C 
ENDROOT
BRANCH   2   3
ATOM      3  C   UNL     1       4.671   5.532  18.312  0.00  0.00    +0.000 A 
ATOM      4  C   UNL     1       3.359   5.930  18.017  0.00  0.00    +0.000 A 
ATOM      5  C   UNL     1       2.259   5.187  18.452  0.00  0.00    +0.000 A 
ATOM      6  C   UNL     1       2.438   4.021  19.204  0.00  0.00    +0.000 A 
ATOM      7  C   UNL     1       3.743   3.625  19.525  0.00  0.00    +0.000 A 
ATOM      8  C   UNL     1       4.843   4.366  19.079  0.00  0.00    +0.000 A 
BRANCH   6   9
ATOM      9  C   UNL     1       1.258   3.193  19.645  0.00  0.00    +0.000 C 
ATOM     10  F   UNL     1       0.561   2.640  18.612  0.00  0.00    +0.000 F 
ATOM     11  F   UNL     1       1.624   2.150  20.444  0.00  0.00    +0.000 F 
ATOM     12  F   UNL     1       0.352   3.912  20.362  0.00  0.00    +0.000 F 
ENDBRANCH   6   9
ENDBRANCH   2   3
BRANCH   2  13
ATOM     13  C   UNL     1       6.015   6.261  16.240  0.00  0.00    +0.000 C 
BRANCH  13  14
ATOM     14  C   UNL     1       6.784   5.080  15.639  0.00  0.00    +0.000 C 
ATOM     15  C   UNL     1       5.857   3.950  15.209  0.00  0.00    +0.000 C 
ATOM     16  O   UNL     1       6.245   3.638  13.875  0.00  0.00    +0.000 OA
ATOM     17  C   UNL     1       7.093   4.626  13.525  0.00  0.00    +0.000 C 
ATOM     18  N   UNL     1       7.483   4.588  12.238  0.00  0.00    +0.000 N 
ATOM     19  N   UNL     1       7.468   5.483  14.406  0.00  0.00    +0.000 NA
ATOM     20  H   UNL     1       7.445   3.668  11.824  0.00  0.00    +0.000 HD
ATOM     21  H   UNL     1       8.338   5.101  12.071  0.00  0.00    +0.000 HD
ENDBRANCH  13  14
ENDBRANCH   2  13
TORSDOF 4
ENDMDL
MODEL 4
REMARK VINA RESULT:      -7.4      1.167      1.784
REMARK  Name = 
REMARK  5 active torsions:
REMARK  status: ('A' for Active; 'I' for Inactive)
REMARK    1  A    between atoms: C_1  and  C_2
REMARK    2  A    between atoms: C_2  and  C_3
REMARK    3  A    between atoms: C_2  and  C_10
REMARK    4  A    between atoms: C_3  and  C_4
REMARK    5  A    between atoms: C_13  and  C_14
REMARK                            x       y       z     vdW  Elec       q    Type
REMARK                         _______ _______ _______ _____ _____    ______ ____
ROOT
ATOM      1  C   UNL     1       5.193   4.653  14.761  0.00  0.00    +0.000 C 
ATOM      2  C   UNL     1       5.564   3.922  16.062  0.00  0.00    +0.000 C 
ENDROOT
BRANCH   2   3
ATOM      3  C   UNL     1       4.416   3.754  17.055  0.00  0.00    +0.000 A 
ATOM      4  C   UNL     1       3.405   4.714  17.208  0.00  0.00    +0.000 A 
ATOM      5  C   UNL     1       2.328   4.503  18.071  0.00  0.00    +0.000 A 
ATOM      6  C   UNL     1       2.229   3.322  18.814  0.00  0.00    +0.000 A 
ATOM      7  C   UNL     1       3.244   2.365  18.687  0.00  0.00    +0.000 A 
ATOM      8  C   UNL     1       4.317   2.575  17.814  0.00  0.00    +0.000 A 
BRANCH   6   9
ATOM      9  C   UNL     1       1.050   3.070  19.719  0.00  0.00    +0.000 C 
ATOM     10  F   UNL     1       0.014   2.436  19.102  0.00  0.00    +0.000 F 
ATOM     11  F   UNL     1       1.374   2.293  20.791  0.00  0.00    +0.000 F 
ATOM     12  F   UNL     1       0.530   4.218  20.235  0.00  0.00    +0.000 F 
ENDBRANCH   6   9
ENDBRANCH   2   3
BRANCH   2  13
ATOM     13  C   UNL     1       6.856   4.499  16.698  0.00  0.00    +0.000 C 
BRANCH  13  14
ATOM     14  C   UNL     1       6.659   5.623  17.720  0.00  0.00    +0.000 C 
ATOM     15  C   UNL     1       7.750   5.630  18.783  0.00  0.00    +0.000 C 
ATOM     16  O   UNL     1       8.215   6.975  18.829  0.00  0.00    +0.000 OA
ATOM     17  C   UNL     1       7.643   7.572  17.765  0.00  0.00    +0.000 C 
ATOM     18  N   UNL     1       8.058   8.834  17.550  0.00  0.00    +0.000 N 
ATOM     19  N   UNL     1       6.769   6.934  17.073  0.00  0.00    +0.000 NA
ATOM     20  H   UNL     1       8.396   9.301  18.379  0.00  0.00    +0.000 HD
ATOM     21  H   UNL     1       7.413   9.369  16.986  0.00  0.00    +0.000 HD
ENDBRANCH  13  14
ENDBRANCH   2  13
TORSDOF 4
ENDMDL
MODEL 5
REMARK VINA RESULT:      -7.4      2.462      3.618
REMARK  Name = 
REMARK  5 active torsions:
REMARK  status: ('A' for Active; 'I' for Inactive)
REMARK    1  A    between atoms: C_1  and  C_2
REMARK    2  A    between atoms: C_2  and  C_3
REMARK    3  A    between atoms: C_2  and  C_10
REMARK    4  A    between atoms: C_3  and  C_4
REMARK    5  A    between atoms: C_13  and  C_14
REMARK                            x       y       z     vdW  Elec       q    Type
REMARK                         _______ _______ _______ _____ _____    ______ ____
ROOT
ATOM      1  C   UNL     1       7.330   5.506  18.607  0.00  0.00    +0.000 C 
ATOM      2  C   UNL     1       6.030   5.975  17.933  0.00  0.00    +0.000 C 
ENDROOT
BRANCH   2   3
ATOM      3  C   UNL     1       4.781   5.191  18.329  0.00  0.00    +0.000 A 
ATOM      4  C   UNL     1       3.524   5.439  17.759  0.00  0.00    +0.000 A 
ATOM      5  C   UNL     1       2.412   4.660  18.087  0.00  0.00    +0.000 A 
ATOM      6  C   UNL     1       2.522   3.608  19.003  0.00  0.00    +0.000 A 
ATOM      7  C   UNL     1       3.768   3.365  19.596  0.00  0.00    +0.000 A 
ATOM      8  C   UNL     1       4.882   4.141  19.258  0.00  0.00    +0.000 A 
BRANCH   6   9
ATOM      9  C   UNL     1       1.336   2.739  19.333  0.00  0.00    +0.000 C 
ATOM     10  F   UNL     1       0.752   3.043  20.527  0.00  0.00    +0.000 F 
ATOM     11  F   UNL     1       0.345   2.835  18.402  0.00  0.00    +0.000 F 
ATOM     12  F   UNL     1       1.656   1.417  19.401  0.00  0.00    +0.000 F 
ENDBRANCH   6   9
ENDBRANCH   2   3
BRANCH   2  13
ATOM     13  C   UNL     1       6.202   6.136  16.400  0.00  0.00    +0.000 C 
BRANCH  13  14
ATOM     14  C   UNL     1       6.916   4.989  15.678  0.00  0.00    +0.000 C 
ATOM     15  C   UNL     1       5.941   3.931  15.178  0.00  0.00    +0.000 C 
ATOM     16  O   UNL     1       6.286   3.725  13.812  0.00  0.00    +0.000 OA
ATOM     17  C   UNL     1       7.157   4.712  13.526  0.00  0.00    +0.000 C 
ATOM     18  N   UNL     1       7.514   4.775  12.230  0.00  0.00    +0.000 N 
ATOM     19  N   UNL     1       7.582   5.476  14.467  0.00  0.00    +0.000 NA
ATOM     20  H   UNL     1       7.434   3.896  11.739  0.00  0.00    +0.000 HD
ATOM     21  H   UNL     1       8.381   5.273  12.085  0.00  0.00    +0.000 HD
ENDBRANCH  13  14
ENDBRANCH   2  13
TORSDOF 4
ENDMDL
MODEL 6
REMARK VINA RESULT:      -7.4      2.434      3.393
REMARK  Name = 
REMARK  5 active torsions:
REMARK  status: ('A' for Active; 'I' for Inactive)
REMARK    1  A    between atoms: C_1  and  C_2
REMARK    2  A    between atoms: C_2  and  C_3
REMARK    3  A    between atoms: C_2  and  C_10
REMARK    4  A    between atoms: C_3  and  C_4
REMARK    5  A    between atoms: C_13  and  C_14
REMARK                            x       y       z     vdW  Elec       q    Type
REMARK                         _______ _______ _______ _____ _____    ______ ____
ROOT
ATOM      1  C   UNL     1       7.276   5.649  18.598  0.00  0.00    +0.000 C 
ATOM      2  C   UNL     1       5.959   6.006  17.889  0.00  0.00    +0.000 C 
ENDROOT
BRANCH   2   3
ATOM      3  C   UNL     1       4.765   5.137  18.277  0.00  0.00    +0.000 A 
ATOM      4  C   UNL     1       4.855   4.115  19.234  0.00  0.00    +0.000 A 
ATOM      5  C   UNL     1       3.731   3.383  19.623  0.00  0.00    +0.000 A 
ATOM      6  C   UNL     1       2.478   3.647  19.060  0.00  0.00    +0.000 A 
ATOM      7  C   UNL     1       2.379   4.649  18.086  0.00  0.00    +0.000 A 
ATOM      8  C   UNL     1       3.505   5.388  17.707  0.00  0.00    +0.000 A 
BRANCH   6   9
ATOM      9  C   UNL     1       1.254   2.886  19.502  0.00  0.00    +0.000 C 
ATOM     10  F   UNL     1       0.358   2.662  18.498  0.00  0.00    +0.000 F 
ATOM     11  F   UNL     1       1.559   1.657  20.006  0.00  0.00    +0.000 F 
ATOM     12  F   UNL     1       0.561   3.529  20.481  0.00  0.00    +0.000 F 
ENDBRANCH   6   9
ENDBRANCH   2   3
BRANCH   2  13
ATOM     13  C   UNL     1       6.151   6.150  16.357  0.00  0.00    +0.000 C 
BRANCH  13  14
ATOM     14  C   UNL     1       6.897   5.007  15.661  0.00  0.00    +0.000 C 
ATOM     15  C   UNL     1       5.954   3.906  15.194  0.00  0.00    +0.000 C 
ATOM     16  O   UNL     1       6.298   3.676  13.832  0.00  0.00    +0.000 OA
ATOM     17  C   UNL     1       7.136   4.682  13.515  0.00  0.00    +0.000 C 
ATOM     18  N   UNL     1       7.484   4.723  12.216  0.00  0.00    +0.000 N 
ATOM     19  N   UNL     1       7.541   5.485  14.433  0.00  0.00    +0.000 NA
ATOM     20  H   UNL     1       7.430   3.829  11.748  0.00  0.00    +0.000 HD
ATOM     21  H   UNL     1       8.334   5.245  12.052  0.00  0.00    +0.000 HD
ENDBRANCH  13  14
ENDBRANCH   2  13
TORSDOF 4
ENDMDL
MODEL 7
REMARK VINA RESULT:      -7.3      1.187      1.689
REMARK  Name = 
REMARK  5 active torsions:
REMARK  status: ('A' for Active; 'I' for Inactive)
REMARK    1  A    between atoms: C_1  and  C_2
REMARK    2  A    between atoms: C_2  and  C_3
REMARK    3  A    between atoms: C_2  and  C_10
REMARK    4  A    between atoms: C_3  and  C_4
REMARK    5  A    between atoms: C_13  and  C_14
REMARK                            x       y       z     vdW  Elec       q    Type
REMARK                         _______ _______ _______ _____ _____    ______ ____
ROOT
ATOM      1  C   UNL     1       5.201   4.759  14.826  0.00  0.00    +0.000 C 
ATOM      2  C   UNL     1       5.554   3.973  16.101  0.00  0.00    +0.000 C 
ENDROOT
BRANCH   2   3
ATOM      3  C   UNL     1       4.398   3.786  17.081  0.00  0.00    +0.000 A 
ATOM      4  C   UNL     1       4.191   2.589  17.782  0.00  0.00    +0.000 A 
ATOM      5  C   UNL     1       3.168   2.469  18.726  0.00  0.00    +0.000 A 
ATOM      6  C   UNL     1       2.315   3.544  18.995  0.00  0.00    +0.000 A 
ATOM      7  C   UNL     1       2.496   4.737  18.283  0.00  0.00    +0.000 A 
ATOM      8  C   UNL     1       3.528   4.858  17.346  0.00  0.00    +0.000 A 
BRANCH   6   9
ATOM      9  C   UNL     1       1.233   3.433  20.039  0.00  0.00    +0.000 C 
ATOM     10  F   UNL     1       0.754   4.639  20.459  0.00  0.00    +0.000 F 
ATOM     11  F   UNL     1       0.147   2.740  19.591  0.00  0.00    +0.000 F 
ATOM     12  F   UNL     1       1.651   2.787  21.162  0.00  0.00    +0.000 F 
ENDBRANCH   6   9
ENDBRANCH   2   3
BRANCH   2  13
ATOM     13  C   UNL     1       6.851   4.504  16.764  0.00  0.00    +0.000 C 
BRANCH  13  14
ATOM     14  C   UNL     1       6.670   5.619  17.800  0.00  0.00    +0.000 C 
ATOM     15  C   UNL     1       7.790   5.631  18.832  0.00  0.00    +0.000 C 
ATOM     16  O   UNL     1       8.240   6.981  18.875  0.00  0.00    +0.000 OA
ATOM     17  C   UNL     1       7.632   7.579  17.832  0.00  0.00    +0.000 C 
ATOM     18  N   UNL     1       8.027   8.847  17.615  0.00  0.00    +0.000 N 
ATOM     19  N   UNL     1       6.747   6.935  17.159  0.00  0.00    +0.000 NA
ATOM     20  H   UNL     1       8.383   9.312  18.438  0.00  0.00    +0.000 HD
ATOM     21  H   UNL     1       7.361   9.379  17.073  0.00  0.00    +0.000 HD
ENDBRANCH  13  14
ENDBRANCH   2  13
TORSDOF 4
ENDMDL
MODEL 8
REMARK VINA RESULT:      -7.3      2.446      3.575
REMARK  Name = 
REMARK  5 active torsions:
REMARK  status: ('A' for Active; 'I' for Inactive)
REMARK    1  A    between atoms: C_1  and  C_2
REMARK    2  A    between atoms: C_2  and  C_3
REMARK    3  A    between atoms: C_2  and  C_10
REMARK    4  A    between atoms: C_3  and  C_4
REMARK    5  A    between atoms: C_13  and  C_14
REMARK                            x       y       z     vdW  Elec       q    Type
REMARK                         _______ _______ _______ _____ _____    ______ ____
ROOT
ATOM      1  C   UNL     1       7.457   5.126  18.732  0.00  0.00    +0.000 C 
ATOM      2  C   UNL     1       6.131   5.778  18.301  0.00  0.00    +0.000 C 
ENDROOT
BRANCH   2   3
ATOM      3  C   UNL     1       4.881   5.171  18.934  0.00  0.00    +0.000 A 
ATOM      4  C   UNL     1       3.756   5.939  19.265  0.00  0.00    +0.000 A 
ATOM      5  C   UNL     1       2.598   5.348  19.776  0.00  0.00    +0.000 A 
ATOM      6  C   UNL     1       2.532   3.965  19.977  0.00  0.00    +0.000 A 
ATOM      7  C   UNL     1       3.658   3.190  19.672  0.00  0.00    +0.000 A 
ATOM      8  C   UNL     1       4.812   3.784  19.150  0.00  0.00    +0.000 A 
BRANCH   6   9
ATOM      9  C   UNL     1       1.273   3.315  20.493  0.00  0.00    +0.000 C 
ATOM     10  F   UNL     1       0.192   4.146  20.499  0.00  0.00    +0.000 F 
ATOM     11  F   UNL     1       0.904   2.234  19.749  0.00  0.00    +0.000 F 
ATOM     12  F   UNL     1       1.401   2.863  21.770  0.00  0.00    +0.000 F 
ENDBRANCH   6   9
ENDBRANCH   2   3
BRANCH   2  13
ATOM     13  C   UNL     1       6.038   5.929  16.761  0.00  0.00    +0.000 C 
BRANCH  13  14
ATOM     14  C   UNL     1       6.841   4.918  15.935  0.00  0.00    +0.000 C 
ATOM     15  C   UNL     1       5.941   3.982  15.140  0.00  0.00    +0.000 C 
ATOM     16  O   UNL     1       6.448   4.019  13.810  0.00  0.00    +0.000 OA
ATOM     17  C   UNL     1       7.341   5.028  13.812  0.00  0.00    +0.000 C 
ATOM     18  N   UNL     1       7.851   5.316  12.601  0.00  0.00    +0.000 N 
ATOM     19  N   UNL     1       7.645   5.605  14.919  0.00  0.00    +0.000 NA
ATOM     20  H   UNL     1       7.836   4.541  11.954  0.00  0.00    +0.000 HD
ATOM     21  H   UNL     1       8.725   5.820  12.652  0.00  0.00    +0.000 HD
ENDBRANCH  13  14
ENDBRANCH   2  13
TORSDOF 4
ENDMDL
MODEL 9
REMARK VINA RESULT:      -7.3      1.548      2.023
REMARK  Name = 
REMARK  5 active torsions:
REMARK  status: ('A' for Active; 'I' for Inactive)
REMARK    1  A    between atoms: C_1  and  C_2
REMARK    2  A    between atoms: C_2  and  C_3
REMARK    3  A    between atoms: C_2  and  C_10
REMARK    4  A    between atoms: C_3  and  C_4
REMARK    5  A    between atoms: C_13  and  C_14
REMARK                            x       y       z     vdW  Elec       q    Type
REMARK                         _______ _______ _______ _____ _____    ______ ____
ROOT
ATOM      1  C   UNL     1       5.278   4.432  15.025  0.00  0.00    +0.000 C 
ATOM      2  C   UNL     1       5.741   4.046  16.440  0.00  0.00    +0.000 C 
ENDROOT
BRANCH   2   3
ATOM      3  C   UNL     1       4.646   4.067  17.503  0.00  0.00    +0.000 A 
ATOM      4  C   UNL     1       4.799   3.454  18.755  0.00  0.00    +0.000 A 
ATOM      5  C   UNL     1       3.810   3.550  19.737  0.00  0.00    +0.000 A 
ATOM      6  C   UNL     1       2.630   4.261  19.493  0.00  0.00    +0.000 A 
ATOM      7  C   UNL     1       2.454   4.858  18.237  0.00  0.00    +0.000 A 
ATOM      8  C   UNL     1       3.452   4.768  17.260  0.00  0.00    +0.000 A 
BRANCH   6   9
ATOM      9  C   UNL     1       1.573   4.401  20.559  0.00  0.00    +0.000 C 
ATOM     10  F   UNL     1       1.892   3.777  21.729  0.00  0.00    +0.000 F 
ATOM     11  F   UNL     1       1.336   5.702  20.888  0.00  0.00    +0.000 F 
ATOM     12  F   UNL     1       0.372   3.887  20.179  0.00  0.00    +0.000 F 
ENDBRANCH   6   9
ENDBRANCH   2   3
BRANCH   2  13
ATOM     13  C   UNL     1       7.025   4.811  16.854  0.00  0.00    +0.000 C 
BRANCH  13  14
ATOM     14  C   UNL     1       6.832   5.962  17.847  0.00  0.00    +0.000 C 
ATOM     15  C   UNL     1       7.911   5.981  18.921  0.00  0.00    +0.000 C 
ATOM     16  O   UNL     1       8.393   7.321  18.940  0.00  0.00    +0.000 OA
ATOM     17  C   UNL     1       7.840   7.899  17.856  0.00  0.00    +0.000 C 
ATOM     18  N   UNL     1       8.274   9.150  17.616  0.00  0.00    +0.000 N 
ATOM     19  N   UNL     1       6.966   7.255  17.169  0.00  0.00    +0.000 NA
ATOM     20  H   UNL     1       8.610   9.632  18.437  0.00  0.00    +0.000 HD
ATOM     21  H   UNL     1       7.643   9.680  17.031  0.00  0.00    +0.000 HD
ENDBRANCH  13  14
ENDBRANCH   2  13
TORSDOF 4
ENDMDL
