MODEL 1
REMARK VINA RESULT:      -6.3      0.000      0.000
REMARK  Name = 
REMARK  5 active torsions:
REMARK  status: ('A' for Active; 'I' for Inactive)
REMARK    1  A    between atoms: N_3  and  C_4
REMARK    2  A    between atoms: C_21  and  C_22
REMARK    3  A    between atoms: C_22  and  O_23
REMARK    4  A    between atoms: N_24  and  C_25
REMARK    5  A    between atoms: C_25  and  C_26
REMARK                            x       y       z     vdW  Elec       q    Type
REMARK                         _______ _______ _______ _____ _____    ______ ____
ROOT
ATOM      1  O   UNL     1      -0.855   9.882  18.673  0.00  0.00    +0.000 OA
ATOM      2  C   UNL     1       0.180  10.546  18.613  0.00  0.00    +0.000 C 
ATOM      3  N   UNL     1       1.457  10.013  18.808  0.00  0.00    +0.000 N 
ATOM      4  N   UNL     1       0.154  11.971  18.465  0.00  0.00    +0.000 N 
ATOM      5  C   UNL     1      -1.135  12.650  18.808  0.00  0.00    +0.000 C 
ATOM      6  C   UNL     1      -1.336  12.606  20.340  0.00  0.00    +0.000 C 
ATOM      7  C   UNL     1       0.042  12.052  21.113  0.00  0.00    +0.000 C 
ATOM      8  C   UNL     1       1.311  12.801  20.370  0.00  0.00    +0.000 A 
ATOM      9  C   UNL     1       2.216  13.717  20.919  0.00  0.00    +0.000 A 
ATOM     10  C   UNL     1       2.917  14.601  20.083  0.00  0.00    +0.000 A 
ATOM     11  C   UNL     1       2.740  14.571  18.693  0.00  0.00    +0.000 A 
ATOM     12  C   UNL     1       1.896  13.630  18.121  0.00  0.00    +0.000 A 
ATOM     13  C   UNL     1       1.229  12.750  18.960  0.00  0.00    +0.000 A 
ATOM     14  C   UNL     1      -0.687  12.683  22.311  0.00  0.00    +0.000 C 
ATOM     15  N   UNL     1      -1.042  13.762  21.277  0.00  0.00    +0.000 NA
ATOM     16  H   UNL     1       2.175  10.682  19.043  0.00  0.00    +0.000 HD
ENDROOT
BRANCH   3  17
ATOM     17  C   UNL     1       1.746   8.665  19.143  0.00  0.00    +0.000 A 
ATOM     18  C   UNL     1       1.517   8.129  20.404  0.00  0.00    +0.000 A 
ATOM     19  C   UNL     1       1.816   6.786  20.670  0.00  0.00    +0.000 A 
ATOM     20  C   UNL     1       2.374   5.986  19.695  0.00  0.00    +0.000 A 
ATOM     21 CL   UNL     1       2.783   4.348  20.026  0.00  0.00    +0.000 Cl
ATOM     22  C   UNL     1       2.606   6.501  18.417  0.00  0.00    +0.000 A 
ATOM     23  C   UNL     1       2.266   7.834  18.137  0.00  0.00    +0.000 A 
ENDBRANCH   3  17
BRANCH  14  24
ATOM     24  C   UNL     1      -1.722  11.632  22.819  0.00  0.00    +0.000 C 
BRANCH  24  25
ATOM     25  O   UNL     1      -2.704  12.240  23.642  0.00  0.00    +0.000 OA
ATOM     26  H   UNL     1      -3.134  11.515  24.129  0.00  0.00    +0.000 HD
ENDBRANCH  24  25
ENDBRANCH  14  24
BRANCH  15  27
ATOM     27  C   UNL     1      -2.026  14.695  21.771  0.00  0.00    +0.000 C 
BRANCH  27  28
ATOM     28  C   UNL     1      -1.848  16.091  21.137  0.00  0.00    +0.000 C 
ATOM     29  C   UNL     1      -0.824  16.108  19.999  0.00  0.00    +0.000 C 
ATOM     30  C   UNL     1      -1.054  17.451  19.312  0.00  0.00    +0.000 C 
ATOM     31  C   UNL     1      -2.533  17.766  19.513  0.00  0.00    +0.000 C 
ATOM     32  C   UNL     1      -3.082  16.665  20.424  0.00  0.00    +0.000 C 
ENDBRANCH  27  28
ENDBRANCH  15  27
TORSDOF 5
ENDMDL
MODEL 2
REMARK VINA RESULT:      -6.2      0.679      1.305
REMARK  Name = 
REMARK  5 active torsions:
REMARK  status: ('A' for Active; 'I' for Inactive)
REMARK    1  A    between atoms: N_3  and  C_4
REMARK    2  A    between atoms: C_21  and  C_22
REMARK    3  A    between atoms: C_22  and  O_23
REMARK    4  A    between atoms: N_24  and  C_25
REMARK    5  A    between atoms: C_25  and  C_26
REMARK                            x       y       z     vdW  Elec       q    Type
REMARK                         _______ _______ _______ _____ _____    ______ ____
ROOT
ATOM      1  O   UNL     1      -0.839   9.841  18.646  0.00  0.00    +0.000 OA
ATOM      2  C   UNL     1       0.189  10.515  18.594  0.00  0.00    +0.000 C 
ATOM      3  N   UNL     1       1.473   9.989  18.768  0.00  0.00    +0.000 N 
ATOM      4  N   UNL     1       0.150  11.943  18.481  0.00  0.00    +0.000 N 
ATOM      5  C   UNL     1      -1.142  12.602  18.849  0.00  0.00    +0.000 C 
ATOM      6  C   UNL     1      -1.331  12.520  20.382  0.00  0.00    +0.000 C 
ATOM      7  C   UNL     1       0.058  11.960  21.131  0.00  0.00    +0.000 C 
ATOM      8  C   UNL     1       1.314  12.737  20.397  0.00  0.00    +0.000 A 
ATOM      9  C   UNL     1       2.216  13.648  20.961  0.00  0.00    +0.000 A 
ATOM     10  C   UNL     1       2.903  14.558  20.141  0.00  0.00    +0.000 A 
ATOM     11  C   UNL     1       2.715  14.560  18.752  0.00  0.00    +0.000 A 
ATOM     12  C   UNL     1       1.875  13.625  18.164  0.00  0.00    +0.000 A 
ATOM     13  C   UNL     1       1.222  12.720  18.987  0.00  0.00    +0.000 A 
ATOM     14  C   UNL     1      -0.668  12.556  22.349  0.00  0.00    +0.000 C 
ATOM     15  N   UNL     1      -1.040  13.656  21.344  0.00  0.00    +0.000 NA
ATOM     16  H   UNL     1       2.186  10.658  19.013  0.00  0.00    +0.000 HD
ENDROOT
BRANCH   3  17
ATOM     17  C   UNL     1       1.775   8.636  19.067  0.00  0.00    +0.000 A 
ATOM     18  C   UNL     1       2.319   7.756  18.140  0.00  0.00    +0.000 A 
ATOM     19  C   UNL     1       2.603   6.431  18.500  0.00  0.00    +0.000 A 
ATOM     20  C   UNL     1       2.315   5.973  19.769  0.00  0.00    +0.000 A 
ATOM     21 CL   UNL     1       2.622   4.337  20.205  0.00  0.00    +0.000 Cl
ATOM     22  C   UNL     1       1.776   6.842  20.720  0.00  0.00    +0.000 A 
ATOM     23  C   UNL     1       1.530   8.180  20.373  0.00  0.00    +0.000 A 
ENDBRANCH   3  17
BRANCH  14  24
ATOM     24  C   UNL     1      -1.690  11.483  22.840  0.00  0.00    +0.000 C 
BRANCH  24  25
ATOM     25  O   UNL     1      -2.703  12.072  23.638  0.00  0.00    +0.000 OA
ATOM     26  H   UNL     1      -2.325  12.161  24.531  0.00  0.00    +0.000 HD
ENDBRANCH  24  25
ENDBRANCH  14  24
BRANCH  15  27
ATOM     27  C   UNL     1      -2.029  14.568  21.867  0.00  0.00    +0.000 C 
BRANCH  27  28
ATOM     28  C   UNL     1      -1.634  16.038  21.607  0.00  0.00    +0.000 C 
ATOM     29  C   UNL     1      -0.667  16.594  22.656  0.00  0.00    +0.000 C 
ATOM     30  C   UNL     1      -0.155  17.892  22.037  0.00  0.00    +0.000 C 
ATOM     31  C   UNL     1      -0.187  17.667  20.528  0.00  0.00    +0.000 C 
ATOM     32  C   UNL     1      -0.843  16.300  20.316  0.00  0.00    +0.000 C 
ENDBRANCH  27  28
ENDBRANCH  15  27
TORSDOF 5
ENDMDL
MODEL 3
REMARK VINA RESULT:      -6.1      0.693      1.118
REMARK  Name = 
REMARK  5 active torsions:
REMARK  status: ('A' for Active; 'I' for Inactive)
REMARK    1  A    between atoms: N_3  and  C_4
REMARK    2  A    between atoms: C_21  and  C_22
REMARK    3  A    between atoms: C_22  and  O_23
REMARK    4  A    between atoms: N_24  and  C_25
REMARK    5  A    between atoms: C_25  and  C_26
REMARK                            x       y       z     vdW  Elec       q    Type
REMARK                         _______ _______ _______ _____ _____    ______ ____
ROOT
ATOM      1  O   UNL     1      -0.976   9.914  18.735  0.00  0.00    +0.000 OA
ATOM      2  C   UNL     1      -0.001  10.660  18.652  0.00  0.00    +0.000 C 
ATOM      3  N   UNL     1       1.324  10.216  18.707  0.00  0.00    +0.000 N 
ATOM      4  N   UNL     1      -0.142  12.085  18.624  0.00  0.00    +0.000 N 
ATOM      5  C   UNL     1      -1.445  12.632  19.116  0.00  0.00    +0.000 C 
ATOM      6  C   UNL     1      -1.518  12.457  20.650  0.00  0.00    +0.000 C 
ATOM      7  C   UNL     1      -0.045  11.957  21.270  0.00  0.00    +0.000 C 
ATOM      8  C   UNL     1       1.101  12.857  20.498  0.00  0.00    +0.000 A 
ATOM      9  C   UNL     1       1.979  13.798  21.050  0.00  0.00    +0.000 A 
ATOM     10  C   UNL     1       2.544  14.796  20.239  0.00  0.00    +0.000 A 
ATOM     11  C   UNL     1       2.257  14.857  18.868  0.00  0.00    +0.000 A 
ATOM     12  C   UNL     1       1.440  13.898  18.286  0.00  0.00    +0.000 A 
ATOM     13  C   UNL     1       0.909  12.908  19.098  0.00  0.00    +0.000 A 
ATOM     14  C   UNL     1      -0.719  12.436  22.567  0.00  0.00    +0.000 C 
ATOM     15  N   UNL     1      -1.234  13.558  21.654  0.00  0.00    +0.000 NA
ATOM     16  H   UNL     1       2.007  10.920  18.941  0.00  0.00    +0.000 HD
ENDROOT
BRANCH   3  17
ATOM     17  C   UNL     1       1.736   8.874  18.907  0.00  0.00    +0.000 A 
ATOM     18  C   UNL     1       2.299   8.094  17.905  0.00  0.00    +0.000 A 
ATOM     19  C   UNL     1       2.694   6.775  18.168  0.00  0.00    +0.000 A 
ATOM     20  C   UNL     1       2.496   6.221  19.416  0.00  0.00    +0.000 A 
ATOM     21 CL   UNL     1       2.939   4.589  19.734  0.00  0.00    +0.000 Cl
ATOM     22  C   UNL     1       1.939   6.988  20.441  0.00  0.00    +0.000 A 
ATOM     23  C   UNL     1       1.583   8.323  20.190  0.00  0.00    +0.000 A 
ENDBRANCH   3  17
BRANCH  14  24
ATOM     24  C   UNL     1      -1.629  11.270  23.064  0.00  0.00    +0.000 C 
BRANCH  24  25
ATOM     25  O   UNL     1      -0.854  10.211  23.599  0.00  0.00    +0.000 OA
ATOM     26  H   UNL     1      -1.394   9.406  23.503  0.00  0.00    +0.000 HD
ENDBRANCH  24  25
ENDBRANCH  14  24
BRANCH  15  27
ATOM     27  C   UNL     1      -2.240  14.370  22.295  0.00  0.00    +0.000 C 
BRANCH  27  28
ATOM     28  C   UNL     1      -2.245  15.809  21.735  0.00  0.00    +0.000 C 
ATOM     29  C   UNL     1      -1.036  16.111  20.846  0.00  0.00    +0.000 C 
ATOM     30  C   UNL     1      -1.407  17.415  20.145  0.00  0.00    +0.000 C 
ATOM     31  C   UNL     1      -2.928  17.399  20.027  0.00  0.00    +0.000 C 
ATOM     32  C   UNL     1      -3.399  16.153  20.782  0.00  0.00    +0.000 C 
ENDBRANCH  27  28
ENDBRANCH  15  27
TORSDOF 5
ENDMDL
MODEL 4
REMARK VINA RESULT:      -6.1      3.733      5.700
REMARK  Name = 
REMARK  5 active torsions:
REMARK  status: ('A' for Active; 'I' for Inactive)
REMARK    1  A    between atoms: N_3  and  C_4
REMARK    2  A    between atoms: C_21  and  C_22
REMARK    3  A    between atoms: C_22  and  O_23
REMARK    4  A    between atoms: N_24  and  C_25
REMARK    5  A    between atoms: C_25  and  C_26
REMARK                            x       y       z     vdW  Elec       q    Type
REMARK                         _______ _______ _______ _____ _____    ______ ____
ROOT
ATOM      1  O   UNL     1      -0.085  12.003  19.061  0.00  0.00    +0.000 OA
ATOM      2  C   UNL     1      -1.007  11.797  19.850  0.00  0.00    +0.000 C 
ATOM      3  N   UNL     1      -2.262  11.315  19.469  0.00  0.00    +0.000 N 
ATOM      4  N   UNL     1      -0.912  12.165  21.232  0.00  0.00    +0.000 N 
ATOM      5  C   UNL     1       0.143  13.166  21.581  0.00  0.00    +0.000 C 
ATOM      6  C   UNL     1      -0.276  14.551  21.036  0.00  0.00    +0.000 C 
ATOM      7  C   UNL     1      -1.852  14.524  20.471  0.00  0.00    +0.000 C 
ATOM      8  C   UNL     1      -2.719  13.671  21.585  0.00  0.00    +0.000 A 
ATOM      9  C   UNL     1      -3.760  14.125  22.405  0.00  0.00    +0.000 A 
ATOM     10  C   UNL     1      -4.067  13.445  23.595  0.00  0.00    +0.000 A 
ATOM     11  C   UNL     1      -3.357  12.298  23.972  0.00  0.00    +0.000 A 
ATOM     12  C   UNL     1      -2.363  11.792  23.145  0.00  0.00    +0.000 A 
ATOM     13  C   UNL     1      -2.089  12.464  21.963  0.00  0.00    +0.000 A 
ATOM     14  C   UNL     1      -1.648  16.044  20.589  0.00  0.00    +0.000 C 
ATOM     15  N   UNL     1      -0.906  15.648  21.874  0.00  0.00    +0.000 NA
ATOM     16  H   UNL     1      -3.009  11.483  20.127  0.00  0.00    +0.000 HD
ENDROOT
BRANCH   3  17
ATOM     17  C   UNL     1      -2.671  11.039  18.140  0.00  0.00    +0.000 A 
ATOM     18  C   UNL     1      -3.777  11.633  17.545  0.00  0.00    +0.000 A 
ATOM     19  C   UNL     1      -4.126  11.324  16.223  0.00  0.00    +0.000 A 
ATOM     20  C   UNL     1      -3.396  10.399  15.505  0.00  0.00    +0.000 A 
ATOM     21 CL   UNL     1      -3.842   9.983  13.896  0.00  0.00    +0.000 Cl
ATOM     22  C   UNL     1      -2.274   9.796  16.079  0.00  0.00    +0.000 A 
ATOM     23  C   UNL     1      -1.900  10.137  17.388  0.00  0.00    +0.000 A 
ENDBRANCH   3  17
BRANCH  14  24
ATOM     24  C   UNL     1      -0.907  16.506  19.297  0.00  0.00    +0.000 C 
BRANCH  24  25
ATOM     25  O   UNL     1      -1.714  17.388  18.534  0.00  0.00    +0.000 OA
ATOM     26  H   UNL     1      -2.221  17.914  19.177  0.00  0.00    +0.000 HD
ENDBRANCH  24  25
ENDBRANCH  14  24
BRANCH  15  27
ATOM     27  C   UNL     1      -0.187  16.755  22.458  0.00  0.00    +0.000 C 
BRANCH  27  28
ATOM     28  C   UNL     1      -0.470  16.876  23.971  0.00  0.00    +0.000 C 
ATOM     29  C   UNL     1      -1.621  17.833  24.293  0.00  0.00    +0.000 C 
ATOM     30  C   UNL     1      -1.947  17.543  25.755  0.00  0.00    +0.000 C 
ATOM     31  C   UNL     1      -1.599  16.073  25.970  0.00  0.00    +0.000 C 
ATOM     32  C   UNL     1      -0.957  15.594  24.665  0.00  0.00    +0.000 C 
ENDBRANCH  27  28
ENDBRANCH  15  27
TORSDOF 5
ENDMDL
MODEL 5
REMARK VINA RESULT:      -6.0      1.102      1.486
REMARK  Name = 
REMARK  5 active torsions:
REMARK  status: ('A' for Active; 'I' for Inactive)
REMARK    1  A    between atoms: N_3  and  C_4
REMARK    2  A    between atoms: C_21  and  C_22
REMARK    3  A    between atoms: C_22  and  O_23
REMARK    4  A    between atoms: N_24  and  C_25
REMARK    5  A    between atoms: C_25  and  C_26
REMARK                            x       y       z     vdW  Elec       q    Type
REMARK                         _______ _______ _______ _____ _____    ______ ____
ROOT
ATOM      1  O   UNL     1      -1.472  10.135  19.029  0.00  0.00    +0.000 OA
ATOM      2  C   UNL     1      -0.554  10.952  18.964  0.00  0.00    +0.000 C 
ATOM      3  N   UNL     1       0.798  10.609  19.047  0.00  0.00    +0.000 N 
ATOM      4  N   UNL     1      -0.801  12.363  18.929  0.00  0.00    +0.000 N 
ATOM      5  C   UNL     1      -2.151  12.811  19.394  0.00  0.00    +0.000 C 
ATOM      6  C   UNL     1      -2.242  12.632  20.927  0.00  0.00    +0.000 C 
ATOM      7  C   UNL     1      -0.748  12.244  21.577  0.00  0.00    +0.000 C 
ATOM      8  C   UNL     1       0.343  13.227  20.826  0.00  0.00    +0.000 A 
ATOM      9  C   UNL     1       1.136  14.232  21.394  0.00  0.00    +0.000 A 
ATOM     10  C   UNL     1       1.641  15.269  20.592  0.00  0.00    +0.000 A 
ATOM     11  C   UNL     1       1.379  15.307  19.216  0.00  0.00    +0.000 A 
ATOM     12  C   UNL     1       0.648  14.288  18.619  0.00  0.00    +0.000 A 
ATOM     13  C   UNL     1       0.176  13.262  19.423  0.00  0.00    +0.000 A 
ATOM     14  C   UNL     1      -1.483  12.673  22.859  0.00  0.00    +0.000 C 
ATOM     15  N   UNL     1      -2.061  13.753  21.933  0.00  0.00    +0.000 NA
ATOM     16  H   UNL     1       1.423  11.362  19.293  0.00  0.00    +0.000 HD
ENDROOT
BRANCH   3  17
ATOM     17  C   UNL     1       1.305   9.301  19.259  0.00  0.00    +0.000 A 
ATOM     18  C   UNL     1       1.945   8.564  18.270  0.00  0.00    +0.000 A 
ATOM     19  C   UNL     1       2.432   7.279  18.544  0.00  0.00    +0.000 A 
ATOM     20  C   UNL     1       2.252   6.713  19.789  0.00  0.00    +0.000 A 
ATOM     21 CL   UNL     1       2.809   5.119  20.120  0.00  0.00    +0.000 Cl
ATOM     22  C   UNL     1       1.619   7.438  20.801  0.00  0.00    +0.000 A 
ATOM     23  C   UNL     1       1.170   8.742  20.540  0.00  0.00    +0.000 A 
ENDBRANCH   3  17
BRANCH  14  24
ATOM     24  C   UNL     1      -2.314  11.443  23.340  0.00  0.00    +0.000 C 
BRANCH  24  25
ATOM     25  O   UNL     1      -3.483  11.856  24.028  0.00  0.00    +0.000 OA
ATOM     26  H   UNL     1      -3.327  11.656  24.968  0.00  0.00    +0.000 HD
ENDBRANCH  24  25
ENDBRANCH  14  24
BRANCH  15  27
ATOM     27  C   UNL     1      -3.139  14.488  22.551  0.00  0.00    +0.000 C 
BRANCH  27  28
ATOM     28  C   UNL     1      -3.332  15.869  21.889  0.00  0.00    +0.000 C 
ATOM     29  C   UNL     1      -2.092  16.350  21.130  0.00  0.00    +0.000 C 
ATOM     30  C   UNL     1      -2.600  17.522  20.295  0.00  0.00    +0.000 C 
ATOM     31  C   UNL     1      -4.064  17.210  19.997  0.00  0.00    +0.000 C 
ATOM     32  C   UNL     1      -4.394  15.937  20.781  0.00  0.00    +0.000 C 
ENDBRANCH  27  28
ENDBRANCH  15  27
TORSDOF 5
ENDMDL
MODEL 6
REMARK VINA RESULT:      -5.9      1.083      1.368
REMARK  Name = 
REMARK  5 active torsions:
REMARK  status: ('A' for Active; 'I' for Inactive)
REMARK    1  A    between atoms: N_3  and  C_4
REMARK    2  A    between atoms: C_21  and  C_22
REMARK    3  A    between atoms: C_22  and  O_23
REMARK    4  A    between atoms: N_24  and  C_25
REMARK    5  A    between atoms: C_25  and  C_26
REMARK                            x       y       z     vdW  Elec       q    Type
REMARK                         _______ _______ _______ _____ _____    ______ ____
ROOT
ATOM      1  O   UNL     1      -0.635   9.756  18.508  0.00  0.00    +0.000 OA
ATOM      2  C   UNL     1       0.344  10.499  18.447  0.00  0.00    +0.000 C 
ATOM      3  N   UNL     1       1.666  10.049  18.516  0.00  0.00    +0.000 N 
ATOM      4  N   UNL     1       0.209  11.925  18.430  0.00  0.00    +0.000 N 
ATOM      5  C   UNL     1      -1.099  12.473  18.909  0.00  0.00    +0.000 C 
ATOM      6  C   UNL     1      -1.194  12.283  20.441  0.00  0.00    +0.000 C 
ATOM      7  C   UNL     1       0.268  11.770  21.076  0.00  0.00    +0.000 C 
ATOM      8  C   UNL     1       1.429  12.674  20.329  0.00  0.00    +0.000 A 
ATOM      9  C   UNL     1       2.303  13.606  20.903  0.00  0.00    +0.000 A 
ATOM     10  C   UNL     1       2.883  14.609  20.110  0.00  0.00    +0.000 A 
ATOM     11  C   UNL     1       2.616  14.684  18.736  0.00  0.00    +0.000 A 
ATOM     12  C   UNL     1       1.803  13.734  18.132  0.00  0.00    +0.000 A 
ATOM     13  C   UNL     1       1.257  12.738  18.928  0.00  0.00    +0.000 A 
ATOM     14  C   UNL     1      -0.422  12.240  22.368  0.00  0.00    +0.000 C 
ATOM     15  N   UNL     1      -0.920  13.373  21.459  0.00  0.00    +0.000 NA
ATOM     16  H   UNL     1       2.349  10.748  18.767  0.00  0.00    +0.000 HD
ENDROOT
BRANCH   3  17
ATOM     17  C   UNL     1       2.069   8.703  18.709  0.00  0.00    +0.000 A 
ATOM     18  C   UNL     1       1.723   7.959  19.831  0.00  0.00    +0.000 A 
ATOM     19  C   UNL     1       2.147   6.629  19.960  0.00  0.00    +0.000 A 
ATOM     20  C   UNL     1       2.943   6.051  18.993  0.00  0.00    +0.000 A 
ATOM     21 CL   UNL     1       3.502   4.433  19.166  0.00  0.00    +0.000 Cl
ATOM     22  C   UNL     1       3.296   6.777  17.853  0.00  0.00    +0.000 A 
ATOM     23  C   UNL     1       2.837   8.095  17.702  0.00  0.00    +0.000 A 
ENDBRANCH   3  17
BRANCH  14  24
ATOM     24  C   UNL     1      -1.345  11.074  22.841  0.00  0.00    +0.000 C 
BRANCH  24  25
ATOM     25  O   UNL     1      -0.630  10.154  23.649  0.00  0.00    +0.000 OA
ATOM     26  H   UNL     1       0.030   9.739  23.067  0.00  0.00    +0.000 HD
ENDBRANCH  24  25
ENDBRANCH  14  24
BRANCH  15  27
ATOM     27  C   UNL     1      -1.932  14.183  22.093  0.00  0.00    +0.000 C 
BRANCH  27  28
ATOM     28  C   UNL     1      -1.555  15.680  22.065  0.00  0.00    +0.000 C 
ATOM     29  C   UNL     1      -0.675  16.100  23.245  0.00  0.00    +0.000 C 
ATOM     30  C   UNL     1      -0.153  17.478  22.848  0.00  0.00    +0.000 C 
ATOM     31  C   UNL     1      -0.078  17.464  21.324  0.00  0.00    +0.000 C 
ATOM     32  C   UNL     1      -0.686  16.130  20.881  0.00  0.00    +0.000 C 
ENDBRANCH  27  28
ENDBRANCH  15  27
TORSDOF 5
ENDMDL
MODEL 7
REMARK VINA RESULT:      -5.9      3.679      6.744
REMARK  Name = 
REMARK  5 active torsions:
REMARK  status: ('A' for Active; 'I' for Inactive)
REMARK    1  A    between atoms: N_3  and  C_4
REMARK    2  A    between atoms: C_21  and  C_22
REMARK    3  A    between atoms: C_22  and  O_23
REMARK    4  A    between atoms: N_24  and  C_25
REMARK    5  A    between atoms: C_25  and  C_26
REMARK                            x       y       z     vdW  Elec       q    Type
REMARK                         _______ _______ _______ _____ _____    ______ ____
ROOT
ATOM      1  O   UNL     1       1.507  15.048  19.450  0.00  0.00    +0.000 OA
ATOM      2  C   UNL     1       0.985  14.668  20.497  0.00  0.00    +0.000 C 
ATOM      3  N   UNL     1       1.636  14.668  21.734  0.00  0.00    +0.000 N 
ATOM      4  N   UNL     1      -0.313  14.060  20.516  0.00  0.00    +0.000 N 
ATOM      5  C   UNL     1      -0.815  13.528  19.211  0.00  0.00    +0.000 C 
ATOM      6  C   UNL     1      -0.009  12.262  18.840  0.00  0.00    +0.000 C 
ATOM      7  C   UNL     1       0.963  11.772  20.112  0.00  0.00    +0.000 C 
ATOM      8  C   UNL     1       0.037  11.910  21.470  0.00  0.00    +0.000 A 
ATOM      9  C   UNL     1      -0.400  10.893  22.328  0.00  0.00    +0.000 A 
ATOM     10  C   UNL     1      -1.532  11.088  23.135  0.00  0.00    +0.000 A 
ATOM     11  C   UNL     1      -2.230  12.304  23.113  0.00  0.00    +0.000 A 
ATOM     12  C   UNL     1      -1.779  13.349  22.319  0.00  0.00    +0.000 A 
ATOM     13  C   UNL     1      -0.647  13.145  21.545  0.00  0.00    +0.000 A 
ATOM     14  C   UNL     1       0.981  10.487  19.267  0.00  0.00    +0.000 C 
ATOM     15  N   UNL     1      -0.498  10.841  19.051  0.00  0.00    +0.000 NA
ATOM     16  H   UNL     1       1.237  14.061  22.434  0.00  0.00    +0.000 HD
ENDROOT
BRANCH   3  17
ATOM     17  C   UNL     1       2.983  15.054  21.956  0.00  0.00    +0.000 A 
ATOM     18  C   UNL     1       4.064  14.218  21.710  0.00  0.00    +0.000 A 
ATOM     19  C   UNL     1       5.374  14.661  21.943  0.00  0.00    +0.000 A 
ATOM     20  C   UNL     1       5.605  15.922  22.453  0.00  0.00    +0.000 A 
ATOM     21 CL   UNL     1       7.207  16.458  22.781  0.00  0.00    +0.000 Cl
ATOM     22  C   UNL     1       4.534  16.783  22.701  0.00  0.00    +0.000 A 
ATOM     23  C   UNL     1       3.225  16.355  22.427  0.00  0.00    +0.000 A 
ENDBRANCH   3  17
BRANCH  14  24
ATOM     24  C   UNL     1       2.064  10.684  18.161  0.00  0.00    +0.000 C 
BRANCH  24  25
ATOM     25  O   UNL     1       2.085   9.585  17.267  0.00  0.00    +0.000 OA
ATOM     26  H   UNL     1       1.905   8.795  17.806  0.00  0.00    +0.000 HD
ENDBRANCH  24  25
ENDBRANCH  14  24
BRANCH  15  27
ATOM     27  C   UNL     1      -1.117  10.022  18.037  0.00  0.00    +0.000 C 
BRANCH  27  28
ATOM     28  C   UNL     1      -2.195  10.808  17.259  0.00  0.00    +0.000 C 
ATOM     29  C   UNL     1      -2.670  10.085  15.996  0.00  0.00    +0.000 C 
ATOM     30  C   UNL     1      -3.933  10.840  15.589  0.00  0.00    +0.000 C 
ATOM     31  C   UNL     1      -4.533  11.367  16.890  0.00  0.00    +0.000 C 
ATOM     32  C   UNL     1      -3.529  11.018  17.992  0.00  0.00    +0.000 C 
ENDBRANCH  27  28
ENDBRANCH  15  27
TORSDOF 5
ENDMDL
MODEL 8
REMARK VINA RESULT:      -5.9      3.637      6.547
REMARK  Name = 
REMARK  5 active torsions:
REMARK  status: ('A' for Active; 'I' for Inactive)
REMARK    1  A    between atoms: N_3  and  C_4
REMARK    2  A    between atoms: C_21  and  C_22
REMARK    3  A    between atoms: C_22  and  O_23
REMARK    4  A    between atoms: N_24  and  C_25
REMARK    5  A    between atoms: C_25  and  C_26
REMARK                            x       y       z     vdW  Elec       q    Type
REMARK                         _______ _______ _______ _____ _____    ______ ____
ROOT
ATOM      1  O   UNL     1       2.097  15.285  19.495  0.00  0.00    +0.000 OA
ATOM      2  C   UNL     1       1.454  15.004  20.506  0.00  0.00    +0.000 C 
ATOM      3  N   UNL     1       2.016  14.907  21.782  0.00  0.00    +0.000 N 
ATOM      4  N   UNL     1       0.076  14.616  20.440  0.00  0.00    +0.000 N 
ATOM      5  C   UNL     1      -0.422  14.163  19.103  0.00  0.00    +0.000 C 
ATOM      6  C   UNL     1       0.188  12.780  18.781  0.00  0.00    +0.000 C 
ATOM      7  C   UNL     1       0.983  12.147  20.112  0.00  0.00    +0.000 C 
ATOM      8  C   UNL     1       0.007  12.445  21.408  0.00  0.00    +0.000 A 
ATOM      9  C   UNL     1      -0.644  11.519  22.232  0.00  0.00    +0.000 A 
ATOM     10  C   UNL     1      -1.778  11.904  22.965  0.00  0.00    +0.000 A 
ATOM     11  C   UNL     1      -2.265  13.217  22.902  0.00  0.00    +0.000 A 
ATOM     12  C   UNL     1      -1.600  14.168  22.142  0.00  0.00    +0.000 A 
ATOM     13  C   UNL     1      -0.469  13.776  21.442  0.00  0.00    +0.000 A 
ATOM     14  C   UNL     1       0.845  10.870  19.265  0.00  0.00    +0.000 C 
ATOM     15  N   UNL     1      -0.539  11.460  18.956  0.00  0.00    +0.000 NA
ATOM     16  H   UNL     1       1.479  14.379  22.454  0.00  0.00    +0.000 HD
ENDROOT
BRANCH   3  17
ATOM     17  C   UNL     1       3.390  15.070  22.092  0.00  0.00    +0.000 A 
ATOM     18  C   UNL     1       4.335  14.068  21.907  0.00  0.00    +0.000 A 
ATOM     19  C   UNL     1       5.681  14.293  22.226  0.00  0.00    +0.000 A 
ATOM     20  C   UNL     1       6.082  15.500  22.760  0.00  0.00    +0.000 A 
ATOM     21 CL   UNL     1       7.725  15.769  23.193  0.00  0.00    +0.000 Cl
ATOM     22  C   UNL     1       5.151  16.525  22.946  0.00  0.00    +0.000 A 
ATOM     23  C   UNL     1       3.810  16.315  22.588  0.00  0.00    +0.000 A 
ENDBRANCH   3  17
BRANCH  14  24
ATOM     24  C   UNL     1       2.014  10.880  18.232  0.00  0.00    +0.000 C 
BRANCH  24  25
ATOM     25  O   UNL     1       1.907   9.791  17.331  0.00  0.00    +0.000 OA
ATOM     26  H   UNL     1       2.559   9.131  17.626  0.00  0.00    +0.000 HD
ENDBRANCH  24  25
ENDBRANCH  14  24
BRANCH  15  27
ATOM     27  C   UNL     1      -1.218  10.746  17.901  0.00  0.00    +0.000 C 
BRANCH  27  28
ATOM     28  C   UNL     1      -2.750  10.783  18.090  0.00  0.00    +0.000 C 
ATOM     29  C   UNL     1      -3.207  11.862  19.075  0.00  0.00    +0.000 C 
ATOM     30  C   UNL     1      -4.715  11.952  18.853  0.00  0.00    +0.000 C 
ATOM     31  C   UNL     1      -4.937  11.583  17.390  0.00  0.00    +0.000 C 
ATOM     32  C   UNL     1      -3.569  11.160  16.847  0.00  0.00    +0.000 C 
ENDBRANCH  27  28
ENDBRANCH  15  27
TORSDOF 5
ENDMDL
MODEL 9
REMARK VINA RESULT:      -5.8      4.058      6.172
REMARK  Name = 
REMARK  5 active torsions:
REMARK  status: ('A' for Active; 'I' for Inactive)
REMARK    1  A    between atoms: N_3  and  C_4
REMARK    2  A    between atoms: C_21  and  C_22
REMARK    3  A    between atoms: C_22  and  O_23
REMARK    4  A    between atoms: N_24  and  C_25
REMARK    5  A    between atoms: C_25  and  C_26
REMARK                            x       y       z     vdW  Elec       q    Type
REMARK                         _______ _______ _______ _____ _____    ______ ____
ROOT
ATOM      1  O   UNL     1      -0.891  13.261  19.399  0.00  0.00    +0.000 OA
ATOM      2  C   UNL     1      -1.663  12.719  20.189  0.00  0.00    +0.000 C 
ATOM      3  N   UNL     1      -2.667  11.825  19.805  0.00  0.00    +0.000 N 
ATOM      4  N   UNL     1      -1.685  13.065  21.580  0.00  0.00    +0.000 N 
ATOM      5  C   UNL     1      -1.056  14.372  21.948  0.00  0.00    +0.000 C 
ATOM      6  C   UNL     1      -1.955  15.524  21.443  0.00  0.00    +0.000 C 
ATOM      7  C   UNL     1      -3.424  14.943  20.889  0.00  0.00    +0.000 C 
ATOM      8  C   UNL     1      -3.907  13.809  21.986  0.00  0.00    +0.000 A 
ATOM      9  C   UNL     1      -5.027  13.839  22.826  0.00  0.00    +0.000 A 
ATOM     10  C   UNL     1      -5.049  13.068  23.999  0.00  0.00    +0.000 A 
ATOM     11  C   UNL     1      -3.967  12.246  24.341  0.00  0.00    +0.000 A 
ATOM     12  C   UNL     1      -2.872  12.151  23.493  0.00  0.00    +0.000 A 
ATOM     13  C   UNL     1      -2.877  12.903  22.328  0.00  0.00    +0.000 A 
ATOM     14  C   UNL     1      -3.780  16.431  21.047  0.00  0.00    +0.000 C 
ATOM     15  N   UNL     1      -2.924  16.301  22.315  0.00  0.00    +0.000 NA
ATOM     16  H   UNL     1      -3.412  11.697  20.473  0.00  0.00    +0.000 HD
ENDROOT
BRANCH   3  17
ATOM     17  C   UNL     1      -2.970  11.450  18.472  0.00  0.00    +0.000 A 
ATOM     18  C   UNL     1      -4.142  11.822  17.825  0.00  0.00    +0.000 A 
ATOM     19  C   UNL     1      -4.380  11.425  16.502  0.00  0.00    +0.000 A 
ATOM     20  C   UNL     1      -3.472  10.631  15.834  0.00  0.00    +0.000 A 
ATOM     21 CL   UNL     1      -3.777  10.105  14.225  0.00  0.00    +0.000 Cl
ATOM     22  C   UNL     1      -2.283  10.251  16.462  0.00  0.00    +0.000 A 
ATOM     23  C   UNL     1      -2.023  10.683  17.772  0.00  0.00    +0.000 A 
ENDBRANCH   3  17
BRANCH  14  24
ATOM     24  C   UNL     1      -3.277  17.158  19.761  0.00  0.00    +0.000 C 
BRANCH  24  25
ATOM     25  O   UNL     1      -4.363  17.543  18.936  0.00  0.00    +0.000 OA
ATOM     26  H   UNL     1      -4.244  18.493  18.760  0.00  0.00    +0.000 HD
ENDBRANCH  24  25
ENDBRANCH  14  24
BRANCH  15  27
ATOM     27  C   UNL     1      -2.643  17.579  22.923  0.00  0.00    +0.000 C 
BRANCH  27  28
ATOM     28  C   UNL     1      -2.063  17.412  24.344  0.00  0.00    +0.000 C 
ATOM     29  C   UNL     1      -2.433  16.075  24.991  0.00  0.00    +0.000 C 
ATOM     30  C   UNL     1      -1.503  15.976  26.197  0.00  0.00    +0.000 C 
ATOM     31  C   UNL     1      -0.240  16.737  25.805  0.00  0.00    +0.000 C 
ATOM     32  C   UNL     1      -0.530  17.366  24.440  0.00  0.00    +0.000 C 
ENDBRANCH  27  28
ENDBRANCH  15  27
TORSDOF 5
ENDMDL
