MODEL 1
REMARK VINA RESULT:      -8.1      0.000      0.000
REMARK  Name = 
REMARK  10 active torsions:
REMARK  status: ('A' for Active; 'I' for Inactive)
REMARK    1  A    between atoms: C_1  and  O_2
REMARK    2  A    between atoms: O_2  and  C_3
REMARK    3  A    between atoms: C_8  and  C_9
REMARK    4  A    between atoms: C_12  and  C_13
REMARK    5  A    between atoms: C_13  and  CA_14
REMARK    6  A    between atoms: CA_14  and  N_15
REMARK    7  A    between atoms: CA_14  and  C_25
REMARK    8  A    between atoms: C_16  and  C_18
REMARK    9  A    between atoms: C_18  and  C_19
REMARK   10  A    between atoms: C_25  and  OXT_27
REMARK                            x       y       z     vdW  Elec       q    Type
REMARK                         _______ _______ _______ _____ _____    ______ ____
ROOT
ATOM      1  CA  UNL     1       5.593   5.350  17.596  0.00  0.00    +0.000 C 
ENDROOT
BRANCH   1   2
ATOM      2  N   UNL     1       4.802   4.261  18.196  0.00  0.00    +0.000 N 
ATOM      3  C   UNL     1       4.335   3.190  17.466  0.00  0.00    +0.000 C 
ATOM      4  O   UNL     1       4.506   3.125  16.249  0.00  0.00    +0.000 OA
ATOM      5  H   UNL     1       4.466   4.388  19.145  0.00  0.00    +0.000 HD
BRANCH   3   6
ATOM      6  C   UNL     1       3.649   2.094  18.278  0.00  0.00    +0.000 C 
BRANCH   6   7
ATOM      7  C   UNL     1       2.830   2.518  19.461  0.00  0.00    +0.000 A 
ATOM      8  C   UNL     1       1.522   2.992  19.371  0.00  0.00    +0.000 A 
ATOM      9  C   UNL     1       0.794   3.269  20.532  0.00  0.00    +0.000 A 
ATOM     10  C   UNL     1       1.398   3.047  21.754  0.00  0.00    +0.000 A 
ATOM     11  N   UNL     1       2.656   2.585  21.892  0.00  0.00    +0.000 NA
ATOM     12  C   UNL     1       3.334   2.324  20.750  0.00  0.00    +0.000 A 
ENDBRANCH   6   7
ENDBRANCH   3   6
ENDBRANCH   1   2
BRANCH   1  13
ATOM     13  C   UNL     1       6.656   5.850  18.588  0.00  0.00    +0.000 C 
ATOM     14  O   UNL     1       6.724   5.448  19.744  0.00  0.00    +0.000 OA
BRANCH  13  15
ATOM     15  OXT UNL     1       7.421   6.878  18.152  0.00  0.00    +0.000 OA
ATOM     16  HXT UNL     1       8.033   7.214  18.844  0.00  0.00    +0.000 HD
ENDBRANCH  13  15
ENDBRANCH   1  13
BRANCH   1  17
ATOM     17  C   UNL     1       4.728   6.456  16.960  0.00  0.00    +0.000 C 
BRANCH  17  21
ATOM     18  C   UNL     1       1.761   8.303  19.603  0.00  0.00    +0.000 A 
ATOM     19  C   UNL     1       2.303   7.032  19.870  0.00  0.00    +0.000 A 
ATOM     20  C   UNL     1       3.199   6.398  18.990  0.00  0.00    +0.000 A 
ATOM     21  C   UNL     1       3.611   7.024  17.813  0.00  0.00    +0.000 A 
ATOM     22  C   UNL     1       3.039   8.262  17.498  0.00  0.00    +0.000 A 
ATOM     23  C   UNL     1       2.124   8.877  18.369  0.00  0.00    +0.000 A 
BRANCH  18  29
ATOM     24  C   UNL     1      -0.088   9.970  20.307  0.00  0.00    +0.000 A 
ATOM     25  C   UNL     1      -0.898  10.504  21.328  0.00  0.00    +0.000 A 
ATOM     26  C   UNL     1      -0.652  10.217  22.668  0.00  0.00    +0.000 A 
ATOM     27  C   UNL     1       0.406   9.390  23.003  0.00  0.00    +0.000 A 
ATOM     28  C   UNL     1       1.183   8.811  21.994  0.00  0.00    +0.000 A 
ATOM     29  C   UNL     1       0.953   9.058  20.617  0.00  0.00    +0.000 A 
BRANCH  24  31
ATOM     30  C   UNL     1      -1.134  11.430  18.761  0.00  0.00    +0.000 C 
ATOM     31  O   UNL     1      -0.316  10.284  18.987  0.00  0.00    +0.000 OA
ENDBRANCH  24  31
ENDBRANCH  18  29
ENDBRANCH  17  21
ENDBRANCH   1  17
TORSDOF 9
ENDMDL
MODEL 2
REMARK VINA RESULT:      -7.9      2.232      4.771
REMARK  Name = 
REMARK  10 active torsions:
REMARK  status: ('A' for Active; 'I' for Inactive)
REMARK    1  A    between atoms: C_1  and  O_2
REMARK    2  A    between atoms: O_2  and  C_3
REMARK    3  A    between atoms: C_8  and  C_9
REMARK    4  A    between atoms: C_12  and  C_13
REMARK    5  A    between atoms: C_13  and  CA_14
REMARK    6  A    between atoms: CA_14  and  N_15
REMARK    7  A    between atoms: CA_14  and  C_25
REMARK    8  A    between atoms: C_16  and  C_18
REMARK    9  A    between atoms: C_18  and  C_19
REMARK   10  A    between atoms: C_25  and  OXT_27
REMARK                            x       y       z     vdW  Elec       q    Type
REMARK                         _______ _______ _______ _____ _____    ______ ____
ROOT
ATOM      1  CA  UNL     1       2.607   4.426  19.752  0.00  0.00    +0.000 C 
ENDROOT
BRANCH   1   2
ATOM      2  N   UNL     1       3.829   5.042  19.205  0.00  0.00    +0.000 N 
ATOM      3  C   UNL     1       5.029   4.370  19.125  0.00  0.00    +0.000 C 
ATOM      4  O   UNL     1       5.152   3.229  19.569  0.00  0.00    +0.000 OA
ATOM      5  H   UNL     1       3.817   6.041  19.027  0.00  0.00    +0.000 HD
BRANCH   3   6
ATOM      6  C   UNL     1       6.152   5.119  18.410  0.00  0.00    +0.000 C 
BRANCH   6   7
ATOM      7  C   UNL     1       6.350   4.841  16.950  0.00  0.00    +0.000 A 
ATOM      8  C   UNL     1       5.566   3.952  16.215  0.00  0.00    +0.000 A 
ATOM      9  C   UNL     1       5.751   3.828  14.834  0.00  0.00    +0.000 A 
ATOM     10  C   UNL     1       6.712   4.615  14.228  0.00  0.00    +0.000 A 
ATOM     11  N   UNL     1       7.488   5.491  14.894  0.00  0.00    +0.000 NA
ATOM     12  C   UNL     1       7.284   5.590  16.228  0.00  0.00    +0.000 A 
ENDBRANCH   6   7
ENDBRANCH   3   6
ENDBRANCH   1   2
BRANCH   1  13
ATOM     13  C   UNL     1       1.786   3.774  18.627  0.00  0.00    +0.000 C 
ATOM     14  O   UNL     1       1.193   2.711  18.772  0.00  0.00    +0.000 OA
BRANCH  13  15
ATOM     15  OXT UNL     1       1.882   4.370  17.416  0.00  0.00    +0.000 OA
ATOM     16  HXT UNL     1       2.449   5.174  17.434  0.00  0.00    +0.000 HD
ENDBRANCH  13  15
ENDBRANCH   1  13
BRANCH   1  17
ATOM     17  C   UNL     1       1.808   5.366  20.677  0.00  0.00    +0.000 C 
BRANCH  17  21
ATOM     18  C   UNL     1       1.265   9.529  19.425  0.00  0.00    +0.000 A 
ATOM     19  C   UNL     1       1.837   8.568  18.572  0.00  0.00    +0.000 A 
ATOM     20  C   UNL     1       2.085   7.247  18.989  0.00  0.00    +0.000 A 
ATOM     21  C   UNL     1       1.745   6.826  20.276  0.00  0.00    +0.000 A 
ATOM     22  C   UNL     1       1.230   7.781  21.159  0.00  0.00    +0.000 A 
ATOM     23  C   UNL     1       1.010   9.106  20.743  0.00  0.00    +0.000 A 
BRANCH  18  29
ATOM     24  C   UNL     1      -0.508  11.251  18.661  0.00  0.00    +0.000 A 
ATOM     25  C   UNL     1      -0.833  12.589  18.363  0.00  0.00    +0.000 A 
ATOM     26  C   UNL     1       0.156  13.562  18.246  0.00  0.00    +0.000 A 
ATOM     27  C   UNL     1       1.482  13.210  18.431  0.00  0.00    +0.000 A 
ATOM     28  C   UNL     1       1.810  11.896  18.782  0.00  0.00    +0.000 A 
ATOM     29  C   UNL     1       0.833  10.880  18.933  0.00  0.00    +0.000 A 
BRANCH  24  31
ATOM     30  C   UNL     1      -1.991   9.820  17.492  0.00  0.00    +0.000 C 
ATOM     31  O   UNL     1      -1.487  10.288  18.741  0.00  0.00    +0.000 OA
ENDBRANCH  24  31
ENDBRANCH  18  29
ENDBRANCH  17  21
ENDBRANCH   1  17
TORSDOF 9
ENDMDL
MODEL 3
REMARK VINA RESULT:      -7.8      4.029      8.935
REMARK  Name = 
REMARK  10 active torsions:
REMARK  status: ('A' for Active; 'I' for Inactive)
REMARK    1  A    between atoms: C_1  and  O_2
REMARK    2  A    between atoms: O_2  and  C_3
REMARK    3  A    between atoms: C_8  and  C_9
REMARK    4  A    between atoms: C_12  and  C_13
REMARK    5  A    between atoms: C_13  and  CA_14
REMARK    6  A    between atoms: CA_14  and  N_15
REMARK    7  A    between atoms: CA_14  and  C_25
REMARK    8  A    between atoms: C_16  and  C_18
REMARK    9  A    between atoms: C_18  and  C_19
REMARK   10  A    between atoms: C_25  and  OXT_27
REMARK                            x       y       z     vdW  Elec       q    Type
REMARK                         _______ _______ _______ _____ _____    ______ ____
ROOT
ATOM      1  CA  UNL     1      -0.563  10.882  20.796  0.00  0.00    +0.000 C 
ENDROOT
BRANCH   1   2
ATOM      2  N   UNL     1      -1.541  11.627  19.983  0.00  0.00    +0.000 N 
ATOM      3  C   UNL     1      -2.170  11.078  18.887  0.00  0.00    +0.000 C 
ATOM      4  O   UNL     1      -1.894   9.945  18.495  0.00  0.00    +0.000 OA
ATOM      5  H   UNL     1      -1.634  12.623  20.150  0.00  0.00    +0.000 HD
BRANCH   3   6
ATOM      6  C   UNL     1      -3.248  11.950  18.247  0.00  0.00    +0.000 C 
BRANCH   6   7
ATOM      7  C   UNL     1      -4.648  11.813  18.767  0.00  0.00    +0.000 A 
ATOM      8  C   UNL     1      -5.122  12.465  19.904  0.00  0.00    +0.000 A 
ATOM      9  C   UNL     1      -6.470  12.363  20.262  0.00  0.00    +0.000 A 
ATOM     10  C   UNL     1      -7.309  11.618  19.455  0.00  0.00    +0.000 A 
ATOM     11  N   UNL     1      -6.899  10.976  18.344  0.00  0.00    +0.000 NA
ATOM     12  C   UNL     1      -5.590  11.095  18.023  0.00  0.00    +0.000 A 
ENDBRANCH   6   7
ENDBRANCH   3   6
ENDBRANCH   1   2
BRANCH   1  13
ATOM     13  C   UNL     1      -0.626  11.339  22.262  0.00  0.00    +0.000 C 
ATOM     14  O   UNL     1      -0.944  12.478  22.587  0.00  0.00    +0.000 OA
BRANCH  13  15
ATOM     15  OXT UNL     1      -0.160  10.450  23.170  0.00  0.00    +0.000 OA
ATOM     16  HXT UNL     1      -0.826   9.767  23.406  0.00  0.00    +0.000 HD
ENDBRANCH  13  15
ENDBRANCH   1  13
BRANCH   1  17
ATOM     17  C   UNL     1       0.852  10.859  20.183  0.00  0.00    +0.000 C 
BRANCH  17  21
ATOM     18  C   UNL     1       2.513   7.184  18.472  0.00  0.00    +0.000 A 
ATOM     19  C   UNL     1       2.210   8.302  17.674  0.00  0.00    +0.000 A 
ATOM     20  C   UNL     1       1.608   9.459  18.200  0.00  0.00    +0.000 A 
ATOM     21  C   UNL     1       1.304   9.554  19.559  0.00  0.00    +0.000 A 
ATOM     22  C   UNL     1       1.543   8.432  20.361  0.00  0.00    +0.000 A 
ATOM     23  C   UNL     1       2.121   7.270  19.821  0.00  0.00    +0.000 A 
BRANCH  18  29
ATOM     24  C   UNL     1       2.818   4.713  17.769  0.00  0.00    +0.000 A 
ATOM     25  C   UNL     1       3.600   3.735  17.125  0.00  0.00    +0.000 A 
ATOM     26  C   UNL     1       4.907   4.004  16.729  0.00  0.00    +0.000 A 
ATOM     27  C   UNL     1       5.447   5.256  16.969  0.00  0.00    +0.000 A 
ATOM     28  C   UNL     1       4.659   6.251  17.558  0.00  0.00    +0.000 A 
ATOM     29  C   UNL     1       3.317   6.027  17.956  0.00  0.00    +0.000 A 
BRANCH  24  31
ATOM     30  C   UNL     1       1.292   3.069  18.535  0.00  0.00    +0.000 C 
ATOM     31  O   UNL     1       1.538   4.430  18.188  0.00  0.00    +0.000 OA
ENDBRANCH  24  31
ENDBRANCH  18  29
ENDBRANCH  17  21
ENDBRANCH   1  17
TORSDOF 9
ENDMDL
MODEL 4
REMARK VINA RESULT:      -7.7      4.664     10.053
REMARK  Name = 
REMARK  10 active torsions:
REMARK  status: ('A' for Active; 'I' for Inactive)
REMARK    1  A    between atoms: C_1  and  O_2
REMARK    2  A    between atoms: O_2  and  C_3
REMARK    3  A    between atoms: C_8  and  C_9
REMARK    4  A    between atoms: C_12  and  C_13
REMARK    5  A    between atoms: C_13  and  CA_14
REMARK    6  A    between atoms: CA_14  and  N_15
REMARK    7  A    between atoms: CA_14  and  C_25
REMARK    8  A    between atoms: C_16  and  C_18
REMARK    9  A    between atoms: C_18  and  C_19
REMARK   10  A    between atoms: C_25  and  OXT_27
REMARK                            x       y       z     vdW  Elec       q    Type
REMARK                         _______ _______ _______ _____ _____    ______ ____
ROOT
ATOM      1  CA  UNL     1      -0.249  11.899  19.129  0.00  0.00    +0.000 C 
ENDROOT
BRANCH   1   2
ATOM      2  N   UNL     1       0.146  13.240  19.595  0.00  0.00    +0.000 N 
ATOM      3  C   UNL     1       1.092  14.004  18.947  0.00  0.00    +0.000 C 
ATOM      4  O   UNL     1       1.703  13.570  17.972  0.00  0.00    +0.000 OA
ATOM      5  H   UNL     1      -0.181  13.540  20.507  0.00  0.00    +0.000 HD
BRANCH   3   6
ATOM      6  C   UNL     1       1.277  15.418  19.495  0.00  0.00    +0.000 C 
BRANCH   6   7
ATOM      7  C   UNL     1       0.885  16.561  18.606  0.00  0.00    +0.000 A 
ATOM      8  C   UNL     1       1.794  17.314  17.863  0.00  0.00    +0.000 A 
ATOM      9  C   UNL     1       1.335  18.296  16.979  0.00  0.00    +0.000 A 
ATOM     10  C   UNL     1      -0.028  18.484  16.857  0.00  0.00    +0.000 A 
ATOM     11  N   UNL     1      -0.944  17.779  17.549  0.00  0.00    +0.000 NA
ATOM     12  C   UNL     1      -0.469  16.834  18.394  0.00  0.00    +0.000 A 
ENDBRANCH   6   7
ENDBRANCH   3   6
ENDBRANCH   1   2
BRANCH   1  13
ATOM     13  C   UNL     1      -1.703  11.912  18.629  0.00  0.00    +0.000 C 
ATOM     14  O   UNL     1      -2.032  11.451  17.541  0.00  0.00    +0.000 OA
BRANCH  13  15
ATOM     15  OXT UNL     1      -2.577  12.601  19.398  0.00  0.00    +0.000 OA
ATOM     16  HXT UNL     1      -2.137  13.287  19.948  0.00  0.00    +0.000 HD
ENDBRANCH  13  15
ENDBRANCH   1  13
BRANCH   1  17
ATOM     17  C   UNL     1       0.081  10.779  20.136  0.00  0.00    +0.000 C 
BRANCH  17  21
ATOM     18  C   UNL     1       2.357   7.365  18.598  0.00  0.00    +0.000 A 
ATOM     19  C   UNL     1       2.025   7.482  19.960  0.00  0.00    +0.000 A 
ATOM     20  C   UNL     1       1.360   8.609  20.477  0.00  0.00    +0.000 A 
ATOM     21  C   UNL     1       0.976   9.660  19.643  0.00  0.00    +0.000 A 
ATOM     22  C   UNL     1       1.348   9.592  18.295  0.00  0.00    +0.000 A 
ATOM     23  C   UNL     1       2.036   8.475  17.792  0.00  0.00    +0.000 A 
BRANCH  18  29
ATOM     24  C   UNL     1       4.232   5.913  17.565  0.00  0.00    +0.000 A 
ATOM     25  C   UNL     1       4.691   4.637  17.185  0.00  0.00    +0.000 A 
ATOM     26  C   UNL     1       3.833   3.541  17.157  0.00  0.00    +0.000 A 
ATOM     27  C   UNL     1       2.506   3.707  17.515  0.00  0.00    +0.000 A 
ATOM     28  C   UNL     1       2.054   4.958  17.947  0.00  0.00    +0.000 A 
ATOM     29  C   UNL     1       2.898   6.095  18.011  0.00  0.00    +0.000 A 
BRANCH  24  31
ATOM     30  C   UNL     1       6.440   6.714  17.249  0.00  0.00    +0.000 C 
ATOM     31  O   UNL     1       5.077   6.999  17.557  0.00  0.00    +0.000 OA
ENDBRANCH  24  31
ENDBRANCH  18  29
ENDBRANCH  17  21
ENDBRANCH   1  17
TORSDOF 9
ENDMDL
MODEL 5
REMARK VINA RESULT:      -7.7      2.180      4.681
REMARK  Name = 
REMARK  10 active torsions:
REMARK  status: ('A' for Active; 'I' for Inactive)
REMARK    1  A    between atoms: C_1  and  O_2
REMARK    2  A    between atoms: O_2  and  C_3
REMARK    3  A    between atoms: C_8  and  C_9
REMARK    4  A    between atoms: C_12  and  C_13
REMARK    5  A    between atoms: C_13  and  CA_14
REMARK    6  A    between atoms: CA_14  and  N_15
REMARK    7  A    between atoms: CA_14  and  C_25
REMARK    8  A    between atoms: C_16  and  C_18
REMARK    9  A    between atoms: C_18  and  C_19
REMARK   10  A    between atoms: C_25  and  OXT_27
REMARK                            x       y       z     vdW  Elec       q    Type
REMARK                         _______ _______ _______ _____ _____    ______ ____
ROOT
ATOM      1  CA  UNL     1       2.554   4.297  19.264  0.00  0.00    +0.000 C 
ENDROOT
BRANCH   1   2
ATOM      2  N   UNL     1       3.596   4.848  18.379  0.00  0.00    +0.000 N 
ATOM      3  C   UNL     1       4.385   4.055  17.575  0.00  0.00    +0.000 C 
ATOM      4  O   UNL     1       4.295   2.828  17.605  0.00  0.00    +0.000 OA
ATOM      5  H   UNL     1       3.838   5.827  18.486  0.00  0.00    +0.000 HD
BRANCH   3   6
ATOM      6  C   UNL     1       5.319   4.806  16.630  0.00  0.00    +0.000 C 
BRANCH   6   7
ATOM      7  C   UNL     1       6.375   5.676  17.246  0.00  0.00    +0.000 A 
ATOM      8  C   UNL     1       6.614   6.996  16.867  0.00  0.00    +0.000 A 
ATOM      9  C   UNL     1       7.547   7.769  17.563  0.00  0.00    +0.000 A 
ATOM     10  C   UNL     1       8.206   7.196  18.634  0.00  0.00    +0.000 A 
ATOM     11  N   UNL     1       8.005   5.928  19.042  0.00  0.00    +0.000 NA
ATOM     12  C   UNL     1       7.094   5.206  18.350  0.00  0.00    +0.000 A 
ENDBRANCH   6   7
ENDBRANCH   3   6
ENDBRANCH   1   2
BRANCH   1  13
ATOM     13  C   UNL     1       1.374   3.764  18.434  0.00  0.00    +0.000 C 
ATOM     14  O   UNL     1       1.039   4.261  17.364  0.00  0.00    +0.000 OA
BRANCH  13  15
ATOM     15  OXT UNL     1       0.630   2.804  19.031  0.00  0.00    +0.000 OA
ATOM     16  HXT UNL     1      -0.016   2.390  18.416  0.00  0.00    +0.000 HD
ENDBRANCH  13  15
ENDBRANCH   1  13
BRANCH   1  17
ATOM     17  C   UNL     1       2.161   5.247  20.413  0.00  0.00    +0.000 C 
BRANCH  17  21
ATOM     18  C   UNL     1       1.250   9.384  19.292  0.00  0.00    +0.000 A 
ATOM     19  C   UNL     1       1.885   8.497  18.403  0.00  0.00    +0.000 A 
ATOM     20  C   UNL     1       2.249   7.191  18.777  0.00  0.00    +0.000 A 
ATOM     21  C   UNL     1       1.969   6.708  20.056  0.00  0.00    +0.000 A 
ATOM     22  C   UNL     1       1.392   7.591  20.975  0.00  0.00    +0.000 A 
ATOM     23  C   UNL     1       1.056   8.904  20.602  0.00  0.00    +0.000 A 
BRANCH  18  29
ATOM     24  C   UNL     1      -0.652  10.938  18.480  0.00  0.00    +0.000 A 
ATOM     25  C   UNL     1      -1.112  12.247  18.236  0.00  0.00    +0.000 A 
ATOM     26  C   UNL     1      -0.243  13.334  18.267  0.00  0.00    +0.000 A 
ATOM     27  C   UNL     1       1.097  13.126  18.547  0.00  0.00    +0.000 A 
ATOM     28  C   UNL     1       1.553  11.837  18.845  0.00  0.00    +0.000 A 
ATOM     29  C   UNL     1       0.698  10.706  18.847  0.00  0.00    +0.000 A 
BRANCH  24  31
ATOM     30  C   UNL     1      -2.747  10.106  17.747  0.00  0.00    +0.000 C 
ATOM     31  O   UNL     1      -1.510   9.864  18.415  0.00  0.00    +0.000 OA
ENDBRANCH  24  31
ENDBRANCH  18  29
ENDBRANCH  17  21
ENDBRANCH   1  17
TORSDOF 9
ENDMDL
MODEL 6
REMARK VINA RESULT:      -7.7      5.248      7.035
REMARK  Name = 
REMARK  10 active torsions:
REMARK  status: ('A' for Active; 'I' for Inactive)
REMARK    1  A    between atoms: C_1  and  O_2
REMARK    2  A    between atoms: O_2  and  C_3
REMARK    3  A    between atoms: C_8  and  C_9
REMARK    4  A    between atoms: C_12  and  C_13
REMARK    5  A    between atoms: C_13  and  CA_14
REMARK    6  A    between atoms: CA_14  and  N_15
REMARK    7  A    between atoms: CA_14  and  C_25
REMARK    8  A    between atoms: C_16  and  C_18
REMARK    9  A    between atoms: C_18  and  C_19
REMARK   10  A    between atoms: C_25  and  OXT_27
REMARK                            x       y       z     vdW  Elec       q    Type
REMARK                         _______ _______ _______ _____ _____    ______ ____
ROOT
ATOM      1  CA  UNL     1       7.163   6.463  17.691  0.00  0.00    +0.000 C 
ENDROOT
BRANCH   1   2
ATOM      2  N   UNL     1       5.757   6.679  18.078  0.00  0.00    +0.000 N 
ATOM      3  C   UNL     1       4.741   6.795  17.156  0.00  0.00    +0.000 C 
ATOM      4  O   UNL     1       4.972   6.786  15.948  0.00  0.00    +0.000 OA
ATOM      5  H   UNL     1       5.563   6.901  19.049  0.00  0.00    +0.000 HD
BRANCH   3   6
ATOM      6  C   UNL     1       3.333   6.882  17.742  0.00  0.00    +0.000 C 
BRANCH   6   7
ATOM      7  C   UNL     1       2.719   5.615  18.260  0.00  0.00    +0.000 A 
ATOM      8  C   UNL     1       2.762   4.397  17.582  0.00  0.00    +0.000 A 
ATOM      9  C   UNL     1       2.255   3.241  18.183  0.00  0.00    +0.000 A 
ATOM     10  C   UNL     1       1.730   3.340  19.458  0.00  0.00    +0.000 A 
ATOM     11  N   UNL     1       1.672   4.491  20.154  0.00  0.00    +0.000 NA
ATOM     12  C   UNL     1       2.174   5.592  19.547  0.00  0.00    +0.000 A 
ENDBRANCH   6   7
ENDBRANCH   3   6
ENDBRANCH   1   2
BRANCH   1  13
ATOM     13  C   UNL     1       7.406   4.982  17.357  0.00  0.00    +0.000 C 
ATOM     14  O   UNL     1       7.843   4.611  16.273  0.00  0.00    +0.000 OA
BRANCH  13  15
ATOM     15  OXT UNL     1       6.963   4.097  18.279  0.00  0.00    +0.000 OA
ATOM     16  HXT UNL     1       7.112   3.163  18.010  0.00  0.00    +0.000 HD
ENDBRANCH  13  15
ENDBRANCH   1  13
BRANCH   1  17
ATOM     17  C   UNL     1       8.172   7.079  18.680  0.00  0.00    +0.000 C 
BRANCH  17  21
ATOM     18  C   UNL     1       9.099  11.334  18.197  0.00  0.00    +0.000 A 
ATOM     19  C   UNL     1       9.522  10.606  19.324  0.00  0.00    +0.000 A 
ATOM     20  C   UNL     1       9.167   9.260  19.526  0.00  0.00    +0.000 A 
ATOM     21  C   UNL     1       8.390   8.576  18.589  0.00  0.00    +0.000 A 
ATOM     22  C   UNL     1       7.910   9.296  17.490  0.00  0.00    +0.000 A 
ATOM     23  C   UNL     1       8.247  10.649  17.310  0.00  0.00    +0.000 A 
BRANCH  18  29
ATOM     24  C   UNL     1       9.058  13.915  18.367  0.00  0.00    +0.000 A 
ATOM     25  C   UNL     1       9.716  15.143  18.159  0.00  0.00    +0.000 A 
ATOM     26  C   UNL     1      10.887  15.215  17.410  0.00  0.00    +0.000 A 
ATOM     27  C   UNL     1      11.418  14.059  16.864  0.00  0.00    +0.000 A 
ATOM     28  C   UNL     1      10.803  12.827  17.112  0.00  0.00    +0.000 A 
ATOM     29  C   UNL     1       9.622  12.706  17.887  0.00  0.00    +0.000 A 
BRANCH  24  31
ATOM     30  C   UNL     1       7.922  14.439  20.380  0.00  0.00    +0.000 C 
ATOM     31  O   UNL     1       7.883  13.855  19.079  0.00  0.00    +0.000 OA
ENDBRANCH  24  31
ENDBRANCH  18  29
ENDBRANCH  17  21
ENDBRANCH   1  17
TORSDOF 9
ENDMDL
MODEL 7
REMARK VINA RESULT:      -7.7      4.238      6.410
REMARK  Name = 
REMARK  10 active torsions:
REMARK  status: ('A' for Active; 'I' for Inactive)
REMARK    1  A    between atoms: C_1  and  O_2
REMARK    2  A    between atoms: O_2  and  C_3
REMARK    3  A    between atoms: C_8  and  C_9
REMARK    4  A    between atoms: C_12  and  C_13
REMARK    5  A    between atoms: C_13  and  CA_14
REMARK    6  A    between atoms: CA_14  and  N_15
REMARK    7  A    between atoms: CA_14  and  C_25
REMARK    8  A    between atoms: C_16  and  C_18
REMARK    9  A    between atoms: C_18  and  C_19
REMARK   10  A    between atoms: C_25  and  OXT_27
REMARK                            x       y       z     vdW  Elec       q    Type
REMARK                         _______ _______ _______ _____ _____    ______ ____
ROOT
ATOM      1  CA  UNL     1       6.386   5.023  16.596  0.00  0.00    +0.000 C 
ENDROOT
BRANCH   1   2
ATOM      2  N   UNL     1       5.345   4.060  16.994  0.00  0.00    +0.000 N 
ATOM      3  C   UNL     1       4.050   4.437  17.274  0.00  0.00    +0.000 C 
ATOM      4  O   UNL     1       3.715   5.621  17.263  0.00  0.00    +0.000 OA
ATOM      5  H   UNL     1       5.635   3.113  17.216  0.00  0.00    +0.000 HD
BRANCH   3   6
ATOM      6  C   UNL     1       3.077   3.290  17.540  0.00  0.00    +0.000 C 
BRANCH   6   7
ATOM      7  C   UNL     1       2.576   3.119  18.943  0.00  0.00    +0.000 A 
ATOM      8  C   UNL     1       3.326   2.552  19.973  0.00  0.00    +0.000 A 
ATOM      9  C   UNL     1       2.821   2.525  21.276  0.00  0.00    +0.000 A 
ATOM     10  C   UNL     1       1.579   3.083  21.511  0.00  0.00    +0.000 A 
ATOM     11  N   UNL     1       0.820   3.646  20.551  0.00  0.00    +0.000 NA
ATOM     12  C   UNL     1       1.337   3.660  19.301  0.00  0.00    +0.000 A 
ENDBRANCH   6   7
ENDBRANCH   3   6
ENDBRANCH   1   2
BRANCH   1  13
ATOM     13  C   UNL     1       6.931   4.678  15.200  0.00  0.00    +0.000 C 
ATOM     14  O   UNL     1       7.708   5.408  14.594  0.00  0.00    +0.000 OA
BRANCH  13  15
ATOM     15  OXT UNL     1       6.382   3.589  14.614  0.00  0.00    +0.000 OA
ATOM     16  HXT UNL     1       6.794   3.379  13.746  0.00  0.00    +0.000 HD
ENDBRANCH  13  15
ENDBRANCH   1  13
BRANCH   1  17
ATOM     17  C   UNL     1       7.464   5.242  17.677  0.00  0.00    +0.000 C 
BRANCH  17  21
ATOM     18  C   UNL     1       8.636   9.366  18.579  0.00  0.00    +0.000 A 
ATOM     19  C   UNL     1       8.929   8.304  19.453  0.00  0.00    +0.000 A 
ATOM     20  C   UNL     1       8.494   6.989  19.211  0.00  0.00    +0.000 A 
ATOM     21  C   UNL     1       7.762   6.677  18.063  0.00  0.00    +0.000 A 
ATOM     22  C   UNL     1       7.408   7.728  17.209  0.00  0.00    +0.000 A 
ATOM     23  C   UNL     1       7.825   9.044  17.474  0.00  0.00    +0.000 A 
BRANCH  18  29
ATOM     24  C   UNL     1       9.550  11.340  19.980  0.00  0.00    +0.000 A 
ATOM     25  C   UNL     1      10.276  12.546  20.025  0.00  0.00    +0.000 A 
ATOM     26  C   UNL     1      10.645  13.209  18.858  0.00  0.00    +0.000 A 
ATOM     27  C   UNL     1      10.296  12.671  17.631  0.00  0.00    +0.000 A 
ATOM     28  C   UNL     1       9.624  11.446  17.575  0.00  0.00    +0.000 A 
ATOM     29  C   UNL     1       9.249  10.727  18.737  0.00  0.00    +0.000 A 
BRANCH  24  31
ATOM     30  C   UNL     1       8.436  11.515  22.065  0.00  0.00    +0.000 C 
ATOM     31  O   UNL     1       9.158  10.707  21.138  0.00  0.00    +0.000 OA
ENDBRANCH  24  31
ENDBRANCH  18  29
ENDBRANCH  17  21
ENDBRANCH   1  17
TORSDOF 9
ENDMDL
MODEL 8
REMARK VINA RESULT:      -7.7      2.204      4.780
REMARK  Name = 
REMARK  10 active torsions:
REMARK  status: ('A' for Active; 'I' for Inactive)
REMARK    1  A    between atoms: C_1  and  O_2
REMARK    2  A    between atoms: O_2  and  C_3
REMARK    3  A    between atoms: C_8  and  C_9
REMARK    4  A    between atoms: C_12  and  C_13
REMARK    5  A    between atoms: C_13  and  CA_14
REMARK    6  A    between atoms: CA_14  and  N_15
REMARK    7  A    between atoms: CA_14  and  C_25
REMARK    8  A    between atoms: C_16  and  C_18
REMARK    9  A    between atoms: C_18  and  C_19
REMARK   10  A    between atoms: C_25  and  OXT_27
REMARK                            x       y       z     vdW  Elec       q    Type
REMARK                         _______ _______ _______ _____ _____    ______ ____
ROOT
ATOM      1  CA  UNL     1       3.462   4.779  19.967  0.00  0.00    +0.000 C 
ENDROOT
BRANCH   1   2
ATOM      2  N   UNL     1       4.227   5.535  18.959  0.00  0.00    +0.000 N 
ATOM      3  C   UNL     1       5.604   5.545  18.924  0.00  0.00    +0.000 C 
ATOM      4  O   UNL     1       6.268   4.965  19.781  0.00  0.00    +0.000 OA
ATOM      5  H   UNL     1       3.719   6.188  18.371  0.00  0.00    +0.000 HD
BRANCH   3   6
ATOM      6  C   UNL     1       6.222   6.274  17.732  0.00  0.00    +0.000 C 
BRANCH   6   7
ATOM      7  C   UNL     1       6.308   5.529  16.433  0.00  0.00    +0.000 A 
ATOM      8  C   UNL     1       5.245   4.824  15.871  0.00  0.00    +0.000 A 
ATOM      9  C   UNL     1       5.378   4.243  14.606  0.00  0.00    +0.000 A 
ATOM     10  C   UNL     1       6.576   4.400  13.935  0.00  0.00    +0.000 A 
ATOM     11  N   UNL     1       7.628   5.077  14.434  0.00  0.00    +0.000 NA
ATOM     12  C   UNL     1       7.467   5.630  15.658  0.00  0.00    +0.000 A 
ENDBRANCH   6   7
ENDBRANCH   3   6
ENDBRANCH   1   2
BRANCH   1  13
ATOM     13  C   UNL     1       3.409   3.288  19.592  0.00  0.00    +0.000 C 
ATOM     14  O   UNL     1       2.467   2.792  18.983  0.00  0.00    +0.000 OA
BRANCH  13  15
ATOM     15  OXT UNL     1       4.398   2.523  20.109  0.00  0.00    +0.000 OA
ATOM     16  HXT UNL     1       4.661   2.806  21.014  0.00  0.00    +0.000 HD
ENDBRANCH  13  15
ENDBRANCH   1  13
BRANCH   1  17
ATOM     17  C   UNL     1       2.097   5.412  20.302  0.00  0.00    +0.000 C 
BRANCH  17  21
ATOM     18  C   UNL     1       1.256   9.593  19.298  0.00  0.00    +0.000 A 
ATOM     19  C   UNL     1       1.845   8.713  18.372  0.00  0.00    +0.000 A 
ATOM     20  C   UNL     1       2.188   7.390  18.707  0.00  0.00    +0.000 A 
ATOM     21  C   UNL     1       1.931   6.884  19.982  0.00  0.00    +0.000 A 
ATOM     22  C   UNL     1       1.400   7.760  20.936  0.00  0.00    +0.000 A 
ATOM     23  C   UNL     1       1.085   9.088  20.601  0.00  0.00    +0.000 A 
BRANCH  18  29
ATOM     24  C   UNL     1      -0.622  11.202  18.537  0.00  0.00    +0.000 A 
ATOM     25  C   UNL     1      -1.062  12.525  18.338  0.00  0.00    +0.000 A 
ATOM     26  C   UNL     1      -0.177  13.597  18.406  0.00  0.00    +0.000 A 
ATOM     27  C   UNL     1       1.159  13.360  18.679  0.00  0.00    +0.000 A 
ATOM     28  C   UNL     1       1.596  12.055  18.934  0.00  0.00    +0.000 A 
ATOM     29  C   UNL     1       0.724  10.938  18.897  0.00  0.00    +0.000 A 
BRANCH  24  31
ATOM     30  C   UNL     1      -1.956   9.853  17.117  0.00  0.00    +0.000 C 
ATOM     31  O   UNL     1      -1.495  10.144  18.435  0.00  0.00    +0.000 OA
ENDBRANCH  24  31
ENDBRANCH  18  29
ENDBRANCH  17  21
ENDBRANCH   1  17
TORSDOF 9
ENDMDL
MODEL 9
REMARK VINA RESULT:      -7.7      1.256      2.249
REMARK  Name = 
REMARK  10 active torsions:
REMARK  status: ('A' for Active; 'I' for Inactive)
REMARK    1  A    between atoms: C_1  and  O_2
REMARK    2  A    between atoms: O_2  and  C_3
REMARK    3  A    between atoms: C_8  and  C_9
REMARK    4  A    between atoms: C_12  and  C_13
REMARK    5  A    between atoms: C_13  and  CA_14
REMARK    6  A    between atoms: CA_14  and  N_15
REMARK    7  A    between atoms: CA_14  and  C_25
REMARK    8  A    between atoms: C_16  and  C_18
REMARK    9  A    between atoms: C_18  and  C_19
REMARK   10  A    between atoms: C_25  and  OXT_27
REMARK                            x       y       z     vdW  Elec       q    Type
REMARK                         _______ _______ _______ _____ _____    ______ ____
ROOT
ATOM      1  CA  UNL     1       4.944   5.570  16.438  0.00  0.00    +0.000 C 
ENDROOT
BRANCH   1   2
ATOM      2  N   UNL     1       4.296   4.340  16.927  0.00  0.00    +0.000 N 
ATOM      3  C   UNL     1       4.755   3.641  18.022  0.00  0.00    +0.000 C 
ATOM      4  O   UNL     1       5.778   3.984  18.613  0.00  0.00    +0.000 OA
ATOM      5  H   UNL     1       3.583   3.916  16.343  0.00  0.00    +0.000 HD
BRANCH   3   6
ATOM      6  C   UNL     1       3.883   2.467  18.462  0.00  0.00    +0.000 C 
BRANCH   6   7
ATOM      7  C   UNL     1       2.923   2.704  19.590  0.00  0.00    +0.000 A 
ATOM      8  C   UNL     1       1.586   3.056  19.412  0.00  0.00    +0.000 A 
ATOM      9  C   UNL     1       0.732   3.157  20.515  0.00  0.00    +0.000 A 
ATOM     10  C   UNL     1       1.246   2.885  21.768  0.00  0.00    +0.000 A 
ATOM     11  N   UNL     1       2.528   2.536  21.991  0.00  0.00    +0.000 NA
ATOM     12  C   UNL     1       3.328   2.444  20.903  0.00  0.00    +0.000 A 
ENDBRANCH   6   7
ENDBRANCH   3   6
ENDBRANCH   1   2
BRANCH   1  13
ATOM     13  C   UNL     1       6.277   5.235  15.749  0.00  0.00    +0.000 C 
ATOM     14  O   UNL     1       7.290   5.909  15.904  0.00  0.00    +0.000 OA
BRANCH  13  15
ATOM     15  OXT UNL     1       6.227   4.236  14.837  0.00  0.00    +0.000 OA
ATOM     16  HXT UNL     1       6.873   3.519  15.026  0.00  0.00    +0.000 HD
ENDBRANCH  13  15
ENDBRANCH   1  13
BRANCH   1  17
ATOM     17  C   UNL     1       5.026   6.683  17.501  0.00  0.00    +0.000 C 
BRANCH  17  21
ATOM     18  C   UNL     1       1.459   8.846  18.841  0.00  0.00    +0.000 A 
ATOM     19  C   UNL     1       1.919   7.694  19.504  0.00  0.00    +0.000 A 
ATOM     20  C   UNL     1       3.018   6.949  19.039  0.00  0.00    +0.000 A 
ATOM     21  C   UNL     1       3.721   7.344  17.899  0.00  0.00    +0.000 A 
ATOM     22  C   UNL     1       3.244   8.453  17.191  0.00  0.00    +0.000 A 
ATOM     23  C   UNL     1       2.129   9.176  17.647  0.00  0.00    +0.000 A 
BRANCH  18  29
ATOM     24  C   UNL     1       0.331  10.110  20.797  0.00  0.00    +0.000 A 
ATOM     25  C   UNL     1      -0.590  11.086  21.224  0.00  0.00    +0.000 A 
ATOM     26  C   UNL     1      -1.500  11.656  20.337  0.00  0.00    +0.000 A 
ATOM     27  C   UNL     1      -1.496  11.259  19.011  0.00  0.00    +0.000 A 
ATOM     28  C   UNL     1      -0.549  10.330  18.566  0.00  0.00    +0.000 A 
ATOM     29  C   UNL     1       0.408   9.743  19.430  0.00  0.00    +0.000 A 
BRANCH  24  31
ATOM     30  C   UNL     1       0.685   9.290  22.992  0.00  0.00    +0.000 C 
ATOM     31  O   UNL     1       1.204   9.526  21.686  0.00  0.00    +0.000 OA
ENDBRANCH  24  31
ENDBRANCH  18  29
ENDBRANCH  17  21
ENDBRANCH   1  17
TORSDOF 9
ENDMDL
