MODEL 1
REMARK VINA RESULT:      -7.6      0.000      0.000
REMARK  Name = 
REMARK  8 active torsions:
REMARK  status: ('A' for Active; 'I' for Inactive)
REMARK    1  A    between atoms: C_1  and  C_2
REMARK    2  A    between atoms: N_6  and  C_7
REMARK    3  A    between atoms: C_14  and  C_15
REMARK    4  A    between atoms: N_17  and  C_18
REMARK    5  A    between atoms: C_22  and  C_23
REMARK    6  A    between atoms: N_25  and  C_26
REMARK    7  A    between atoms: N_25  and  C_27
REMARK    8  A    between atoms: C_28  and  O_29
REMARK                            x       y       z     vdW  Elec       q    Type
REMARK                         _______ _______ _______ _____ _____    ______ ____
ROOT
ATOM      1  C   UNL     1       1.482   5.737  20.529  0.00  0.00    +0.000 C 
ATOM      2  O   UNL     1       0.280   5.515  20.505  0.00  0.00    +0.000 OA
ATOM      3  N   UNL     1       2.035   6.975  20.847  0.00  0.00    +0.000 N 
ATOM      4  H   UNL     1       3.015   7.078  20.591  0.00  0.00    +0.000 HD
ENDROOT
BRANCH   1  12
ATOM      5  C   UNL     1       1.380   3.061  22.037  0.00  0.00    +0.000 C 
ATOM      6  C   UNL     1       2.400   3.335  20.980  0.00  0.00    +0.000 A 
ATOM      7  C   UNL     1       3.323   2.418  20.683  0.00  0.00    +0.000 A 
ATOM      8  C   UNL     1       4.357   2.631  19.661  0.00  0.00    +0.000 A 
ATOM      9  O   UNL     1       5.184   1.731  19.527  0.00  0.00    +0.000 OA
ATOM     10  N   UNL     1       4.300   3.852  18.983  0.00  0.00    +0.000 N 
ATOM     11  N   UNL     1       3.376   4.854  19.283  0.00  0.00    +0.000 NA
ATOM     12  C   UNL     1       2.490   4.609  20.207  0.00  0.00    +0.000 A 
BRANCH  10  13
ATOM     13  C   UNL     1       5.247   4.171  17.952  0.00  0.00    +0.000 A 
ATOM     14  C   UNL     1       4.951   3.937  16.598  0.00  0.00    +0.000 A 
ATOM     15  C   UNL     1       5.888   4.177  15.589  0.00  0.00    +0.000 A 
ATOM     16  C   UNL     1       7.148   4.659  15.924  0.00  0.00    +0.000 A 
ATOM     17  C   UNL     1       7.459   4.917  17.256  0.00  0.00    +0.000 A 
ATOM     18  C   UNL     1       6.510   4.695  18.264  0.00  0.00    +0.000 A 
ENDBRANCH  10  13
ENDBRANCH   1  12
BRANCH   3  19
ATOM     19  C   UNL     1       1.243   8.137  20.993  0.00  0.00    +0.000 A 
ATOM     20  C   UNL     1       0.557   8.299  22.201  0.00  0.00    +0.000 A 
ATOM     21  C   UNL     1      -0.128   9.485  22.463  0.00  0.00    +0.000 A 
ATOM     22  C   UNL     1      -0.125  10.518  21.522  0.00  0.00    +0.000 A 
ATOM     23  C   UNL     1       0.511  10.374  20.274  0.00  0.00    +0.000 A 
ATOM     24  C   UNL     1       1.143   9.152  20.002  0.00  0.00    +0.000 A 
BRANCH  23  25
ATOM     25  C   UNL     1       0.377  11.538  19.337  0.00  0.00    +0.000 C 
ATOM     26  O   UNL     1      -0.417  11.385  18.401  0.00  0.00    +0.000 OA
ATOM     27  N   UNL     1       1.025  12.768  19.533  0.00  0.00    +0.000 N 
ATOM     28  C   UNL     1       2.049  13.051  20.523  0.00  0.00    +0.000 C 
ATOM     29  C   UNL     1       0.839  13.806  18.530  0.00  0.00    +0.000 C 
ENDBRANCH  23  25
BRANCH  24  30
ATOM     30  O   UNL     1       1.529   8.861  18.724  0.00  0.00    +0.000 OA
ATOM     31  H   UNL     1       1.529   7.893  18.636  0.00  0.00    +0.000 HD
ENDBRANCH  24  30
ENDBRANCH   3  19
TORSDOF 5
ENDMDL
MODEL 2
REMARK VINA RESULT:      -7.5      0.774      1.052
REMARK  Name = 
REMARK  8 active torsions:
REMARK  status: ('A' for Active; 'I' for Inactive)
REMARK    1  A    between atoms: C_1  and  C_2
REMARK    2  A    between atoms: N_6  and  C_7
REMARK    3  A    between atoms: C_14  and  C_15
REMARK    4  A    between atoms: N_17  and  C_18
REMARK    5  A    between atoms: C_22  and  C_23
REMARK    6  A    between atoms: N_25  and  C_26
REMARK    7  A    between atoms: N_25  and  C_27
REMARK    8  A    between atoms: C_28  and  O_29
REMARK                            x       y       z     vdW  Elec       q    Type
REMARK                         _______ _______ _______ _____ _____    ______ ____
ROOT
ATOM      1  C   UNL     1       1.470   5.688  20.524  0.00  0.00    +0.000 C 
ATOM      2  O   UNL     1       0.268   5.471  20.471  0.00  0.00    +0.000 OA
ATOM      3  N   UNL     1       2.021   6.919  20.873  0.00  0.00    +0.000 N 
ATOM      4  H   UNL     1       3.006   7.022  20.640  0.00  0.00    +0.000 HD
ENDROOT
BRANCH   1  12
ATOM      5  C   UNL     1       1.371   3.015  22.038  0.00  0.00    +0.000 C 
ATOM      6  C   UNL     1       2.392   3.289  20.982  0.00  0.00    +0.000 A 
ATOM      7  C   UNL     1       3.318   2.374  20.688  0.00  0.00    +0.000 A 
ATOM      8  C   UNL     1       4.353   2.586  19.668  0.00  0.00    +0.000 A 
ATOM      9  O   UNL     1       5.182   1.688  19.538  0.00  0.00    +0.000 OA
ATOM     10  N   UNL     1       4.295   3.806  18.987  0.00  0.00    +0.000 N 
ATOM     11  N   UNL     1       3.369   4.806  19.283  0.00  0.00    +0.000 NA
ATOM     12  C   UNL     1       2.481   4.561  20.207  0.00  0.00    +0.000 A 
BRANCH  10  13
ATOM     13  C   UNL     1       5.243   4.125  17.957  0.00  0.00    +0.000 A 
ATOM     14  C   UNL     1       4.968   3.845  16.608  0.00  0.00    +0.000 A 
ATOM     15  C   UNL     1       5.908   4.084  15.601  0.00  0.00    +0.000 A 
ATOM     16  C   UNL     1       7.150   4.613  15.935  0.00  0.00    +0.000 A 
ATOM     17  C   UNL     1       7.439   4.917  17.263  0.00  0.00    +0.000 A 
ATOM     18  C   UNL     1       6.486   4.694  18.267  0.00  0.00    +0.000 A 
ENDBRANCH  10  13
ENDBRANCH   1  12
BRANCH   3  19
ATOM     19  C   UNL     1       1.230   8.082  21.021  0.00  0.00    +0.000 A 
ATOM     20  C   UNL     1       0.441   8.180  22.171  0.00  0.00    +0.000 A 
ATOM     21  C   UNL     1      -0.253   9.358  22.445  0.00  0.00    +0.000 A 
ATOM     22  C   UNL     1      -0.158  10.446  21.572  0.00  0.00    +0.000 A 
ATOM     23  C   UNL     1       0.584  10.368  20.379  0.00  0.00    +0.000 A 
ATOM     24  C   UNL     1       1.227   9.156  20.089  0.00  0.00    +0.000 A 
BRANCH  23  25
ATOM     25  C   UNL     1       0.544  11.588  19.507  0.00  0.00    +0.000 C 
ATOM     26  O   UNL     1       1.636  12.126  19.287  0.00  0.00    +0.000 OA
ATOM     27  N   UNL     1      -0.625  12.061  18.890  0.00  0.00    +0.000 N 
ATOM     28  C   UNL     1      -1.977  11.590  19.137  0.00  0.00    +0.000 C 
ATOM     29  C   UNL     1      -0.536  13.277  18.097  0.00  0.00    +0.000 C 
ENDBRANCH  23  25
BRANCH  24  30
ATOM     30  O   UNL     1       1.721   8.937  18.834  0.00  0.00    +0.000 OA
ATOM     31  H   UNL     1       2.531   8.407  18.932  0.00  0.00    +0.000 HD
ENDBRANCH  24  30
ENDBRANCH   3  19
TORSDOF 5
ENDMDL
MODEL 3
REMARK VINA RESULT:      -7.4      2.733      8.375
REMARK  Name = 
REMARK  8 active torsions:
REMARK  status: ('A' for Active; 'I' for Inactive)
REMARK    1  A    between atoms: C_1  and  C_2
REMARK    2  A    between atoms: N_6  and  C_7
REMARK    3  A    between atoms: C_14  and  C_15
REMARK    4  A    between atoms: N_17  and  C_18
REMARK    5  A    between atoms: C_22  and  C_23
REMARK    6  A    between atoms: N_25  and  C_26
REMARK    7  A    between atoms: N_25  and  C_27
REMARK    8  A    between atoms: C_28  and  O_29
REMARK                            x       y       z     vdW  Elec       q    Type
REMARK                         _______ _______ _______ _____ _____    ______ ____
ROOT
ATOM      1  C   UNL     1       3.327   6.511  18.320  0.00  0.00    +0.000 C 
ATOM      2  O   UNL     1       2.937   5.604  17.598  0.00  0.00    +0.000 OA
ATOM      3  N   UNL     1       4.657   6.919  18.401  0.00  0.00    +0.000 N 
ATOM      4  H   UNL     1       4.870   7.503  19.207  0.00  0.00    +0.000 HD
ENDROOT
BRANCH   1  12
ATOM      5  C   UNL     1       2.263   5.287  20.931  0.00  0.00    +0.000 C 
ATOM      6  C   UNL     1       1.834   6.638  20.457  0.00  0.00    +0.000 A 
ATOM      7  C   UNL     1       0.941   7.343  21.155  0.00  0.00    +0.000 A 
ATOM      8  C   UNL     1       0.473   8.672  20.737  0.00  0.00    +0.000 A 
ATOM      9  O   UNL     1      -0.396   9.188  21.438  0.00  0.00    +0.000 OA
ATOM     10  N   UNL     1       1.047   9.180  19.568  0.00  0.00    +0.000 N 
ATOM     11  N   UNL     1       1.957   8.466  18.787  0.00  0.00    +0.000 NA
ATOM     12  C   UNL     1       2.326   7.287  19.206  0.00  0.00    +0.000 A 
BRANCH  10  13
ATOM     13  C   UNL     1       0.682  10.474  19.067  0.00  0.00    +0.000 A 
ATOM     14  C   UNL     1       1.617  11.523  19.018  0.00  0.00    +0.000 A 
ATOM     15  C   UNL     1       1.260  12.807  18.599  0.00  0.00    +0.000 A 
ATOM     16  C   UNL     1      -0.053  13.063  18.217  0.00  0.00    +0.000 A 
ATOM     17  C   UNL     1      -0.992  12.036  18.237  0.00  0.00    +0.000 A 
ATOM     18  C   UNL     1      -0.625  10.744  18.639  0.00  0.00    +0.000 A 
ENDBRANCH  10  13
ENDBRANCH   1  12
BRANCH   3  19
ATOM     19  C   UNL     1       5.705   6.197  17.786  0.00  0.00    +0.000 A 
ATOM     20  C   UNL     1       6.592   5.514  18.623  0.00  0.00    +0.000 A 
ATOM     21  C   UNL     1       7.561   4.671  18.078  0.00  0.00    +0.000 A 
ATOM     22  C   UNL     1       7.644   4.504  16.692  0.00  0.00    +0.000 A 
ATOM     23  C   UNL     1       6.802   5.214  15.815  0.00  0.00    +0.000 A 
ATOM     24  C   UNL     1       5.874   6.101  16.377  0.00  0.00    +0.000 A 
BRANCH  23  25
ATOM     25  C   UNL     1       7.047   4.985  14.352  0.00  0.00    +0.000 C 
ATOM     26  O   UNL     1       8.012   5.589  13.869  0.00  0.00    +0.000 OA
ATOM     27  N   UNL     1       6.306   4.081  13.575  0.00  0.00    +0.000 N 
ATOM     28  C   UNL     1       5.097   3.388  13.984  0.00  0.00    +0.000 C 
ATOM     29  C   UNL     1       6.620   3.979  12.158  0.00  0.00    +0.000 C 
ENDBRANCH  23  25
BRANCH  24  30
ATOM     30  O   UNL     1       5.235   7.006  15.577  0.00  0.00    +0.000 OA
ATOM     31  H   UNL     1       5.664   6.974  14.705  0.00  0.00    +0.000 HD
ENDBRANCH  24  30
ENDBRANCH   3  19
TORSDOF 5
ENDMDL
MODEL 4
REMARK VINA RESULT:      -7.3      1.100      1.428
REMARK  Name = 
REMARK  8 active torsions:
REMARK  status: ('A' for Active; 'I' for Inactive)
REMARK    1  A    between atoms: C_1  and  C_2
REMARK    2  A    between atoms: N_6  and  C_7
REMARK    3  A    between atoms: C_14  and  C_15
REMARK    4  A    between atoms: N_17  and  C_18
REMARK    5  A    between atoms: C_22  and  C_23
REMARK    6  A    between atoms: N_25  and  C_26
REMARK    7  A    between atoms: N_25  and  C_27
REMARK    8  A    between atoms: C_28  and  O_29
REMARK                            x       y       z     vdW  Elec       q    Type
REMARK                         _______ _______ _______ _____ _____    ______ ____
ROOT
ATOM      1  C   UNL     1       1.997   5.967  20.181  0.00  0.00    +0.000 C 
ATOM      2  O   UNL     1       1.531   5.814  21.300  0.00  0.00    +0.000 OA
ATOM      3  N   UNL     1       2.096   7.203  19.545  0.00  0.00    +0.000 N 
ATOM      4  H   UNL     1       2.271   7.150  18.544  0.00  0.00    +0.000 HD
ENDROOT
BRANCH   1  12
ATOM      5  C   UNL     1       0.769   3.176  20.563  0.00  0.00    +0.000 C 
ATOM      6  C   UNL     1       1.904   3.419  19.622  0.00  0.00    +0.000 A 
ATOM      7  C   UNL     1       2.438   2.406  18.935  0.00  0.00    +0.000 A 
ATOM      8  C   UNL     1       3.560   2.580  18.003  0.00  0.00    +0.000 A 
ATOM      9  O   UNL     1       3.997   1.556  17.480  0.00  0.00    +0.000 OA
ATOM     10  N   UNL     1       4.024   3.889  17.845  0.00  0.00    +0.000 N 
ATOM     11  N   UNL     1       3.521   4.973  18.566  0.00  0.00    +0.000 NA
ATOM     12  C   UNL     1       2.531   4.754  19.386  0.00  0.00    +0.000 A 
BRANCH  10  13
ATOM     13  C   UNL     1       5.106   4.188  16.950  0.00  0.00    +0.000 A 
ATOM     14  C   UNL     1       6.401   4.436  17.437  0.00  0.00    +0.000 A 
ATOM     15  C   UNL     1       7.449   4.797  16.586  0.00  0.00    +0.000 A 
ATOM     16  C   UNL     1       7.213   4.917  15.221  0.00  0.00    +0.000 A 
ATOM     17  C   UNL     1       5.943   4.658  14.712  0.00  0.00    +0.000 A 
ATOM     18  C   UNL     1       4.900   4.276  15.566  0.00  0.00    +0.000 A 
ENDBRANCH  10  13
ENDBRANCH   1  12
BRANCH   3  19
ATOM     19  C   UNL     1       1.497   8.370  20.072  0.00  0.00    +0.000 A 
ATOM     20  C   UNL     1       1.244   8.398  21.447  0.00  0.00    +0.000 A 
ATOM     21  C   UNL     1       0.785   9.569  22.050  0.00  0.00    +0.000 A 
ATOM     22  C   UNL     1       0.580  10.719  21.282  0.00  0.00    +0.000 A 
ATOM     23  C   UNL     1       0.773  10.715  19.887  0.00  0.00    +0.000 A 
ATOM     24  C   UNL     1       1.177   9.513  19.289  0.00  0.00    +0.000 A 
BRANCH  23  25
ATOM     25  C   UNL     1       0.451  12.000  19.183  0.00  0.00    +0.000 C 
ATOM     26  O   UNL     1      -0.540  11.973  18.444  0.00  0.00    +0.000 OA
ATOM     27  N   UNL     1       1.154  13.197  19.397  0.00  0.00    +0.000 N 
ATOM     28  C   UNL     1       2.385  13.346  20.153  0.00  0.00    +0.000 C 
ATOM     29  C   UNL     1       0.765  14.366  18.623  0.00  0.00    +0.000 C 
ENDBRANCH  23  25
BRANCH  24  30
ATOM     30  O   UNL     1       1.112   9.380  17.930  0.00  0.00    +0.000 OA
ATOM     31  H   UNL     1       0.938   8.442  17.740  0.00  0.00    +0.000 HD
ENDBRANCH  24  30
ENDBRANCH   3  19
TORSDOF 5
ENDMDL
MODEL 5
REMARK VINA RESULT:      -7.3      1.598      1.795
REMARK  Name = 
REMARK  8 active torsions:
REMARK  status: ('A' for Active; 'I' for Inactive)
REMARK    1  A    between atoms: C_1  and  C_2
REMARK    2  A    between atoms: N_6  and  C_7
REMARK    3  A    between atoms: C_14  and  C_15
REMARK    4  A    between atoms: N_17  and  C_18
REMARK    5  A    between atoms: C_22  and  C_23
REMARK    6  A    between atoms: N_25  and  C_26
REMARK    7  A    between atoms: N_25  and  C_27
REMARK    8  A    between atoms: C_28  and  O_29
REMARK                            x       y       z     vdW  Elec       q    Type
REMARK                         _______ _______ _______ _____ _____    ______ ____
ROOT
ATOM      1  C   UNL     1       2.168   7.086  19.806  0.00  0.00    +0.000 C 
ATOM      2  O   UNL     1       2.229   7.229  21.019  0.00  0.00    +0.000 OA
ATOM      3  N   UNL     1       1.730   8.076  18.930  0.00  0.00    +0.000 N 
ATOM      4  H   UNL     1       1.501   7.742  17.996  0.00  0.00    +0.000 HD
ENDROOT
BRANCH   1  12
ATOM      5  C   UNL     1       0.726   4.461  20.499  0.00  0.00    +0.000 C 
ATOM      6  C   UNL     1       1.871   4.506  19.540  0.00  0.00    +0.000 A 
ATOM      7  C   UNL     1       2.319   3.383  18.975  0.00  0.00    +0.000 A 
ATOM      8  C   UNL     1       3.445   3.360  18.032  0.00  0.00    +0.000 A 
ATOM      9  O   UNL     1       3.797   2.252  17.631  0.00  0.00    +0.000 OA
ATOM     10  N   UNL     1       4.010   4.602  17.727  0.00  0.00    +0.000 N 
ATOM     11  N   UNL     1       3.599   5.797  18.319  0.00  0.00    +0.000 NA
ATOM     12  C   UNL     1       2.600   5.751  19.156  0.00  0.00    +0.000 A 
BRANCH  10  13
ATOM     13  C   UNL     1       5.106   4.711  16.808  0.00  0.00    +0.000 A 
ATOM     14  C   UNL     1       4.889   4.727  15.419  0.00  0.00    +0.000 A 
ATOM     15  C   UNL     1       5.949   4.762  14.509  0.00  0.00    +0.000 A 
ATOM     16  C   UNL     1       7.257   4.781  14.981  0.00  0.00    +0.000 A 
ATOM     17  C   UNL     1       7.498   4.786  16.353  0.00  0.00    +0.000 A 
ATOM     18  C   UNL     1       6.431   4.771  17.262  0.00  0.00    +0.000 A 
ENDBRANCH  10  13
ENDBRANCH   1  12
BRANCH   3  19
ATOM     19  C   UNL     1       1.144   9.279  19.387  0.00  0.00    +0.000 A 
ATOM     20  C   UNL     1       0.284   9.197  20.487  0.00  0.00    +0.000 A 
ATOM     21  C   UNL     1      -0.215  10.361  21.072  0.00  0.00    +0.000 A 
ATOM     22  C   UNL     1       0.147  11.612  20.563  0.00  0.00    +0.000 A 
ATOM     23  C   UNL     1       0.968  11.733  19.426  0.00  0.00    +0.000 A 
ATOM     24  C   UNL     1       1.413  10.553  18.814  0.00  0.00    +0.000 A 
BRANCH  23  25
ATOM     25  C   UNL     1       1.220  13.134  18.952  0.00  0.00    +0.000 C 
ATOM     26  O   UNL     1       0.562  13.495  17.969  0.00  0.00    +0.000 OA
ATOM     27  N   UNL     1       2.071  14.034  19.614  0.00  0.00    +0.000 N 
ATOM     28  C   UNL     1       2.970  13.717  20.710  0.00  0.00    +0.000 C 
ATOM     29  C   UNL     1       2.257  15.354  19.031  0.00  0.00    +0.000 C 
ENDBRANCH  23  25
BRANCH  24  30
ATOM     30  O   UNL     1       1.972  10.607  17.569  0.00  0.00    +0.000 OA
ATOM     31  H   UNL     1       2.696   9.959  17.549  0.00  0.00    +0.000 HD
ENDBRANCH  24  30
ENDBRANCH   3  19
TORSDOF 5
ENDMDL
MODEL 6
REMARK VINA RESULT:      -7.2      2.299      3.324
REMARK  Name = 
REMARK  8 active torsions:
REMARK  status: ('A' for Active; 'I' for Inactive)
REMARK    1  A    between atoms: C_1  and  C_2
REMARK    2  A    between atoms: N_6  and  C_7
REMARK    3  A    between atoms: C_14  and  C_15
REMARK    4  A    between atoms: N_17  and  C_18
REMARK    5  A    between atoms: C_22  and  C_23
REMARK    6  A    between atoms: N_25  and  C_26
REMARK    7  A    between atoms: N_25  and  C_27
REMARK    8  A    between atoms: C_28  and  O_29
REMARK                            x       y       z     vdW  Elec       q    Type
REMARK                         _______ _______ _______ _____ _____    ______ ____
ROOT
ATOM      1  C   UNL     1       1.879   8.734  18.433  0.00  0.00    +0.000 C 
ATOM      2  O   UNL     1       2.252   9.500  17.557  0.00  0.00    +0.000 OA
ATOM      3  N   UNL     1       0.793   8.983  19.270  0.00  0.00    +0.000 N 
ATOM      4  H   UNL     1       0.751   8.390  20.095  0.00  0.00    +0.000 HD
ENDROOT
BRANCH   1  12
ATOM      5  C   UNL     1       1.325   7.045  20.941  0.00  0.00    +0.000 C 
ATOM      6  C   UNL     1       2.313   6.621  19.904  0.00  0.00    +0.000 A 
ATOM      7  C   UNL     1       3.011   5.494  20.060  0.00  0.00    +0.000 A 
ATOM      8  C   UNL     1       4.003   5.028  19.081  0.00  0.00    +0.000 A 
ATOM      9  O   UNL     1       4.619   4.006  19.375  0.00  0.00    +0.000 OA
ATOM     10  N   UNL     1       4.155   5.825  17.943  0.00  0.00    +0.000 N 
ATOM     11  N   UNL     1       3.475   7.028  17.752  0.00  0.00    +0.000 NA
ATOM     12  C   UNL     1       2.614   7.393  18.662  0.00  0.00    +0.000 A 
BRANCH  10  13
ATOM     13  C   UNL     1       5.083   5.467  16.908  0.00  0.00    +0.000 A 
ATOM     14  C   UNL     1       4.713   4.589  15.874  0.00  0.00    +0.000 A 
ATOM     15  C   UNL     1       5.624   4.176  14.899  0.00  0.00    +0.000 A 
ATOM     16  C   UNL     1       6.934   4.640  14.945  0.00  0.00    +0.000 A 
ATOM     17  C   UNL     1       7.320   5.526  15.947  0.00  0.00    +0.000 A 
ATOM     18  C   UNL     1       6.397   5.954  16.912  0.00  0.00    +0.000 A 
ENDBRANCH  10  13
ENDBRANCH   1  12
BRANCH   3  19
ATOM     19  C   UNL     1       0.135  10.234  19.295  0.00  0.00    +0.000 A 
ATOM     20  C   UNL     1      -0.687  10.550  18.208  0.00  0.00    +0.000 A 
ATOM     21  C   UNL     1      -1.472  11.703  18.237  0.00  0.00    +0.000 A 
ATOM     22  C   UNL     1      -1.442  12.543  19.353  0.00  0.00    +0.000 A 
ATOM     23  C   UNL     1      -0.588  12.287  20.444  0.00  0.00    +0.000 A 
ATOM     24  C   UNL     1       0.237  11.156  20.373  0.00  0.00    +0.000 A 
BRANCH  23  25
ATOM     25  C   UNL     1      -0.613  13.308  21.542  0.00  0.00    +0.000 C 
ATOM     26  O   UNL     1       0.033  14.341  21.329  0.00  0.00    +0.000 OA
ATOM     27  N   UNL     1      -1.382  13.173  22.709  0.00  0.00    +0.000 N 
ATOM     28  C   UNL     1      -2.102  11.983  23.129  0.00  0.00    +0.000 C 
ATOM     29  C   UNL     1      -1.289  14.219  23.715  0.00  0.00    +0.000 C 
ENDBRANCH  23  25
BRANCH  24  30
ATOM     30  O   UNL     1       1.266  11.015  21.261  0.00  0.00    +0.000 OA
ATOM     31  H   UNL     1       2.032  11.487  20.893  0.00  0.00    +0.000 HD
ENDBRANCH  24  30
ENDBRANCH   3  19
TORSDOF 5
ENDMDL
MODEL 7
REMARK VINA RESULT:      -7.1      1.321      1.752
REMARK  Name = 
REMARK  8 active torsions:
REMARK  status: ('A' for Active; 'I' for Inactive)
REMARK    1  A    between atoms: C_1  and  C_2
REMARK    2  A    between atoms: N_6  and  C_7
REMARK    3  A    between atoms: C_14  and  C_15
REMARK    4  A    between atoms: N_17  and  C_18
REMARK    5  A    between atoms: C_22  and  C_23
REMARK    6  A    between atoms: N_25  and  C_26
REMARK    7  A    between atoms: N_25  and  C_27
REMARK    8  A    between atoms: C_28  and  O_29
REMARK                            x       y       z     vdW  Elec       q    Type
REMARK                         _______ _______ _______ _____ _____    ______ ____
ROOT
ATOM      1  C   UNL     1       2.072   5.887  20.209  0.00  0.00    +0.000 C 
ATOM      2  O   UNL     1       1.707   5.741  21.367  0.00  0.00    +0.000 OA
ATOM      3  N   UNL     1       2.076   7.112  19.547  0.00  0.00    +0.000 N 
ATOM      4  H   UNL     1       2.167   7.045  18.536  0.00  0.00    +0.000 HD
ENDROOT
BRANCH   1  12
ATOM      5  C   UNL     1       0.825   3.104  20.594  0.00  0.00    +0.000 C 
ATOM      6  C   UNL     1       1.941   3.345  19.631  0.00  0.00    +0.000 A 
ATOM      7  C   UNL     1       2.450   2.333  18.924  0.00  0.00    +0.000 A 
ATOM      8  C   UNL     1       3.553   2.504  17.968  0.00  0.00    +0.000 A 
ATOM      9  O   UNL     1       3.968   1.480  17.427  0.00  0.00    +0.000 OA
ATOM     10  N   UNL     1       4.025   3.810  17.811  0.00  0.00    +0.000 N 
ATOM     11  N   UNL     1       3.550   4.892  18.552  0.00  0.00    +0.000 NA
ATOM     12  C   UNL     1       2.576   4.675  19.393  0.00  0.00    +0.000 A 
BRANCH  10  13
ATOM     13  C   UNL     1       5.090   4.106  16.895  0.00  0.00    +0.000 A 
ATOM     14  C   UNL     1       6.383   4.405  17.359  0.00  0.00    +0.000 A 
ATOM     15  C   UNL     1       7.412   4.765  16.485  0.00  0.00    +0.000 A 
ATOM     16  C   UNL     1       7.160   4.830  15.119  0.00  0.00    +0.000 A 
ATOM     17  C   UNL     1       5.893   4.519  14.633  0.00  0.00    +0.000 A 
ATOM     18  C   UNL     1       4.869   4.139  15.511  0.00  0.00    +0.000 A 
ENDBRANCH  10  13
ENDBRANCH   1  12
BRANCH   3  19
ATOM     19  C   UNL     1       1.485   8.270  20.103  0.00  0.00    +0.000 A 
ATOM     20  C   UNL     1       1.050   8.195  21.430  0.00  0.00    +0.000 A 
ATOM     21  C   UNL     1       0.588   9.340  22.080  0.00  0.00    +0.000 A 
ATOM     22  C   UNL     1       0.563  10.565  21.408  0.00  0.00    +0.000 A 
ATOM     23  C   UNL     1       0.943  10.670  20.056  0.00  0.00    +0.000 A 
ATOM     24  C   UNL     1       1.349   9.499  19.401  0.00  0.00    +0.000 A 
BRANCH  23  25
ATOM     25  C   UNL     1       0.803  12.033  19.445  0.00  0.00    +0.000 C 
ATOM     26  O   UNL     1       1.822  12.734  19.457  0.00  0.00    +0.000 OA
ATOM     27  N   UNL     1      -0.367  12.480  18.811  0.00  0.00    +0.000 N 
ATOM     28  C   UNL     1      -1.654  11.808  18.810  0.00  0.00    +0.000 C 
ATOM     29  C   UNL     1      -0.386  13.839  18.290  0.00  0.00    +0.000 C 
ENDBRANCH  23  25
BRANCH  24  30
ATOM     30  O   UNL     1       1.460   9.492  18.039  0.00  0.00    +0.000 OA
ATOM     31  H   UNL     1       1.439   8.563  17.752  0.00  0.00    +0.000 HD
ENDBRANCH  24  30
ENDBRANCH   3  19
TORSDOF 5
ENDMDL
MODEL 8
REMARK VINA RESULT:      -7.0      1.735      2.485
REMARK  Name = 
REMARK  8 active torsions:
REMARK  status: ('A' for Active; 'I' for Inactive)
REMARK    1  A    between atoms: C_1  and  C_2
REMARK    2  A    between atoms: N_6  and  C_7
REMARK    3  A    between atoms: C_14  and  C_15
REMARK    4  A    between atoms: N_17  and  C_18
REMARK    5  A    between atoms: C_22  and  C_23
REMARK    6  A    between atoms: N_25  and  C_26
REMARK    7  A    between atoms: N_25  and  C_27
REMARK    8  A    between atoms: C_28  and  O_29
REMARK                            x       y       z     vdW  Elec       q    Type
REMARK                         _______ _______ _______ _____ _____    ______ ____
ROOT
ATOM      1  C   UNL     1       1.822   6.157  20.138  0.00  0.00    +0.000 C 
ATOM      2  O   UNL     1       0.821   6.057  20.833  0.00  0.00    +0.000 OA
ATOM      3  N   UNL     1       2.298   7.365  19.633  0.00  0.00    +0.000 N 
ATOM      4  H   UNL     1       2.981   7.269  18.885  0.00  0.00    +0.000 HD
ENDROOT
BRANCH   1  12
ATOM      5  C   UNL     1       1.379   3.505  21.627  0.00  0.00    +0.000 C 
ATOM      6  C   UNL     1       2.399   3.644  20.545  0.00  0.00    +0.000 A 
ATOM      7  C   UNL     1       3.175   2.609  20.214  0.00  0.00    +0.000 A 
ATOM      8  C   UNL     1       4.201   2.685  19.166  0.00  0.00    +0.000 A 
ATOM      9  O   UNL     1       4.888   1.678  19.002  0.00  0.00    +0.000 OA
ATOM     10  N   UNL     1       4.301   3.909  18.499  0.00  0.00    +0.000 N 
ATOM     11  N   UNL     1       3.538   5.029  18.833  0.00  0.00    +0.000 NA
ATOM     12  C   UNL     1       2.650   4.901  19.779  0.00  0.00    +0.000 A 
BRANCH  10  13
ATOM     13  C   UNL     1       5.256   4.103  17.445  0.00  0.00    +0.000 A 
ATOM     14  C   UNL     1       6.577   4.493  17.727  0.00  0.00    +0.000 A 
ATOM     15  C   UNL     1       7.499   4.753  16.709  0.00  0.00    +0.000 A 
ATOM     16  C   UNL     1       7.108   4.625  15.381  0.00  0.00    +0.000 A 
ATOM     17  C   UNL     1       5.811   4.221  15.077  0.00  0.00    +0.000 A 
ATOM     18  C   UNL     1       4.895   3.941  16.100  0.00  0.00    +0.000 A 
ENDBRANCH  10  13
ENDBRANCH   1  12
BRANCH   3  19
ATOM     19  C   UNL     1       1.557   8.565  19.732  0.00  0.00    +0.000 A 
ATOM     20  C   UNL     1       1.273   9.244  18.542  0.00  0.00    +0.000 A 
ATOM     21  C   UNL     1       0.430  10.355  18.556  0.00  0.00    +0.000 A 
ATOM     22  C   UNL     1      -0.136  10.791  19.758  0.00  0.00    +0.000 A 
ATOM     23  C   UNL     1       0.168  10.166  20.982  0.00  0.00    +0.000 A 
ATOM     24  C   UNL     1       1.063   9.087  20.959  0.00  0.00    +0.000 A 
BRANCH  23  25
ATOM     25  C   UNL     1      -0.459  10.780  22.199  0.00  0.00    +0.000 C 
ATOM     26  O   UNL     1      -0.025  10.381  23.286  0.00  0.00    +0.000 OA
ATOM     27  N   UNL     1      -1.412  11.810  22.143  0.00  0.00    +0.000 N 
ATOM     28  C   UNL     1      -2.076  12.300  20.948  0.00  0.00    +0.000 C 
ATOM     29  C   UNL     1      -1.970  12.295  23.396  0.00  0.00    +0.000 C 
ENDBRANCH  23  25
BRANCH  24  30
ATOM     30  O   UNL     1       1.599   8.629  22.129  0.00  0.00    +0.000 OA
ATOM     31  H   UNL     1       1.534   9.351  22.778  0.00  0.00    +0.000 HD
ENDBRANCH  24  30
ENDBRANCH   3  19
TORSDOF 5
ENDMDL
MODEL 9
REMARK VINA RESULT:      -6.9      2.268      8.617
REMARK  Name = 
REMARK  8 active torsions:
REMARK  status: ('A' for Active; 'I' for Inactive)
REMARK    1  A    between atoms: C_1  and  C_2
REMARK    2  A    between atoms: N_6  and  C_7
REMARK    3  A    between atoms: C_14  and  C_15
REMARK    4  A    between atoms: N_17  and  C_18
REMARK    5  A    between atoms: C_22  and  C_23
REMARK    6  A    between atoms: N_25  and  C_26
REMARK    7  A    between atoms: N_25  and  C_27
REMARK    8  A    between atoms: C_28  and  O_29
REMARK                            x       y       z     vdW  Elec       q    Type
REMARK                         _______ _______ _______ _____ _____    ______ ____
ROOT
ATOM      1  C   UNL     1       1.416   9.403  18.381  0.00  0.00    +0.000 C 
ATOM      2  O   UNL     1       1.377   8.879  17.277  0.00  0.00    +0.000 OA
ATOM      3  N   UNL     1       1.866   8.758  19.530  0.00  0.00    +0.000 N 
ATOM      4  H   UNL     1       1.615   9.221  20.400  0.00  0.00    +0.000 HD
ENDROOT
BRANCH   1  12
ATOM      5  C   UNL     1      -1.571  10.127  18.419  0.00  0.00    +0.000 C 
ATOM      6  C   UNL     1      -0.504  11.163  18.562  0.00  0.00    +0.000 A 
ATOM      7  C   UNL     1      -0.830  12.452  18.683  0.00  0.00    +0.000 A 
ATOM      8  C   UNL     1       0.172  13.517  18.818  0.00  0.00    +0.000 A 
ATOM      9  O   UNL     1      -0.259  14.668  18.860  0.00  0.00    +0.000 OA
ATOM     10  N   UNL     1       1.506  13.099  18.847  0.00  0.00    +0.000 N 
ATOM     11  N   UNL     1       1.896  11.768  18.689  0.00  0.00    +0.000 NA
ATOM     12  C   UNL     1       0.960  10.869  18.563  0.00  0.00    +0.000 A 
BRANCH  10  13
ATOM     13  C   UNL     1       2.575  14.045  18.990  0.00  0.00    +0.000 A 
ATOM     14  C   UNL     1       3.104  14.715  17.874  0.00  0.00    +0.000 A 
ATOM     15  C   UNL     1       4.191  15.586  17.986  0.00  0.00    +0.000 A 
ATOM     16  C   UNL     1       4.771  15.802  19.232  0.00  0.00    +0.000 A 
ATOM     17  C   UNL     1       4.253  15.165  20.356  0.00  0.00    +0.000 A 
ATOM     18  C   UNL     1       3.149  14.308  20.242  0.00  0.00    +0.000 A 
ENDBRANCH  10  13
ENDBRANCH   1  12
BRANCH   3  19
ATOM     19  C   UNL     1       2.150   7.373  19.552  0.00  0.00    +0.000 A 
ATOM     20  C   UNL     1       1.608   6.623  20.601  0.00  0.00    +0.000 A 
ATOM     21  C   UNL     1       1.733   5.233  20.605  0.00  0.00    +0.000 A 
ATOM     22  C   UNL     1       2.396   4.587  19.558  0.00  0.00    +0.000 A 
ATOM     23  C   UNL     1       3.000   5.311  18.512  0.00  0.00    +0.000 A 
ATOM     24  C   UNL     1       2.916   6.710  18.555  0.00  0.00    +0.000 A 
BRANCH  23  25
ATOM     25  C   UNL     1       3.734   4.490  17.493  0.00  0.00    +0.000 C 
ATOM     26  O   UNL     1       3.025   3.863  16.698  0.00  0.00    +0.000 OA
ATOM     27  N   UNL     1       5.133   4.486  17.364  0.00  0.00    +0.000 N 
ATOM     28  C   UNL     1       6.081   5.092  18.281  0.00  0.00    +0.000 C 
ATOM     29  C   UNL     1       5.724   3.618  16.357  0.00  0.00    +0.000 C 
ENDBRANCH  23  25
BRANCH  24  30
ATOM     30  O   UNL     1       3.708   7.459  17.731  0.00  0.00    +0.000 OA
ATOM     31  H   UNL     1       4.531   7.646  18.213  0.00  0.00    +0.000 HD
ENDBRANCH  24  30
ENDBRANCH   3  19
TORSDOF 5
ENDMDL
