MODEL 1
REMARK VINA RESULT:      -7.0      0.000      0.000
REMARK  Name = 
REMARK  9 active torsions:
REMARK  status: ('A' for Active; 'I' for Inactive)
REMARK    1  A    between atoms: C_1  and  C_2
REMARK    2  A    between atoms: C_2  and  C_3
REMARK    3  A    between atoms: C_3  and  C_4
REMARK    4  A    between atoms: N_6  and  S_7
REMARK    5  A    between atoms: S_7  and  C_10
REMARK    6  A    between atoms: N_14  and  C_15
REMARK    7  A    between atoms: C_15  and  C_16
REMARK    8  A    between atoms: C_16  and  C_17
REMARK    9  A    between atoms: C_19  and  N_20
REMARK                            x       y       z     vdW  Elec       q    Type
REMARK                         _______ _______ _______ _____ _____    ______ ____
ROOT
ATOM      1  C   UNL     1       6.208   5.551  15.411  0.00  0.00    +0.000 C 
ATOM      2  C   UNL     1       4.913   5.008  16.021  0.00  0.00    +0.000 C 
ATOM      3  N   UNL     1       5.358   4.250  17.211  0.00  0.00    +0.000 NA
ATOM      4  C   UNL     1       6.632   4.849  17.699  0.00  0.00    +0.000 C 
ATOM      5  C   UNL     1       7.022   5.927  16.662  0.00  0.00    +0.000 C 
ENDROOT
BRANCH   3   6
ATOM      6  S   UNL     1       4.196   3.914  18.386  0.00  0.00    +0.000 S 
ATOM      7  O   UNL     1       3.204   3.041  17.807  0.00  0.00    +0.000 OA
ATOM      8  O   UNL     1       4.890   3.567  19.608  0.00  0.00    +0.000 OA
BRANCH   6   9
ATOM      9  C   UNL     1       3.391   5.446  18.745  0.00  0.00    +0.000 A 
ATOM     10  C   UNL     1       3.382   6.625  18.009  0.00  0.00    +0.000 A 
ATOM     11  C   UNL     1       2.556   7.511  18.704  0.00  0.00    +0.000 A 
ATOM     12  N   UNL     1       2.057   6.961  19.807  0.00  0.00    +0.000 NA
ATOM     13  N   UNL     1       2.597   5.715  19.838  0.00  0.00    +0.000 N 
BRANCH  13  14
ATOM     14  C   UNL     1       2.294   4.919  21.015  0.00  0.00    +0.000 C 
BRANCH  14  15
ATOM     15  C   UNL     1       1.298   3.784  20.771  0.00  0.00    +0.000 C 
ATOM     16  C   UNL     1       1.555   2.551  21.620  0.00  0.00    +0.000 C 
ENDBRANCH  14  15
ENDBRANCH  13  14
ENDBRANCH   6   9
ENDBRANCH   3   6
BRANCH   5  17
ATOM     17  N   UNL     1       6.683   7.275  17.142  0.00  0.00    +0.000 NA
ATOM     18  H   UNL     1       6.449   7.892  16.363  0.00  0.00    +0.000 HD
ATOM     19  H   UNL     1       7.482   7.691  17.620  0.00  0.00    +0.000 HD
ENDBRANCH   5  17
BRANCH   1  20
ATOM     20  C   UNL     1       6.947   4.520  14.531  0.00  0.00    +0.000 C 
BRANCH  20  22
ATOM     21  C   UNL     1       6.586   3.585  12.205  0.00  0.00    +0.000 C 
ATOM     22  C   UNL     1       5.999   3.758  13.597  0.00  0.00    +0.000 C 
ENDBRANCH  20  22
ENDBRANCH   1  20
TORSDOF 7
ENDMDL
MODEL 2
REMARK VINA RESULT:      -6.9      1.716      3.634
REMARK  Name = 
REMARK  9 active torsions:
REMARK  status: ('A' for Active; 'I' for Inactive)
REMARK    1  A    between atoms: C_1  and  C_2
REMARK    2  A    between atoms: C_2  and  C_3
REMARK    3  A    between atoms: C_3  and  C_4
REMARK    4  A    between atoms: N_6  and  S_7
REMARK    5  A    between atoms: S_7  and  C_10
REMARK    6  A    between atoms: N_14  and  C_15
REMARK    7  A    between atoms: C_15  and  C_16
REMARK    8  A    between atoms: C_16  and  C_17
REMARK    9  A    between atoms: C_19  and  N_20
REMARK                            x       y       z     vdW  Elec       q    Type
REMARK                         _______ _______ _______ _____ _____    ______ ____
ROOT
ATOM      1  C   UNL     1       6.725   5.340  16.791  0.00  0.00    +0.000 C 
ATOM      2  C   UNL     1       6.402   4.397  17.953  0.00  0.00    +0.000 C 
ATOM      3  N   UNL     1       4.926   4.290  17.941  0.00  0.00    +0.000 NA
ATOM      4  C   UNL     1       4.452   4.512  16.545  0.00  0.00    +0.000 C 
ATOM      5  C   UNL     1       5.704   4.901  15.726  0.00  0.00    +0.000 C 
ENDROOT
BRANCH   3   6
ATOM      6  S   UNL     1       4.244   2.984  18.759  0.00  0.00    +0.000 S 
ATOM      7  O   UNL     1       3.866   1.987  17.787  0.00  0.00    +0.000 OA
ATOM      8  O   UNL     1       5.104   2.663  19.877  0.00  0.00    +0.000 OA
BRANCH   6   9
ATOM      9  C   UNL     1       2.752   3.580  19.495  0.00  0.00    +0.000 A 
ATOM     10  C   UNL     1       1.609   2.876  19.856  0.00  0.00    +0.000 A 
ATOM     11  C   UNL     1       0.748   3.805  20.443  0.00  0.00    +0.000 A 
ATOM     12  N   UNL     1       1.279   5.024  20.471  0.00  0.00    +0.000 NA
ATOM     13  N   UNL     1       2.486   4.881  19.863  0.00  0.00    +0.000 N 
BRANCH  13  14
ATOM     14  C   UNL     1       3.246   6.102  19.663  0.00  0.00    +0.000 C 
BRANCH  14  15
ATOM     15  C   UNL     1       2.444   7.254  19.056  0.00  0.00    +0.000 C 
ATOM     16  C   UNL     1       3.026   7.791  17.761  0.00  0.00    +0.000 C 
ENDBRANCH  14  15
ENDBRANCH  13  14
ENDBRANCH   6   9
ENDBRANCH   3   6
BRANCH   5  17
ATOM     17  N   UNL     1       6.200   3.763  14.939  0.00  0.00    +0.000 NA
ATOM     18  H   UNL     1       6.393   2.960  15.539  0.00  0.00    +0.000 HD
ATOM     19  H   UNL     1       7.076   4.006  14.478  0.00  0.00    +0.000 HD
ENDBRANCH   5  17
BRANCH   1  20
ATOM     20  C   UNL     1       6.571   6.832  17.156  0.00  0.00    +0.000 C 
BRANCH  20  22
ATOM     21  C   UNL     1       7.942   8.864  17.792  0.00  0.00    +0.000 C 
ATOM     22  C   UNL     1       7.761   7.364  17.964  0.00  0.00    +0.000 C 
ENDBRANCH  20  22
ENDBRANCH   1  20
TORSDOF 7
ENDMDL
MODEL 3
REMARK VINA RESULT:      -6.8      1.810      2.627
REMARK  Name = 
REMARK  9 active torsions:
REMARK  status: ('A' for Active; 'I' for Inactive)
REMARK    1  A    between atoms: C_1  and  C_2
REMARK    2  A    between atoms: C_2  and  C_3
REMARK    3  A    between atoms: C_3  and  C_4
REMARK    4  A    between atoms: N_6  and  S_7
REMARK    5  A    between atoms: S_7  and  C_10
REMARK    6  A    between atoms: N_14  and  C_15
REMARK    7  A    between atoms: C_15  and  C_16
REMARK    8  A    between atoms: C_16  and  C_17
REMARK    9  A    between atoms: C_19  and  N_20
REMARK                            x       y       z     vdW  Elec       q    Type
REMARK                         _______ _______ _______ _____ _____    ______ ____
ROOT
ATOM      1  C   UNL     1       6.158   4.999  14.914  0.00  0.00    +0.000 C 
ATOM      2  C   UNL     1       4.897   5.335  15.715  0.00  0.00    +0.000 C 
ATOM      3  N   UNL     1       5.082   4.634  17.004  0.00  0.00    +0.000 NA
ATOM      4  C   UNL     1       6.545   4.510  17.264  0.00  0.00    +0.000 C 
ATOM      5  C   UNL     1       7.250   5.047  15.997  0.00  0.00    +0.000 C 
ENDROOT
BRANCH   3   6
ATOM      6  S   UNL     1       4.138   5.150  18.302  0.00  0.00    +0.000 S 
ATOM      7  O   UNL     1       5.009   5.419  19.419  0.00  0.00    +0.000 OA
ATOM      8  O   UNL     1       3.212   6.144  17.807  0.00  0.00    +0.000 OA
BRANCH   6   9
ATOM      9  C   UNL     1       3.123   3.777  18.758  0.00  0.00    +0.000 A 
ATOM     10  C   UNL     1       2.886   2.593  18.069  0.00  0.00    +0.000 A 
ATOM     11  C   UNL     1       2.055   1.825  18.887  0.00  0.00    +0.000 A 
ATOM     12  N   UNL     1       1.769   2.448  20.026  0.00  0.00    +0.000 NA
ATOM     13  N   UNL     1       2.398   3.648  19.923  0.00  0.00    +0.000 N 
BRANCH  13  14
ATOM     14  C   UNL     1       2.161   4.586  21.006  0.00  0.00    +0.000 C 
BRANCH  14  15
ATOM     15  C   UNL     1       1.182   5.711  20.666  0.00  0.00    +0.000 C 
ATOM     16  C   UNL     1       1.784   7.101  20.775  0.00  0.00    +0.000 C 
ENDBRANCH  14  15
ENDBRANCH  13  14
ENDBRANCH   6   9
ENDBRANCH   3   6
BRANCH   5  17
ATOM     17  N   UNL     1       7.747   6.415  16.204  0.00  0.00    +0.000 NA
ATOM     18  H   UNL     1       8.469   6.648  15.521  0.00  0.00    +0.000 HD
ATOM     19  H   UNL     1       8.173   6.501  17.126  0.00  0.00    +0.000 HD
ENDBRANCH   5  17
BRANCH   1  20
ATOM     20  C   UNL     1       6.091   3.620  14.223  0.00  0.00    +0.000 C 
BRANCH  20  22
ATOM     21  C   UNL     1       5.179   3.176  11.903  0.00  0.00    +0.000 C 
ATOM     22  C   UNL     1       6.351   3.705  12.714  0.00  0.00    +0.000 C 
ENDBRANCH  20  22
ENDBRANCH   1  20
TORSDOF 7
ENDMDL
MODEL 4
REMARK VINA RESULT:      -6.8      1.073      1.311
REMARK  Name = 
REMARK  9 active torsions:
REMARK  status: ('A' for Active; 'I' for Inactive)
REMARK    1  A    between atoms: C_1  and  C_2
REMARK    2  A    between atoms: C_2  and  C_3
REMARK    3  A    between atoms: C_3  and  C_4
REMARK    4  A    between atoms: N_6  and  S_7
REMARK    5  A    between atoms: S_7  and  C_10
REMARK    6  A    between atoms: N_14  and  C_15
REMARK    7  A    between atoms: C_15  and  C_16
REMARK    8  A    between atoms: C_16  and  C_17
REMARK    9  A    between atoms: C_19  and  N_20
REMARK                            x       y       z     vdW  Elec       q    Type
REMARK                         _______ _______ _______ _____ _____    ______ ____
ROOT
ATOM      1  C   UNL     1       5.252   4.630  15.102  0.00  0.00    +0.000 C 
ATOM      2  C   UNL     1       4.707   4.127  16.442  0.00  0.00    +0.000 C 
ATOM      3  N   UNL     1       5.799   4.388  17.405  0.00  0.00    +0.000 NA
ATOM      4  C   UNL     1       6.592   5.550  16.910  0.00  0.00    +0.000 C 
ATOM      5  C   UNL     1       6.013   5.901  15.520  0.00  0.00    +0.000 C 
ENDROOT
BRANCH   3   6
ATOM      6  S   UNL     1       5.393   4.408  19.041  0.00  0.00    +0.000 S 
ATOM      7  O   UNL     1       4.968   3.083  19.419  0.00  0.00    +0.000 OA
ATOM      8  O   UNL     1       6.450   5.095  19.751  0.00  0.00    +0.000 OA
BRANCH   6   9
ATOM      9  C   UNL     1       3.986   5.466  19.193  0.00  0.00    +0.000 A 
ATOM     10  C   UNL     1       3.721   6.672  18.554  0.00  0.00    +0.000 A 
ATOM     11  C   UNL     1       2.454   7.072  18.986  0.00  0.00    +0.000 A 
ATOM     12  N   UNL     1       1.923   6.199  19.837  0.00  0.00    +0.000 NA
ATOM     13  N   UNL     1       2.877   5.242  19.980  0.00  0.00    +0.000 N 
BRANCH  13  14
ATOM     14  C   UNL     1       2.594   4.202  20.953  0.00  0.00    +0.000 C 
BRANCH  14  15
ATOM     15  C   UNL     1       1.241   3.512  20.766  0.00  0.00    +0.000 C 
ATOM     16  C   UNL     1       1.112   2.765  19.450  0.00  0.00    +0.000 C 
ENDBRANCH  14  15
ENDBRANCH  13  14
ENDBRANCH   6   9
ENDBRANCH   3   6
BRANCH   5  17
ATOM     17  N   UNL     1       5.120   7.066  15.593  0.00  0.00    +0.000 NA
ATOM     18  H   UNL     1       4.914   7.308  16.563  0.00  0.00    +0.000 HD
ATOM     19  H   UNL     1       4.229   6.857  15.144  0.00  0.00    +0.000 HD
ENDBRANCH   5  17
BRANCH   1  20
ATOM     20  C   UNL     1       6.173   3.610  14.399  0.00  0.00    +0.000 C 
BRANCH  20  22
ATOM     21  C   UNL     1       7.100   4.061  12.085  0.00  0.00    +0.000 C 
ATOM     22  C   UNL     1       5.920   3.535  12.888  0.00  0.00    +0.000 C 
ENDBRANCH  20  22
ENDBRANCH   1  20
TORSDOF 7
ENDMDL
MODEL 5
REMARK VINA RESULT:      -6.7      1.839      6.031
REMARK  Name = 
REMARK  9 active torsions:
REMARK  status: ('A' for Active; 'I' for Inactive)
REMARK    1  A    between atoms: C_1  and  C_2
REMARK    2  A    between atoms: C_2  and  C_3
REMARK    3  A    between atoms: C_3  and  C_4
REMARK    4  A    between atoms: N_6  and  S_7
REMARK    5  A    between atoms: S_7  and  C_10
REMARK    6  A    between atoms: N_14  and  C_15
REMARK    7  A    between atoms: C_15  and  C_16
REMARK    8  A    between atoms: C_16  and  C_17
REMARK    9  A    between atoms: C_19  and  N_20
REMARK                            x       y       z     vdW  Elec       q    Type
REMARK                         _______ _______ _______ _____ _____    ______ ____
ROOT
ATOM      1  C   UNL     1       2.089   6.891  18.433  0.00  0.00    +0.000 C 
ATOM      2  C   UNL     1       2.729   5.785  17.591  0.00  0.00    +0.000 C 
ATOM      3  N   UNL     1       4.039   5.544  18.235  0.00  0.00    +0.000 NA
ATOM      4  C   UNL     1       3.922   5.893  19.679  0.00  0.00    +0.000 C 
ATOM      5  C   UNL     1       2.509   6.495  19.860  0.00  0.00    +0.000 C 
ENDROOT
BRANCH   3   6
ATOM      6  S   UNL     1       4.812   4.088  17.883  0.00  0.00    +0.000 S 
ATOM      7  O   UNL     1       5.613   3.712  19.021  0.00  0.00    +0.000 OA
ATOM      8  O   UNL     1       3.829   3.190  17.319  0.00  0.00    +0.000 OA
BRANCH   6   9
ATOM      9  C   UNL     1       5.929   4.425  16.554  0.00  0.00    +0.000 A 
ATOM     10  C   UNL     1       5.991   3.845  15.292  0.00  0.00    +0.000 A 
ATOM     11  C   UNL     1       7.017   4.504  14.611  0.00  0.00    +0.000 A 
ATOM     12  N   UNL     1       7.584   5.445  15.360  0.00  0.00    +0.000 NA
ATOM     13  N   UNL     1       6.935   5.367  16.551  0.00  0.00    +0.000 N 
BRANCH  13  14
ATOM     14  C   UNL     1       7.434   6.230  17.607  0.00  0.00    +0.000 C 
BRANCH  14  15
ATOM     15  C   UNL     1       7.229   7.724  17.352  0.00  0.00    +0.000 C 
ATOM     16  C   UNL     1       8.280   8.607  18.003  0.00  0.00    +0.000 C 
ENDBRANCH  14  15
ENDBRANCH  13  14
ENDBRANCH   6   9
ENDBRANCH   3   6
BRANCH   5  17
ATOM     17  N   UNL     1       1.583   5.515  20.444  0.00  0.00    +0.000 NA
ATOM     18  H   UNL     1       1.847   4.563  20.185  0.00  0.00    +0.000 HD
ATOM     19  H   UNL     1       0.639   5.667  20.092  0.00  0.00    +0.000 HD
ENDBRANCH   5  17
BRANCH   1  20
ATOM     20  C   UNL     1       2.581   8.305  18.058  0.00  0.00    +0.000 C 
BRANCH  20  22
ATOM     21  C   UNL     1       0.346   9.495  18.031  0.00  0.00    +0.000 C 
ATOM     22  C   UNL     1       1.720   9.412  18.678  0.00  0.00    +0.000 C 
ENDBRANCH  20  22
ENDBRANCH   1  20
TORSDOF 7
ENDMDL
MODEL 6
REMARK VINA RESULT:      -6.7      1.673      5.867
REMARK  Name = 
REMARK  9 active torsions:
REMARK  status: ('A' for Active; 'I' for Inactive)
REMARK    1  A    between atoms: C_1  and  C_2
REMARK    2  A    between atoms: C_2  and  C_3
REMARK    3  A    between atoms: C_3  and  C_4
REMARK    4  A    between atoms: N_6  and  S_7
REMARK    5  A    between atoms: S_7  and  C_10
REMARK    6  A    between atoms: N_14  and  C_15
REMARK    7  A    between atoms: C_15  and  C_16
REMARK    8  A    between atoms: C_16  and  C_17
REMARK    9  A    between atoms: C_19  and  N_20
REMARK                            x       y       z     vdW  Elec       q    Type
REMARK                         _______ _______ _______ _____ _____    ______ ____
ROOT
ATOM      1  C   UNL     1       1.728   6.143  19.033  0.00  0.00    +0.000 C 
ATOM      2  C   UNL     1       2.610   5.366  18.051  0.00  0.00    +0.000 C 
ATOM      3  N   UNL     1       3.729   4.866  18.880  0.00  0.00    +0.000 NA
ATOM      4  C   UNL     1       3.240   4.704  20.278  0.00  0.00    +0.000 C 
ATOM      5  C   UNL     1       1.799   5.265  20.295  0.00  0.00    +0.000 C 
ENDROOT
BRANCH   3   6
ATOM      6  S   UNL     1       4.634   3.588  18.256  0.00  0.00    +0.000 S 
ATOM      7  O   UNL     1       5.520   3.112  19.290  0.00  0.00    +0.000 OA
ATOM      8  O   UNL     1       3.726   2.697  17.567  0.00  0.00    +0.000 OA
BRANCH   6   9
ATOM      9  C   UNL     1       5.649   4.272  16.980  0.00  0.00    +0.000 A 
ATOM     10  C   UNL     1       5.918   3.773  15.711  0.00  0.00    +0.000 A 
ATOM     11  C   UNL     1       6.732   4.720  15.085  0.00  0.00    +0.000 A 
ATOM     12  N   UNL     1       6.978   5.761  15.874  0.00  0.00    +0.000 NA
ATOM     13  N   UNL     1       6.340   5.463  17.037  0.00  0.00    +0.000 N 
BRANCH  13  14
ATOM     14  C   UNL     1       6.534   6.401  18.128  0.00  0.00    +0.000 C 
BRANCH  14  15
ATOM     15  C   UNL     1       7.932   7.020  18.187  0.00  0.00    +0.000 C 
ATOM     16  C   UNL     1       7.963   8.496  17.831  0.00  0.00    +0.000 C 
ENDBRANCH  14  15
ENDBRANCH  13  14
ENDBRANCH   6   9
ENDBRANCH   3   6
BRANCH   5  17
ATOM     17  N   UNL     1       0.805   4.183  20.259  0.00  0.00    +0.000 NA
ATOM     18  H   UNL     1       0.963   3.517  21.016  0.00  0.00    +0.000 HD
ATOM     19  H   UNL     1       0.882   3.662  19.386  0.00  0.00    +0.000 HD
ENDBRANCH   5  17
BRANCH   1  20
ATOM     20  C   UNL     1       2.229   7.578  19.299  0.00  0.00    +0.000 C 
BRANCH  20  22
ATOM     21  C   UNL     1       1.414   9.485  17.845  0.00  0.00    +0.000 C 
ATOM     22  C   UNL     1       2.442   8.375  18.006  0.00  0.00    +0.000 C 
ENDBRANCH  20  22
ENDBRANCH   1  20
TORSDOF 7
ENDMDL
MODEL 7
REMARK VINA RESULT:      -6.7      2.064      3.813
REMARK  Name = 
REMARK  9 active torsions:
REMARK  status: ('A' for Active; 'I' for Inactive)
REMARK    1  A    between atoms: C_1  and  C_2
REMARK    2  A    between atoms: C_2  and  C_3
REMARK    3  A    between atoms: C_3  and  C_4
REMARK    4  A    between atoms: N_6  and  S_7
REMARK    5  A    between atoms: S_7  and  C_10
REMARK    6  A    between atoms: N_14  and  C_15
REMARK    7  A    between atoms: C_15  and  C_16
REMARK    8  A    between atoms: C_16  and  C_17
REMARK    9  A    between atoms: C_19  and  N_20
REMARK                            x       y       z     vdW  Elec       q    Type
REMARK                         _______ _______ _______ _____ _____    ______ ____
ROOT
ATOM      1  C   UNL     1       6.178   4.849  17.455  0.00  0.00    +0.000 C 
ATOM      2  C   UNL     1       5.058   4.193  18.266  0.00  0.00    +0.000 C 
ATOM      3  N   UNL     1       3.841   4.407  17.453  0.00  0.00    +0.000 NA
ATOM      4  C   UNL     1       4.245   4.504  16.022  0.00  0.00    +0.000 C 
ATOM      5  C   UNL     1       5.791   4.479  16.012  0.00  0.00    +0.000 C 
ENDROOT
BRANCH   3   6
ATOM      6  S   UNL     1       2.512   3.424  17.785  0.00  0.00    +0.000 S 
ATOM      7  O   UNL     1       1.323   4.097  17.322  0.00  0.00    +0.000 OA
ATOM      8  O   UNL     1       2.838   2.081  17.358  0.00  0.00    +0.000 OA
BRANCH   6   9
ATOM      9  C   UNL     1       2.396   3.321  19.546  0.00  0.00    +0.000 A 
ATOM     10  C   UNL     1       2.629   2.233  20.378  0.00  0.00    +0.000 A 
ATOM     11  C   UNL     1       2.449   2.695  21.684  0.00  0.00    +0.000 A 
ATOM     12  N   UNL     1       2.127   3.985  21.712  0.00  0.00    +0.000 NA
ATOM     13  N   UNL     1       2.067   4.348  20.404  0.00  0.00    +0.000 N 
BRANCH  13  14
ATOM     14  C   UNL     1       1.625   5.706  20.140  0.00  0.00    +0.000 C 
BRANCH  14  15
ATOM     15  C   UNL     1       2.745   6.668  19.739  0.00  0.00    +0.000 C 
ATOM     16  C   UNL     1       2.452   7.455  18.473  0.00  0.00    +0.000 C 
ENDBRANCH  14  15
ENDBRANCH  13  14
ENDBRANCH   6   9
ENDBRANCH   3   6
BRANCH   5  17
ATOM     17  N   UNL     1       6.300   3.152  15.639  0.00  0.00    +0.000 NA
ATOM     18  H   UNL     1       7.122   3.231  15.038  0.00  0.00    +0.000 HD
ATOM     19  H   UNL     1       5.595   2.638  15.111  0.00  0.00    +0.000 HD
ENDBRANCH   5  17
BRANCH   1  20
ATOM     20  C   UNL     1       6.261   6.378  17.656  0.00  0.00    +0.000 C 
BRANCH  20  22
ATOM     21  C   UNL     1       7.861   8.341  17.684  0.00  0.00    +0.000 C 
ATOM     22  C   UNL     1       7.687   6.854  17.957  0.00  0.00    +0.000 C 
ENDBRANCH  20  22
ENDBRANCH   1  20
TORSDOF 7
ENDMDL
MODEL 8
REMARK VINA RESULT:      -6.7      1.463      2.922
REMARK  Name = 
REMARK  9 active torsions:
REMARK  status: ('A' for Active; 'I' for Inactive)
REMARK    1  A    between atoms: C_1  and  C_2
REMARK    2  A    between atoms: C_2  and  C_3
REMARK    3  A    between atoms: C_3  and  C_4
REMARK    4  A    between atoms: N_6  and  S_7
REMARK    5  A    between atoms: S_7  and  C_10
REMARK    6  A    between atoms: N_14  and  C_15
REMARK    7  A    between atoms: C_15  and  C_16
REMARK    8  A    between atoms: C_16  and  C_17
REMARK    9  A    between atoms: C_19  and  N_20
REMARK                            x       y       z     vdW  Elec       q    Type
REMARK                         _______ _______ _______ _____ _____    ______ ____
ROOT
ATOM      1  C   UNL     1       7.294   5.497  16.676  0.00  0.00    +0.000 C 
ATOM      2  C   UNL     1       6.673   4.872  17.928  0.00  0.00    +0.000 C 
ATOM      3  N   UNL     1       5.217   5.057  17.747  0.00  0.00    +0.000 NA
ATOM      4  C   UNL     1       4.928   5.100  16.286  0.00  0.00    +0.000 C 
ATOM      5  C   UNL     1       6.303   5.074  15.578  0.00  0.00    +0.000 C 
ENDROOT
BRANCH   3   6
ATOM      6  S   UNL     1       4.199   4.088  18.678  0.00  0.00    +0.000 S 
ATOM      7  O   UNL     1       3.387   3.295  17.787  0.00  0.00    +0.000 OA
ATOM      8  O   UNL     1       4.997   3.478  19.718  0.00  0.00    +0.000 OA
BRANCH   6   9
ATOM      9  C   UNL     1       3.108   5.185  19.532  0.00  0.00    +0.000 A 
ATOM     10  C   UNL     1       2.828   6.522  19.273  0.00  0.00    +0.000 A 
ATOM     11  C   UNL     1       1.862   6.906  20.206  0.00  0.00    +0.000 A 
ATOM     12  N   UNL     1       1.528   5.903  21.014  0.00  0.00    +0.000 NA
ATOM     13  N   UNL     1       2.315   4.870  20.614  0.00  0.00    +0.000 N 
BRANCH  13  14
ATOM     14  C   UNL     1       2.227   3.658  21.410  0.00  0.00    +0.000 C 
BRANCH  14  15
ATOM     15  C   UNL     1       1.646   2.455  20.666  0.00  0.00    +0.000 C 
ATOM     16  C   UNL     1       0.558   2.816  19.670  0.00  0.00    +0.000 C 
ENDBRANCH  14  15
ENDBRANCH  13  14
ENDBRANCH   6   9
ENDBRANCH   3   6
BRANCH   5  17
ATOM     17  N   UNL     1       6.609   3.733  15.060  0.00  0.00    +0.000 NA
ATOM     18  H   UNL     1       7.196   3.214  15.714  0.00  0.00    +0.000 HD
ATOM     19  H   UNL     1       7.130   3.803  14.186  0.00  0.00    +0.000 HD
ENDBRANCH   5  17
BRANCH   1  20
ATOM     20  C   UNL     1       7.435   7.032  16.767  0.00  0.00    +0.000 C 
BRANCH  20  22
ATOM     21  C   UNL     1       8.295   8.975  18.144  0.00  0.00    +0.000 C 
ATOM     22  C   UNL     1       7.943   7.496  18.137  0.00  0.00    +0.000 C 
ENDBRANCH  20  22
ENDBRANCH   1  20
TORSDOF 7
ENDMDL
MODEL 9
REMARK VINA RESULT:      -6.6      1.526      2.672
REMARK  Name = 
REMARK  9 active torsions:
REMARK  status: ('A' for Active; 'I' for Inactive)
REMARK    1  A    between atoms: C_1  and  C_2
REMARK    2  A    between atoms: C_2  and  C_3
REMARK    3  A    between atoms: C_3  and  C_4
REMARK    4  A    between atoms: N_6  and  S_7
REMARK    5  A    between atoms: S_7  and  C_10
REMARK    6  A    between atoms: N_14  and  C_15
REMARK    7  A    between atoms: C_15  and  C_16
REMARK    8  A    between atoms: C_16  and  C_17
REMARK    9  A    between atoms: C_19  and  N_20
REMARK                            x       y       z     vdW  Elec       q    Type
REMARK                         _______ _______ _______ _____ _____    ______ ____
ROOT
ATOM      1  C   UNL     1       5.828   4.916  15.401  0.00  0.00    +0.000 C 
ATOM      2  C   UNL     1       4.818   4.558  16.495  0.00  0.00    +0.000 C 
ATOM      3  N   UNL     1       5.647   4.035  17.603  0.00  0.00    +0.000 NA
ATOM      4  C   UNL     1       6.994   4.667  17.519  0.00  0.00    +0.000 C 
ATOM      5  C   UNL     1       6.994   5.501  16.217  0.00  0.00    +0.000 C 
ENDROOT
BRANCH   3   6
ATOM      6  S   UNL     1       4.942   3.987  19.133  0.00  0.00    +0.000 S 
ATOM      7  O   UNL     1       5.381   2.785  19.798  0.00  0.00    +0.000 OA
ATOM      8  O   UNL     1       5.108   5.291  19.738  0.00  0.00    +0.000 OA
BRANCH   6   9
ATOM      9  C   UNL     1       3.200   3.829  18.876  0.00  0.00    +0.000 A 
ATOM     10  C   UNL     1       2.464   2.704  18.526  0.00  0.00    +0.000 A 
ATOM     11  C   UNL     1       1.126   3.105  18.503  0.00  0.00    +0.000 A 
ATOM     12  N   UNL     1       0.989   4.390  18.816  0.00  0.00    +0.000 NA
ATOM     13  N   UNL     1       2.261   4.828  19.010  0.00  0.00    +0.000 N 
BRANCH  13  14
ATOM     14  C   UNL     1       2.412   6.250  19.268  0.00  0.00    +0.000 C 
BRANCH  14  15
ATOM     15  C   UNL     1       2.662   7.095  18.018  0.00  0.00    +0.000 C 
ATOM     16  C   UNL     1       2.120   8.510  18.116  0.00  0.00    +0.000 C 
ENDBRANCH  14  15
ENDBRANCH  13  14
ENDBRANCH   6   9
ENDBRANCH   3   6
BRANCH   5  17
ATOM     17  N   UNL     1       6.794   6.929  16.499  0.00  0.00    +0.000 NA
ATOM     18  H   UNL     1       6.823   7.111  17.504  0.00  0.00    +0.000 HD
ATOM     19  H   UNL     1       5.877   7.230  16.170  0.00  0.00    +0.000 HD
ENDBRANCH   5  17
BRANCH   1  20
ATOM     20  C   UNL     1       6.267   3.701  14.555  0.00  0.00    +0.000 C 
BRANCH  20  22
ATOM     21  C   UNL     1       5.397   3.306  12.210  0.00  0.00    +0.000 C 
ATOM     22  C   UNL     1       6.414   4.043  13.068  0.00  0.00    +0.000 C 
ENDBRANCH  20  22
ENDBRANCH   1  20
TORSDOF 7
ENDMDL
