MODEL 1
REMARK VINA RESULT:      -7.4      0.000      0.000
REMARK  Name = 
REMARK  10 active torsions:
REMARK  status: ('A' for Active; 'I' for Inactive)
REMARK    1  A    between atoms: C_1  and  O_2
REMARK    2  A    between atoms: O_2  and  C_3
REMARK    3  A    between atoms: C_4  and  C_5
REMARK    4  A    between atoms: C_8  and  O_9
REMARK    5  A    between atoms: C_14  and  C_15
REMARK    6  A    between atoms: C_18  and  C_19
REMARK    7  A    between atoms: C_19  and  O_21
REMARK    8  A    between atoms: C_22  and  O_23
REMARK    9  A    between atoms: C_25  and  O_26
REMARK   10  A    between atoms: O_26  and  C_27
REMARK                            x       y       z     vdW  Elec       q    Type
REMARK                         _______ _______ _______ _____ _____    ______ ____
ROOT
ATOM      1  C   UNL     1       1.047   8.686  20.019  0.00  0.00    +0.000 A 
ATOM      2  C   UNL     1       0.634   9.745  19.165  0.00  0.00    +0.000 A 
ATOM      3  C   UNL     1       1.186   9.788  17.875  0.00  0.00    +0.000 A 
ATOM      4  C   UNL     1       2.145   8.866  17.453  0.00  0.00    +0.000 A 
ATOM      5  C   UNL     1       2.616   7.849  18.300  0.00  0.00    +0.000 A 
ATOM      6  C   UNL     1       2.050   7.763  19.604  0.00  0.00    +0.000 A 
ENDROOT
BRANCH   2   7
ATOM      7  C   UNL     1      -0.350  10.791  19.547  0.00  0.00    +0.000 A 
ATOM      8  C   UNL     1      -1.639  10.840  18.982  0.00  0.00    +0.000 A 
ATOM      9  C   UNL     1      -2.513  11.899  19.256  0.00  0.00    +0.000 A 
ATOM     10  C   UNL     1      -2.121  12.898  20.139  0.00  0.00    +0.000 A 
ATOM     11  C   UNL     1      -0.883  12.848  20.760  0.00  0.00    +0.000 A 
ATOM     12  C   UNL     1      -0.003  11.804  20.461  0.00  0.00    +0.000 A 
BRANCH  10  13
ATOM     13  O   UNL     1      -2.926  13.963  20.415  0.00  0.00    +0.000 OA
ATOM     14  H   UNL     1      -3.671  13.961  19.792  0.00  0.00    +0.000 HD
ENDBRANCH  10  13
ENDBRANCH   2   7
BRANCH   5  15
ATOM     15  C   UNL     1       3.680   6.928  17.796  0.00  0.00    +0.000 A 
ATOM     16  C   UNL     1       3.413   5.560  17.583  0.00  0.00    +0.000 A 
ATOM     17  C   UNL     1       4.392   4.685  17.094  0.00  0.00    +0.000 A 
ATOM     18  C   UNL     1       5.677   5.154  16.812  0.00  0.00    +0.000 A 
ATOM     19  C   UNL     1       5.964   6.500  17.044  0.00  0.00    +0.000 A 
ATOM     20  C   UNL     1       4.977   7.380  17.493  0.00  0.00    +0.000 A 
BRANCH  18  21
ATOM     21  C   UNL     1       6.678   4.191  16.298  0.00  0.00    +0.000 C 
ATOM     22  O   UNL     1       7.876   4.318  16.498  0.00  0.00    +0.000 OA
BRANCH  21  23
ATOM     23  O   UNL     1       6.155   3.150  15.616  0.00  0.00    +0.000 OA
ATOM     24  H   UNL     1       6.128   2.317  16.139  0.00  0.00    +0.000 HD
ENDBRANCH  21  23
ENDBRANCH  18  21
BRANCH  19  25
ATOM     25  O   UNL     1       7.223   6.991  16.839  0.00  0.00    +0.000 OA
ATOM     26  H   UNL     1       7.314   7.744  17.461  0.00  0.00    +0.000 HD
ENDBRANCH  19  25
ENDBRANCH   5  15
BRANCH   1  28
ATOM     27  C   UNL     1       1.344   9.111  22.334  0.00  0.00    +0.000 C 
ATOM     28  O   UNL     1       0.536   8.558  21.291  0.00  0.00    +0.000 OA
ENDBRANCH   1  28
BRANCH   6  29
ATOM     29  O   UNL     1       2.510   6.690  20.336  0.00  0.00    +0.000 OA
ATOM     30  C   UNL     1       1.670   5.577  20.589  0.00  0.00    +0.000 C 
ENDBRANCH   6  29
TORSDOF 8
ENDMDL
MODEL 2
REMARK VINA RESULT:      -7.3      0.544      1.322
REMARK  Name = 
REMARK  10 active torsions:
REMARK  status: ('A' for Active; 'I' for Inactive)
REMARK    1  A    between atoms: C_1  and  O_2
REMARK    2  A    between atoms: O_2  and  C_3
REMARK    3  A    between atoms: C_4  and  C_5
REMARK    4  A    between atoms: C_8  and  O_9
REMARK    5  A    between atoms: C_14  and  C_15
REMARK    6  A    between atoms: C_18  and  C_19
REMARK    7  A    between atoms: C_19  and  O_21
REMARK    8  A    between atoms: C_22  and  O_23
REMARK    9  A    between atoms: C_25  and  O_26
REMARK   10  A    between atoms: O_26  and  C_27
REMARK                            x       y       z     vdW  Elec       q    Type
REMARK                         _______ _______ _______ _____ _____    ______ ____
ROOT
ATOM      1  C   UNL     1       1.059   8.702  20.030  0.00  0.00    +0.000 A 
ATOM      2  C   UNL     1       0.673   9.772  19.177  0.00  0.00    +0.000 A 
ATOM      3  C   UNL     1       1.222   9.798  17.884  0.00  0.00    +0.000 A 
ATOM      4  C   UNL     1       2.153   8.849  17.461  0.00  0.00    +0.000 A 
ATOM      5  C   UNL     1       2.598   7.820  18.307  0.00  0.00    +0.000 A 
ATOM      6  C   UNL     1       2.035   7.751  19.614  0.00  0.00    +0.000 A 
ENDROOT
BRANCH   2   7
ATOM      7  C   UNL     1      -0.280  10.845  19.560  0.00  0.00    +0.000 A 
ATOM      8  C   UNL     1      -1.599  10.878  19.069  0.00  0.00    +0.000 A 
ATOM      9  C   UNL     1      -2.449  11.958  19.338  0.00  0.00    +0.000 A 
ATOM     10  C   UNL     1      -1.999  12.997  20.144  0.00  0.00    +0.000 A 
ATOM     11  C   UNL     1      -0.727  12.966  20.695  0.00  0.00    +0.000 A 
ATOM     12  C   UNL     1       0.127  11.900  20.399  0.00  0.00    +0.000 A 
BRANCH  10  13
ATOM     13  O   UNL     1      -2.780  14.083  20.411  0.00  0.00    +0.000 OA
ATOM     14  H   UNL     1      -2.540  14.797  19.799  0.00  0.00    +0.000 HD
ENDBRANCH  10  13
ENDBRANCH   2   7
BRANCH   5  15
ATOM     15  C   UNL     1       3.634   6.868  17.802  0.00  0.00    +0.000 A 
ATOM     16  C   UNL     1       4.913   7.325  17.422  0.00  0.00    +0.000 A 
ATOM     17  C   UNL     1       5.904   6.446  16.964  0.00  0.00    +0.000 A 
ATOM     18  C   UNL     1       5.638   5.079  16.861  0.00  0.00    +0.000 A 
ATOM     19  C   UNL     1       4.367   4.616  17.206  0.00  0.00    +0.000 A 
ATOM     20  C   UNL     1       3.394   5.486  17.701  0.00  0.00    +0.000 A 
BRANCH  18  21
ATOM     21  C   UNL     1       6.716   4.189  16.369  0.00  0.00    +0.000 C 
ATOM     22  O   UNL     1       7.879   4.309  16.721  0.00  0.00    +0.000 OA
BRANCH  21  23
ATOM     23  O   UNL     1       6.302   3.221  15.526  0.00  0.00    +0.000 OA
ATOM     24  H   UNL     1       5.360   2.966  15.658  0.00  0.00    +0.000 HD
ENDBRANCH  21  23
ENDBRANCH  18  21
BRANCH  19  25
ATOM     25  O   UNL     1       4.042   3.296  17.064  0.00  0.00    +0.000 OA
ATOM     26  H   UNL     1       4.894   2.812  17.090  0.00  0.00    +0.000 HD
ENDBRANCH  19  25
ENDBRANCH   5  15
BRANCH   1  28
ATOM     27  C   UNL     1       1.370   9.134  22.342  0.00  0.00    +0.000 C 
ATOM     28  O   UNL     1       0.549   8.591  21.305  0.00  0.00    +0.000 OA
ENDBRANCH   1  28
BRANCH   6  29
ATOM     29  O   UNL     1       2.467   6.667  20.346  0.00  0.00    +0.000 OA
ATOM     30  C   UNL     1       1.586   5.595  20.635  0.00  0.00    +0.000 C 
ENDBRANCH   6  29
TORSDOF 8
ENDMDL
MODEL 3
REMARK VINA RESULT:      -7.1      1.122      8.783
REMARK  Name = 
REMARK  10 active torsions:
REMARK  status: ('A' for Active; 'I' for Inactive)
REMARK    1  A    between atoms: C_1  and  O_2
REMARK    2  A    between atoms: O_2  and  C_3
REMARK    3  A    between atoms: C_4  and  C_5
REMARK    4  A    between atoms: C_8  and  O_9
REMARK    5  A    between atoms: C_14  and  C_15
REMARK    6  A    between atoms: C_18  and  C_19
REMARK    7  A    between atoms: C_19  and  O_21
REMARK    8  A    between atoms: C_22  and  O_23
REMARK    9  A    between atoms: C_25  and  O_26
REMARK   10  A    between atoms: O_26  and  C_27
REMARK                            x       y       z     vdW  Elec       q    Type
REMARK                         _______ _______ _______ _____ _____    ______ ____
ROOT
ATOM      1  C   UNL     1       2.223   7.330  19.643  0.00  0.00    +0.000 A 
ATOM      2  C   UNL     1       2.813   7.311  18.349  0.00  0.00    +0.000 A 
ATOM      3  C   UNL     1       2.574   8.414  17.513  0.00  0.00    +0.000 A 
ATOM      4  C   UNL     1       1.746   9.468  17.903  0.00  0.00    +0.000 A 
ATOM      5  C   UNL     1       1.101   9.479  19.151  0.00  0.00    +0.000 A 
ATOM      6  C   UNL     1       1.350   8.388  20.032  0.00  0.00    +0.000 A 
ENDROOT
BRANCH   2   7
ATOM      7  C   UNL     1       3.673   6.212  17.839  0.00  0.00    +0.000 A 
ATOM      8  C   UNL     1       5.031   6.414  17.529  0.00  0.00    +0.000 A 
ATOM      9  C   UNL     1       5.799   5.406  16.934  0.00  0.00    +0.000 A 
ATOM     10  C   UNL     1       5.225   4.165  16.686  0.00  0.00    +0.000 A 
ATOM     11  C   UNL     1       3.907   3.913  17.034  0.00  0.00    +0.000 A 
ATOM     12  C   UNL     1       3.136   4.932  17.601  0.00  0.00    +0.000 A 
BRANCH  10  13
ATOM     13  O   UNL     1       5.924   3.162  16.082  0.00  0.00    +0.000 OA
ATOM     14  H   UNL     1       5.310   2.443  15.861  0.00  0.00    +0.000 HD
ENDBRANCH  10  13
ENDBRANCH   2   7
BRANCH   5  15
ATOM     15  C   UNL     1       0.190  10.618  19.481  0.00  0.00    +0.000 A 
ATOM     16  C   UNL     1       0.647  11.714  20.240  0.00  0.00    +0.000 A 
ATOM     17  C   UNL     1      -0.186  12.799  20.543  0.00  0.00    +0.000 A 
ATOM     18  C   UNL     1      -1.511  12.813  20.101  0.00  0.00    +0.000 A 
ATOM     19  C   UNL     1      -1.985  11.723  19.372  0.00  0.00    +0.000 A 
ATOM     20  C   UNL     1      -1.144  10.660  19.036  0.00  0.00    +0.000 A 
BRANCH  18  21
ATOM     21  C   UNL     1      -2.353  13.982  20.448  0.00  0.00    +0.000 C 
ATOM     22  O   UNL     1      -3.398  13.878  21.071  0.00  0.00    +0.000 OA
BRANCH  21  23
ATOM     23  O   UNL     1      -1.857  15.170  20.043  0.00  0.00    +0.000 OA
ATOM     24  H   UNL     1      -1.331  15.109  19.214  0.00  0.00    +0.000 HD
ENDBRANCH  21  23
ENDBRANCH  18  21
BRANCH  19  25
ATOM     25  O   UNL     1      -3.290  11.665  18.970  0.00  0.00    +0.000 OA
ATOM     26  H   UNL     1      -3.770  12.295  19.548  0.00  0.00    +0.000 HD
ENDBRANCH  19  25
ENDBRANCH   5  15
BRANCH   1  28
ATOM     27  C   UNL     1       1.389   5.316  20.578  0.00  0.00    +0.000 C 
ATOM     28  O   UNL     1       2.427   6.299  20.532  0.00  0.00    +0.000 OA
ENDBRANCH   1  28
BRANCH   6  29
ATOM     29  O   UNL     1       0.744   8.520  21.261  0.00  0.00    +0.000 OA
ATOM     30  C   UNL     1       1.464   9.030  22.370  0.00  0.00    +0.000 C 
ENDBRANCH   6  29
TORSDOF 8
ENDMDL
MODEL 4
REMARK VINA RESULT:      -7.1      1.129      8.700
REMARK  Name = 
REMARK  10 active torsions:
REMARK  status: ('A' for Active; 'I' for Inactive)
REMARK    1  A    between atoms: C_1  and  O_2
REMARK    2  A    between atoms: O_2  and  C_3
REMARK    3  A    between atoms: C_4  and  C_5
REMARK    4  A    between atoms: C_8  and  O_9
REMARK    5  A    between atoms: C_14  and  C_15
REMARK    6  A    between atoms: C_18  and  C_19
REMARK    7  A    between atoms: C_19  and  O_21
REMARK    8  A    between atoms: C_22  and  O_23
REMARK    9  A    between atoms: C_25  and  O_26
REMARK   10  A    between atoms: O_26  and  C_27
REMARK                            x       y       z     vdW  Elec       q    Type
REMARK                         _______ _______ _______ _____ _____    ______ ____
ROOT
ATOM      1  C   UNL     1       2.244   7.301  19.649  0.00  0.00    +0.000 A 
ATOM      2  C   UNL     1       2.825   7.296  18.351  0.00  0.00    +0.000 A 
ATOM      3  C   UNL     1       2.579   8.408  17.529  0.00  0.00    +0.000 A 
ATOM      4  C   UNL     1       1.753   9.457  17.936  0.00  0.00    +0.000 A 
ATOM      5  C   UNL     1       1.115   9.453  19.189  0.00  0.00    +0.000 A 
ATOM      6  C   UNL     1       1.372   8.352  20.056  0.00  0.00    +0.000 A 
ENDROOT
BRANCH   2   7
ATOM      7  C   UNL     1       3.683   6.205  17.823  0.00  0.00    +0.000 A 
ATOM      8  C   UNL     1       5.038   6.414  17.503  0.00  0.00    +0.000 A 
ATOM      9  C   UNL     1       5.804   5.413  16.892  0.00  0.00    +0.000 A 
ATOM     10  C   UNL     1       5.230   4.173  16.637  0.00  0.00    +0.000 A 
ATOM     11  C   UNL     1       3.916   3.914  16.995  0.00  0.00    +0.000 A 
ATOM     12  C   UNL     1       3.148   4.925  17.578  0.00  0.00    +0.000 A 
BRANCH  10  13
ATOM     13  O   UNL     1       5.927   3.178  16.018  0.00  0.00    +0.000 OA
ATOM     14  H   UNL     1       6.573   2.814  16.644  0.00  0.00    +0.000 HD
ENDBRANCH  10  13
ENDBRANCH   2   7
BRANCH   5  15
ATOM     15  C   UNL     1       0.205  10.586  19.537  0.00  0.00    +0.000 A 
ATOM     16  C   UNL     1      -1.144  10.584  19.128  0.00  0.00    +0.000 A 
ATOM     17  C   UNL     1      -2.017  11.628  19.461  0.00  0.00    +0.000 A 
ATOM     18  C   UNL     1      -1.560  12.716  20.208  0.00  0.00    +0.000 A 
ATOM     19  C   UNL     1      -0.220  12.746  20.597  0.00  0.00    +0.000 A 
ATOM     20  C   UNL     1       0.639  11.686  20.300  0.00  0.00    +0.000 A 
BRANCH  18  21
ATOM     21  C   UNL     1      -2.520  13.796  20.534  0.00  0.00    +0.000 C 
ATOM     22  O   UNL     1      -3.545  13.596  21.168  0.00  0.00    +0.000 OA
BRANCH  21  23
ATOM     23  O   UNL     1      -2.155  15.020  20.099  0.00  0.00    +0.000 OA
ATOM     24  H   UNL     1      -1.189  15.190  20.183  0.00  0.00    +0.000 HD
ENDBRANCH  21  23
ENDBRANCH  18  21
BRANCH  19  25
ATOM     25  O   UNL     1       0.287  13.817  21.277  0.00  0.00    +0.000 OA
ATOM     26  H   UNL     1      -0.071  13.742  22.187  0.00  0.00    +0.000 HD
ENDBRANCH  19  25
ENDBRANCH   5  15
BRANCH   1  28
ATOM     27  C   UNL     1       1.410   5.285  20.581  0.00  0.00    +0.000 C 
ATOM     28  O   UNL     1       2.455   6.259  20.525  0.00  0.00    +0.000 OA
ENDBRANCH   1  28
BRANCH   6  29
ATOM     29  O   UNL     1       0.773   8.469  21.290  0.00  0.00    +0.000 OA
ATOM     30  C   UNL     1       1.484   9.017  22.388  0.00  0.00    +0.000 C 
ENDBRANCH   6  29
TORSDOF 8
ENDMDL
MODEL 5
REMARK VINA RESULT:      -7.0      2.265      8.479
REMARK  Name = 
REMARK  10 active torsions:
REMARK  status: ('A' for Active; 'I' for Inactive)
REMARK    1  A    between atoms: C_1  and  O_2
REMARK    2  A    between atoms: O_2  and  C_3
REMARK    3  A    between atoms: C_4  and  C_5
REMARK    4  A    between atoms: C_8  and  O_9
REMARK    5  A    between atoms: C_14  and  C_15
REMARK    6  A    between atoms: C_18  and  C_19
REMARK    7  A    between atoms: C_19  and  O_21
REMARK    8  A    between atoms: C_22  and  O_23
REMARK    9  A    between atoms: C_25  and  O_26
REMARK   10  A    between atoms: O_26  and  C_27
REMARK                            x       y       z     vdW  Elec       q    Type
REMARK                         _______ _______ _______ _____ _____    ______ ____
ROOT
ATOM      1  C   UNL     1       2.014   7.216  19.785  0.00  0.00    +0.000 A 
ATOM      2  C   UNL     1       2.460   6.757  18.516  0.00  0.00    +0.000 A 
ATOM      3  C   UNL     1       2.454   7.678  17.456  0.00  0.00    +0.000 A 
ATOM      4  C   UNL     1       1.979   8.981  17.616  0.00  0.00    +0.000 A 
ATOM      5  C   UNL     1       1.473   9.439  18.845  0.00  0.00    +0.000 A 
ATOM      6  C   UNL     1       1.497   8.534  19.945  0.00  0.00    +0.000 A 
ENDROOT
BRANCH   2   7
ATOM      7  C   UNL     1       2.944   5.378  18.249  0.00  0.00    +0.000 A 
ATOM      8  C   UNL     1       2.143   4.423  17.593  0.00  0.00    +0.000 A 
ATOM      9  C   UNL     1       2.562   3.094  17.456  0.00  0.00    +0.000 A 
ATOM     10  C   UNL     1       3.810   2.717  17.935  0.00  0.00    +0.000 A 
ATOM     11  C   UNL     1       4.649   3.646  18.532  0.00  0.00    +0.000 A 
ATOM     12  C   UNL     1       4.215   4.965  18.692  0.00  0.00    +0.000 A 
BRANCH  10  13
ATOM     13  O   UNL     1       4.249   1.429  17.851  0.00  0.00    +0.000 OA
ATOM     14  H   UNL     1       5.055   1.338  18.384  0.00  0.00    +0.000 HD
ENDBRANCH  10  13
ENDBRANCH   2   7
BRANCH   5  15
ATOM     15  C   UNL     1       0.936  10.831  18.929  0.00  0.00    +0.000 A 
ATOM     16  C   UNL     1       1.788  11.922  19.196  0.00  0.00    +0.000 A 
ATOM     17  C   UNL     1       1.306  13.236  19.259  0.00  0.00    +0.000 A 
ATOM     18  C   UNL     1      -0.052  13.496  19.067  0.00  0.00    +0.000 A 
ATOM     19  C   UNL     1      -0.913  12.424  18.829  0.00  0.00    +0.000 A 
ATOM     20  C   UNL     1      -0.426  11.119  18.725  0.00  0.00    +0.000 A 
BRANCH  18  21
ATOM     21  C   UNL     1      -0.515  14.902  19.145  0.00  0.00    +0.000 C 
ATOM     22  O   UNL     1       0.059  15.816  18.574  0.00  0.00    +0.000 OA
BRANCH  21  23
ATOM     23  O   UNL     1      -1.636  15.082  19.874  0.00  0.00    +0.000 OA
ATOM     24  H   UNL     1      -2.273  14.336  19.799  0.00  0.00    +0.000 HD
ENDBRANCH  21  23
ENDBRANCH  18  21
BRANCH  19  25
ATOM     25  O   UNL     1      -2.258  12.624  18.695  0.00  0.00    +0.000 OA
ATOM     26  H   UNL     1      -2.412  13.556  18.958  0.00  0.00    +0.000 HD
ENDBRANCH  19  25
ENDBRANCH   5  15
BRANCH   1  28
ATOM     27  C   UNL     1       1.168   5.232  20.773  0.00  0.00    +0.000 C 
ATOM     28  O   UNL     1       2.011   6.382  20.882  0.00  0.00    +0.000 OA
ENDBRANCH   1  28
BRANCH   6  29
ATOM     29  O   UNL     1       1.059   9.090  21.127  0.00  0.00    +0.000 OA
ATOM     30  C   UNL     1      -0.216   8.760  21.651  0.00  0.00    +0.000 C 
ENDBRANCH   6  29
TORSDOF 8
ENDMDL
MODEL 6
REMARK VINA RESULT:      -7.0      1.240      8.660
REMARK  Name = 
REMARK  10 active torsions:
REMARK  status: ('A' for Active; 'I' for Inactive)
REMARK    1  A    between atoms: C_1  and  O_2
REMARK    2  A    between atoms: O_2  and  C_3
REMARK    3  A    between atoms: C_4  and  C_5
REMARK    4  A    between atoms: C_8  and  O_9
REMARK    5  A    between atoms: C_14  and  C_15
REMARK    6  A    between atoms: C_18  and  C_19
REMARK    7  A    between atoms: C_19  and  O_21
REMARK    8  A    between atoms: C_22  and  O_23
REMARK    9  A    between atoms: C_25  and  O_26
REMARK   10  A    between atoms: O_26  and  C_27
REMARK                            x       y       z     vdW  Elec       q    Type
REMARK                         _______ _______ _______ _____ _____    ______ ____
ROOT
ATOM      1  C   UNL     1       2.215   7.370  19.715  0.00  0.00    +0.000 A 
ATOM      2  C   UNL     1       2.654   7.364  18.363  0.00  0.00    +0.000 A 
ATOM      3  C   UNL     1       2.360   8.494  17.583  0.00  0.00    +0.000 A 
ATOM      4  C   UNL     1       1.618   9.564  18.086  0.00  0.00    +0.000 A 
ATOM      5  C   UNL     1       1.118   9.564  19.400  0.00  0.00    +0.000 A 
ATOM      6  C   UNL     1       1.428   8.444  20.223  0.00  0.00    +0.000 A 
ENDROOT
BRANCH   2   7
ATOM      7  C   UNL     1       3.413   6.252  17.736  0.00  0.00    +0.000 A 
ATOM      8  C   UNL     1       2.886   4.949  17.646  0.00  0.00    +0.000 A 
ATOM      9  C   UNL     1       3.658   3.884  17.165  0.00  0.00    +0.000 A 
ATOM     10  C   UNL     1       4.953   4.123  16.724  0.00  0.00    +0.000 A 
ATOM     11  C   UNL     1       5.482   5.404  16.741  0.00  0.00    +0.000 A 
ATOM     12  C   UNL     1       4.719   6.459  17.249  0.00  0.00    +0.000 A 
BRANCH  10  13
ATOM     13  O   UNL     1       5.752   3.113  16.275  0.00  0.00    +0.000 OA
ATOM     14  H   UNL     1       6.356   3.469  15.603  0.00  0.00    +0.000 HD
ENDBRANCH  10  13
ENDBRANCH   2   7
BRANCH   5  15
ATOM     15  C   UNL     1       0.290  10.723  19.854  0.00  0.00    +0.000 A 
ATOM     16  C   UNL     1      -1.032  10.891  19.396  0.00  0.00    +0.000 A 
ATOM     17  C   UNL     1      -1.831  11.960  19.826  0.00  0.00    +0.000 A 
ATOM     18  C   UNL     1      -1.322  12.902  20.723  0.00  0.00    +0.000 A 
ATOM     19  C   UNL     1      -0.005  12.764  21.163  0.00  0.00    +0.000 A 
ATOM     20  C   UNL     1       0.777  11.677  20.767  0.00  0.00    +0.000 A 
BRANCH  18  21
ATOM     21  C   UNL     1      -2.203  14.014  21.146  0.00  0.00    +0.000 C 
ATOM     22  O   UNL     1      -1.988  14.679  22.148  0.00  0.00    +0.000 OA
BRANCH  21  23
ATOM     23  O   UNL     1      -3.244  14.250  20.321  0.00  0.00    +0.000 OA
ATOM     24  H   UNL     1      -2.993  14.254  19.370  0.00  0.00    +0.000 HD
ENDBRANCH  21  23
ENDBRANCH  18  21
BRANCH  19  25
ATOM     25  O   UNL     1       0.556  13.693  21.994  0.00  0.00    +0.000 OA
ATOM     26  H   UNL     1       0.550  13.285  22.885  0.00  0.00    +0.000 HD
ENDBRANCH  19  25
ENDBRANCH   5  15
BRANCH   1  28
ATOM     27  C   UNL     1       1.450   5.326  20.645  0.00  0.00    +0.000 C 
ATOM     28  O   UNL     1       2.483   6.311  20.554  0.00  0.00    +0.000 OA
ENDBRANCH   1  28
BRANCH   6  29
ATOM     29  O   UNL     1       0.969   8.565  21.516  0.00  0.00    +0.000 OA
ATOM     30  C   UNL     1      -0.375   8.247  21.837  0.00  0.00    +0.000 C 
ENDBRANCH   6  29
TORSDOF 8
ENDMDL
MODEL 7
REMARK VINA RESULT:      -7.0      1.248      8.742
REMARK  Name = 
REMARK  10 active torsions:
REMARK  status: ('A' for Active; 'I' for Inactive)
REMARK    1  A    between atoms: C_1  and  O_2
REMARK    2  A    between atoms: O_2  and  C_3
REMARK    3  A    between atoms: C_4  and  C_5
REMARK    4  A    between atoms: C_8  and  O_9
REMARK    5  A    between atoms: C_14  and  C_15
REMARK    6  A    between atoms: C_18  and  C_19
REMARK    7  A    between atoms: C_19  and  O_21
REMARK    8  A    between atoms: C_22  and  O_23
REMARK    9  A    between atoms: C_25  and  O_26
REMARK   10  A    between atoms: O_26  and  C_27
REMARK                            x       y       z     vdW  Elec       q    Type
REMARK                         _______ _______ _______ _____ _____    ______ ____
ROOT
ATOM      1  C   UNL     1       2.191   7.414  19.713  0.00  0.00    +0.000 A 
ATOM      2  C   UNL     1       2.651   7.408  18.367  0.00  0.00    +0.000 A 
ATOM      3  C   UNL     1       2.378   8.543  17.586  0.00  0.00    +0.000 A 
ATOM      4  C   UNL     1       1.639   9.617  18.082  0.00  0.00    +0.000 A 
ATOM      5  C   UNL     1       1.119   9.618  19.388  0.00  0.00    +0.000 A 
ATOM      6  C   UNL     1       1.407   8.493  20.212  0.00  0.00    +0.000 A 
ENDROOT
BRANCH   2   7
ATOM      7  C   UNL     1       3.410   6.291  17.748  0.00  0.00    +0.000 A 
ATOM      8  C   UNL     1       2.891   4.984  17.686  0.00  0.00    +0.000 A 
ATOM      9  C   UNL     1       3.663   3.916  17.212  0.00  0.00    +0.000 A 
ATOM     10  C   UNL     1       4.951   4.157  16.750  0.00  0.00    +0.000 A 
ATOM     11  C   UNL     1       5.471   5.442  16.741  0.00  0.00    +0.000 A 
ATOM     12  C   UNL     1       4.707   6.499  17.241  0.00  0.00    +0.000 A 
BRANCH  10  13
ATOM     13  O   UNL     1       5.751   3.145  16.307  0.00  0.00    +0.000 OA
ATOM     14  H   UNL     1       5.238   2.322  16.301  0.00  0.00    +0.000 HD
ENDBRANCH  10  13
ENDBRANCH   2   7
BRANCH   5  15
ATOM     15  C   UNL     1       0.294  10.783  19.834  0.00  0.00    +0.000 A 
ATOM     16  C   UNL     1       0.765  11.667  20.825  0.00  0.00    +0.000 A 
ATOM     17  C   UNL     1       0.015  12.774  21.243  0.00  0.00    +0.000 A 
ATOM     18  C   UNL     1      -1.241  13.023  20.684  0.00  0.00    +0.000 A 
ATOM     19  C   UNL     1      -1.733  12.141  19.721  0.00  0.00    +0.000 A 
ATOM     20  C   UNL     1      -0.967  11.061  19.276  0.00  0.00    +0.000 A 
BRANCH  18  21
ATOM     21  C   UNL     1      -1.998  14.205  21.159  0.00  0.00    +0.000 C 
ATOM     22  O   UNL     1      -2.098  14.491  22.342  0.00  0.00    +0.000 OA
BRANCH  21  23
ATOM     23  O   UNL     1      -2.541  14.954  20.176  0.00  0.00    +0.000 OA
ATOM     24  H   UNL     1      -2.464  14.542  19.286  0.00  0.00    +0.000 HD
ENDBRANCH  21  23
ENDBRANCH  18  21
BRANCH  19  25
ATOM     25  O   UNL     1      -2.981  12.310  19.190  0.00  0.00    +0.000 OA
ATOM     26  H   UNL     1      -3.516  11.567  19.539  0.00  0.00    +0.000 HD
ENDBRANCH  19  25
ENDBRANCH   5  15
BRANCH   1  28
ATOM     27  C   UNL     1       1.386   5.384  20.640  0.00  0.00    +0.000 C 
ATOM     28  O   UNL     1       2.438   6.350  20.552  0.00  0.00    +0.000 OA
ENDBRANCH   1  28
BRANCH   6  29
ATOM     29  O   UNL     1       0.929   8.614  21.498  0.00  0.00    +0.000 OA
ATOM     30  C   UNL     1      -0.422   8.306  21.798  0.00  0.00    +0.000 C 
ENDBRANCH   6  29
TORSDOF 8
ENDMDL
MODEL 8
REMARK VINA RESULT:      -6.8      2.547      4.339
REMARK  Name = 
REMARK  10 active torsions:
REMARK  status: ('A' for Active; 'I' for Inactive)
REMARK    1  A    between atoms: C_1  and  O_2
REMARK    2  A    between atoms: O_2  and  C_3
REMARK    3  A    between atoms: C_4  and  C_5
REMARK    4  A    between atoms: C_8  and  O_9
REMARK    5  A    between atoms: C_14  and  C_15
REMARK    6  A    between atoms: C_18  and  C_19
REMARK    7  A    between atoms: C_19  and  O_21
REMARK    8  A    between atoms: C_22  and  O_23
REMARK    9  A    between atoms: C_25  and  O_26
REMARK   10  A    between atoms: O_26  and  C_27
REMARK                            x       y       z     vdW  Elec       q    Type
REMARK                         _______ _______ _______ _____ _____    ______ ____
ROOT
ATOM      1  C   UNL     1      -0.690  11.248  20.771  0.00  0.00    +0.000 A 
ATOM      2  C   UNL     1      -0.869  11.254  22.182  0.00  0.00    +0.000 A 
ATOM      3  C   UNL     1      -0.246  10.232  22.917  0.00  0.00    +0.000 A 
ATOM      4  C   UNL     1       0.475   9.212  22.295  0.00  0.00    +0.000 A 
ATOM      5  C   UNL     1       0.612   9.149  20.897  0.00  0.00    +0.000 A 
ATOM      6  C   UNL     1       0.017  10.191  20.129  0.00  0.00    +0.000 A 
ENDROOT
BRANCH   2   7
ATOM      7  C   UNL     1      -1.653  12.277  22.921  0.00  0.00    +0.000 A 
ATOM      8  C   UNL     1      -1.101  13.523  23.276  0.00  0.00    +0.000 A 
ATOM      9  C   UNL     1      -1.807  14.429  24.077  0.00  0.00    +0.000 A 
ATOM     10  C   UNL     1      -3.095  14.114  24.493  0.00  0.00    +0.000 A 
ATOM     11  C   UNL     1      -3.691  12.922  24.111  0.00  0.00    +0.000 A 
ATOM     12  C   UNL     1      -2.972  12.009  23.335  0.00  0.00    +0.000 A 
BRANCH  10  13
ATOM     13  O   UNL     1      -3.809  14.951  25.298  0.00  0.00    +0.000 OA
ATOM     14  H   UNL     1      -3.743  14.636  26.214  0.00  0.00    +0.000 HD
ENDBRANCH  10  13
ENDBRANCH   2   7
BRANCH   5  15
ATOM     15  C   UNL     1       1.358   8.000  20.298  0.00  0.00    +0.000 A 
ATOM     16  C   UNL     1       1.306   6.719  20.883  0.00  0.00    +0.000 A 
ATOM     17  C   UNL     1       1.982   5.626  20.326  0.00  0.00    +0.000 A 
ATOM     18  C   UNL     1       2.744   5.787  19.166  0.00  0.00    +0.000 A 
ATOM     19  C   UNL     1       2.827   7.056  18.590  0.00  0.00    +0.000 A 
ATOM     20  C   UNL     1       2.120   8.136  19.123  0.00  0.00    +0.000 A 
BRANCH  18  21
ATOM     21  C   UNL     1       3.442   4.603  18.614  0.00  0.00    +0.000 C 
ATOM     22  O   UNL     1       3.439   4.333  17.424  0.00  0.00    +0.000 OA
BRANCH  21  23
ATOM     23  O   UNL     1       4.103   3.866  19.531  0.00  0.00    +0.000 OA
ATOM     24  H   UNL     1       4.641   4.408  20.151  0.00  0.00    +0.000 HD
ENDBRANCH  21  23
ENDBRANCH  18  21
BRANCH  19  25
ATOM     25  O   UNL     1       3.607   7.275  17.490  0.00  0.00    +0.000 OA
ATOM     26  H   UNL     1       3.308   8.134  17.124  0.00  0.00    +0.000 HD
ENDBRANCH  19  25
ENDBRANCH   5  15
BRANCH   1  28
ATOM     27  C   UNL     1      -0.363  13.289  19.607  0.00  0.00    +0.000 C 
ATOM     28  O   UNL     1      -1.247  12.229  19.980  0.00  0.00    +0.000 OA
ENDBRANCH   1  28
BRANCH   6  29
ATOM     29  O   UNL     1       0.269  10.093  18.778  0.00  0.00    +0.000 OA
ATOM     30  C   UNL     1      -0.797   9.948  17.855  0.00  0.00    +0.000 C 
ENDBRANCH   6  29
TORSDOF 8
ENDMDL
MODEL 9
REMARK VINA RESULT:      -6.8      2.520      4.578
REMARK  Name = 
REMARK  10 active torsions:
REMARK  status: ('A' for Active; 'I' for Inactive)
REMARK    1  A    between atoms: C_1  and  O_2
REMARK    2  A    between atoms: O_2  and  C_3
REMARK    3  A    between atoms: C_4  and  C_5
REMARK    4  A    between atoms: C_8  and  O_9
REMARK    5  A    between atoms: C_14  and  C_15
REMARK    6  A    between atoms: C_18  and  C_19
REMARK    7  A    between atoms: C_19  and  O_21
REMARK    8  A    between atoms: C_22  and  O_23
REMARK    9  A    between atoms: C_25  and  O_26
REMARK   10  A    between atoms: O_26  and  C_27
REMARK                            x       y       z     vdW  Elec       q    Type
REMARK                         _______ _______ _______ _____ _____    ______ ____
ROOT
ATOM      1  C   UNL     1      -0.775  11.311  20.768  0.00  0.00    +0.000 A 
ATOM      2  C   UNL     1      -0.917  11.334  22.183  0.00  0.00    +0.000 A 
ATOM      3  C   UNL     1      -0.257  10.333  22.915  0.00  0.00    +0.000 A 
ATOM      4  C   UNL     1       0.466   9.318  22.288  0.00  0.00    +0.000 A 
ATOM      5  C   UNL     1       0.567   9.236  20.889  0.00  0.00    +0.000 A 
ATOM      6  C   UNL     1      -0.067  10.256  20.122  0.00  0.00    +0.000 A 
ENDROOT
BRANCH   2   7
ATOM      7  C   UNL     1      -1.699  12.354  22.928  0.00  0.00    +0.000 A 
ATOM      8  C   UNL     1      -1.148  13.598  23.286  0.00  0.00    +0.000 A 
ATOM      9  C   UNL     1      -1.851  14.501  24.093  0.00  0.00    +0.000 A 
ATOM     10  C   UNL     1      -3.138  14.184  24.512  0.00  0.00    +0.000 A 
ATOM     11  C   UNL     1      -3.734  12.993  24.127  0.00  0.00    +0.000 A 
ATOM     12  C   UNL     1      -3.017  12.083  23.346  0.00  0.00    +0.000 A 
BRANCH  10  13
ATOM     13  O   UNL     1      -3.850  15.017  25.322  0.00  0.00    +0.000 OA
ATOM     14  H   UNL     1      -4.729  15.154  24.933  0.00  0.00    +0.000 HD
ENDBRANCH  10  13
ENDBRANCH   2   7
BRANCH   5  15
ATOM     15  C   UNL     1       1.317   8.092  20.286  0.00  0.00    +0.000 A 
ATOM     16  C   UNL     1       2.016   8.245  19.072  0.00  0.00    +0.000 A 
ATOM     17  C   UNL     1       2.741   7.190  18.501  0.00  0.00    +0.000 A 
ATOM     18  C   UNL     1       2.776   5.942  19.127  0.00  0.00    +0.000 A 
ATOM     19  C   UNL     1       2.066   5.768  20.315  0.00  0.00    +0.000 A 
ATOM     20  C   UNL     1       1.378   6.830  20.905  0.00  0.00    +0.000 A 
BRANCH  18  21
ATOM     21  C   UNL     1       3.554   4.857  18.485  0.00  0.00    +0.000 C 
ATOM     22  O   UNL     1       3.480   4.613  17.291  0.00  0.00    +0.000 OA
BRANCH  21  23
ATOM     23  O   UNL     1       4.370   4.181  19.321  0.00  0.00    +0.000 OA
ATOM     24  H   UNL     1       5.158   4.700  19.598  0.00  0.00    +0.000 HD
ENDBRANCH  21  23
ENDBRANCH  18  21
BRANCH  19  25
ATOM     25  O   UNL     1       2.023   4.549  20.932  0.00  0.00    +0.000 OA
ATOM     26  H   UNL     1       2.180   3.891  20.223  0.00  0.00    +0.000 HD
ENDBRANCH  19  25
ENDBRANCH   5  15
BRANCH   1  28
ATOM     27  C   UNL     1      -0.523  13.356  19.592  0.00  0.00    +0.000 C 
ATOM     28  O   UNL     1      -1.370  12.270  19.979  0.00  0.00    +0.000 OA
ENDBRANCH   1  28
BRANCH   6  29
ATOM     29  O   UNL     1       0.151  10.144  18.767  0.00  0.00    +0.000 OA
ATOM     30  C   UNL     1      -0.936   9.976  17.873  0.00  0.00    +0.000 C 
ENDBRANCH   6  29
TORSDOF 8
ENDMDL
