MODEL 1
REMARK VINA RESULT:      -6.8      0.000      0.000
REMARK  Name = 
REMARK  7 active torsions:
REMARK  status: ('A' for Active; 'I' for Inactive)
REMARK    1  A    between atoms: C_1  and  C_2
REMARK    2  A    between atoms: C_2  and  C_3
REMARK    3  A    between atoms: C_3  and  N_4
REMARK    4  A    between atoms: N_4  and  C_5
REMARK    5  A    between atoms: N_4  and  C_8
REMARK    6  A    between atoms: C_5  and  C_6
REMARK    7  A    between atoms: C_6  and  C_7
REMARK                            x       y       z     vdW  Elec       q    Type
REMARK                         _______ _______ _______ _____ _____    ______ ____
ROOT
ATOM      1  C   UNL     1       6.313   5.379  15.860  0.00  0.00    +0.000 C 
ATOM      2  C   UNL     1       7.458   4.700  16.699  0.00  0.00    +0.000 C 
ATOM      3  C   UNL     1       7.103   4.508  18.191  0.00  0.00    +0.000 C 
ATOM      4  C   UNL     1       5.699   4.043  18.351  0.00  0.00    +0.000 A 
ATOM      5  N   UNL     1       5.173   3.701  19.528  0.00  0.00    +0.000 NA
ATOM      6  N   UNL     1       3.848   3.521  19.265  0.00  0.00    +0.000 N 
ATOM      7  C   UNL     1       2.833   3.278  20.191  0.00  0.00    +0.000 A 
ATOM      8  C   UNL     1       1.556   3.159  19.779  0.00  0.00    +0.000 A 
ATOM      9  C   UNL     1       1.271   3.249  18.355  0.00  0.00    +0.000 A 
ATOM     10  C   UNL     1       2.242   3.470  17.452  0.00  0.00    +0.000 A 
ATOM     11  C   UNL     1       3.582   3.647  17.895  0.00  0.00    +0.000 A 
ATOM     12  C   UNL     1       4.766   4.001  17.293  0.00  0.00    +0.000 A 
ATOM     13  C   UNL     1       5.118   4.358  15.891  0.00  0.00    +0.000 C 
ENDROOT
BRANCH   1  14
ATOM     14  N   UNL     1       5.946   6.741  16.336  0.00  0.00    +0.000 NA
BRANCH  14  15
ATOM     15  C   UNL     1       6.682   7.230  17.526  0.00  0.00    +0.000 C 
BRANCH  15  17
ATOM     16  C   UNL     1       8.523   8.644  18.559  0.00  0.00    +0.000 C 
ATOM     17  C   UNL     1       7.692   8.371  17.305  0.00  0.00    +0.000 C 
ENDBRANCH  15  17
ENDBRANCH  14  15
BRANCH  14  18
ATOM     18  C   UNL     1       4.497   6.990  16.425  0.00  0.00    +0.000 C 
BRANCH  18  19
ATOM     19  C   UNL     1       4.026   7.397  17.829  0.00  0.00    +0.000 C 
ATOM     20  C   UNL     1       2.533   7.161  18.033  0.00  0.00    +0.000 C 
ENDBRANCH  18  19
ENDBRANCH  14  18
ENDBRANCH   1  14
TORSDOF 5
ENDMDL
MODEL 2
REMARK VINA RESULT:      -6.7      2.792      5.928
REMARK  Name = 
REMARK  7 active torsions:
REMARK  status: ('A' for Active; 'I' for Inactive)
REMARK    1  A    between atoms: C_1  and  C_2
REMARK    2  A    between atoms: C_2  and  C_3
REMARK    3  A    between atoms: C_3  and  N_4
REMARK    4  A    between atoms: N_4  and  C_5
REMARK    5  A    between atoms: N_4  and  C_8
REMARK    6  A    between atoms: C_5  and  C_6
REMARK    7  A    between atoms: C_6  and  C_7
REMARK                            x       y       z     vdW  Elec       q    Type
REMARK                         _______ _______ _______ _____ _____    ______ ____
ROOT
ATOM      1  C   UNL     1       3.616   4.973  18.657  0.00  0.00    +0.000 C 
ATOM      2  C   UNL     1       4.491   5.839  17.678  0.00  0.00    +0.000 C 
ATOM      3  C   UNL     1       3.738   7.046  17.075  0.00  0.00    +0.000 C 
ATOM      4  C   UNL     1       2.898   7.720  18.102  0.00  0.00    +0.000 A 
ATOM      5  N   UNL     1       2.227   8.849  17.870  0.00  0.00    +0.000 NA
ATOM      6  N   UNL     1       1.459   9.019  18.983  0.00  0.00    +0.000 N 
ATOM      7  C   UNL     1       0.475   9.987  19.186  0.00  0.00    +0.000 A 
ATOM      8  C   UNL     1      -0.231  10.004  20.333  0.00  0.00    +0.000 A 
ATOM      9  C   UNL     1       0.082   9.021  21.359  0.00  0.00    +0.000 A 
ATOM     10  C   UNL     1       1.036   8.092  21.181  0.00  0.00    +0.000 A 
ATOM     11  C   UNL     1       1.744   8.043  19.949  0.00  0.00    +0.000 A 
ATOM     12  C   UNL     1       2.661   7.187  19.386  0.00  0.00    +0.000 A 
ATOM     13  C   UNL     1       3.286   5.923  19.865  0.00  0.00    +0.000 C 
ENDROOT
BRANCH   1  14
ATOM     14  N   UNL     1       2.409   4.380  18.018  0.00  0.00    +0.000 NA
BRANCH  14  15
ATOM     15  C   UNL     1       1.195   4.317  18.866  0.00  0.00    +0.000 C 
BRANCH  15  17
ATOM     16  C   UNL     1       1.279   3.046  21.064  0.00  0.00    +0.000 C 
ATOM     17  C   UNL     1       0.908   2.986  19.582  0.00  0.00    +0.000 C 
ENDBRANCH  15  17
ENDBRANCH  14  15
BRANCH  14  18
ATOM     18  C   UNL     1       2.654   3.126  17.286  0.00  0.00    +0.000 C 
BRANCH  18  19
ATOM     19  C   UNL     1       3.979   2.445  17.655  0.00  0.00    +0.000 C 
ATOM     20  C   UNL     1       3.778   1.231  18.556  0.00  0.00    +0.000 C 
ENDBRANCH  18  19
ENDBRANCH  14  18
ENDBRANCH   1  14
TORSDOF 5
ENDMDL
MODEL 3
REMARK VINA RESULT:      -6.7      0.614      2.530
REMARK  Name = 
REMARK  7 active torsions:
REMARK  status: ('A' for Active; 'I' for Inactive)
REMARK    1  A    between atoms: C_1  and  C_2
REMARK    2  A    between atoms: C_2  and  C_3
REMARK    3  A    between atoms: C_3  and  N_4
REMARK    4  A    between atoms: N_4  and  C_5
REMARK    5  A    between atoms: N_4  and  C_8
REMARK    6  A    between atoms: C_5  and  C_6
REMARK    7  A    between atoms: C_6  and  C_7
REMARK                            x       y       z     vdW  Elec       q    Type
REMARK                         _______ _______ _______ _____ _____    ______ ____
ROOT
ATOM      1  C   UNL     1       6.096   5.519  16.382  0.00  0.00    +0.000 C 
ATOM      2  C   UNL     1       7.242   4.750  17.136  0.00  0.00    +0.000 C 
ATOM      3  C   UNL     1       6.878   4.361  18.587  0.00  0.00    +0.000 C 
ATOM      4  C   UNL     1       5.479   3.864  18.673  0.00  0.00    +0.000 A 
ATOM      5  N   UNL     1       4.948   3.366  19.790  0.00  0.00    +0.000 NA
ATOM      6  N   UNL     1       3.627   3.207  19.494  0.00  0.00    +0.000 N 
ATOM      7  C   UNL     1       2.608   2.835  20.371  0.00  0.00    +0.000 A 
ATOM      8  C   UNL     1       1.336   2.756  19.936  0.00  0.00    +0.000 A 
ATOM      9  C   UNL     1       1.061   3.028  18.533  0.00  0.00    +0.000 A 
ATOM     10  C   UNL     1       2.036   3.375  17.676  0.00  0.00    +0.000 A 
ATOM     11  C   UNL     1       3.370   3.508  18.150  0.00  0.00    +0.000 A 
ATOM     12  C   UNL     1       4.555   3.950  17.610  0.00  0.00    +0.000 A 
ATOM     13  C   UNL     1       4.913   4.489  16.269  0.00  0.00    +0.000 C 
ENDROOT
BRANCH   1  14
ATOM     14  N   UNL     1       5.708   6.803  17.028  0.00  0.00    +0.000 NA
BRANCH  14  15
ATOM     15  C   UNL     1       4.321   7.260  16.777  0.00  0.00    +0.000 C 
BRANCH  15  17
ATOM     16  C   UNL     1       2.308   8.412  17.815  0.00  0.00    +0.000 C 
ATOM     17  C   UNL     1       3.376   7.333  17.990  0.00  0.00    +0.000 C 
ENDBRANCH  15  17
ENDBRANCH  14  15
BRANCH  14  18
ATOM     18  C   UNL     1       6.695   7.886  16.883  0.00  0.00    +0.000 C 
BRANCH  18  19
ATOM     19  C   UNL     1       7.805   7.856  17.945  0.00  0.00    +0.000 C 
ATOM     20  C   UNL     1       8.421   9.231  18.182  0.00  0.00    +0.000 C 
ENDBRANCH  18  19
ENDBRANCH  14  18
ENDBRANCH   1  14
TORSDOF 5
ENDMDL
MODEL 4
REMARK VINA RESULT:      -6.7      2.021      5.457
REMARK  Name = 
REMARK  7 active torsions:
REMARK  status: ('A' for Active; 'I' for Inactive)
REMARK    1  A    between atoms: C_1  and  C_2
REMARK    2  A    between atoms: C_2  and  C_3
REMARK    3  A    between atoms: C_3  and  N_4
REMARK    4  A    between atoms: N_4  and  C_5
REMARK    5  A    between atoms: N_4  and  C_8
REMARK    6  A    between atoms: C_5  and  C_6
REMARK    7  A    between atoms: C_6  and  C_7
REMARK                            x       y       z     vdW  Elec       q    Type
REMARK                         _______ _______ _______ _____ _____    ______ ____
ROOT
ATOM      1  C   UNL     1       1.533   4.491  18.655  0.00  0.00    +0.000 C 
ATOM      2  C   UNL     1       1.928   5.582  19.716  0.00  0.00    +0.000 C 
ATOM      3  C   UNL     1       3.438   5.611  20.044  0.00  0.00    +0.000 C 
ATOM      4  C   UNL     1       4.257   5.454  18.812  0.00  0.00    +0.000 A 
ATOM      5  N   UNL     1       5.587   5.548  18.802  0.00  0.00    +0.000 NA
ATOM      6  N   UNL     1       5.943   5.164  17.544  0.00  0.00    +0.000 N 
ATOM      7  C   UNL     1       7.236   4.965  17.060  0.00  0.00    +0.000 A 
ATOM      8  C   UNL     1       7.427   4.545  15.795  0.00  0.00    +0.000 A 
ATOM      9  C   UNL     1       6.265   4.345  14.943  0.00  0.00    +0.000 A 
ATOM     10  C   UNL     1       5.015   4.545  15.394  0.00  0.00    +0.000 A 
ATOM     11  C   UNL     1       4.813   4.938  16.746  0.00  0.00    +0.000 A 
ATOM     12  C   UNL     1       3.716   5.106  17.557  0.00  0.00    +0.000 A 
ATOM     13  C   UNL     1       2.255   4.926  17.327  0.00  0.00    +0.000 C 
ENDROOT
BRANCH   1  14
ATOM     14  N   UNL     1       1.852   3.099  19.077  0.00  0.00    +0.000 NA
BRANCH  14  15
ATOM     15  C   UNL     1       2.290   2.181  17.999  0.00  0.00    +0.000 C 
BRANCH  15  17
ATOM     16  C   UNL     1       4.414   2.005  19.382  0.00  0.00    +0.000 C 
ATOM     17  C   UNL     1       3.614   1.427  18.215  0.00  0.00    +0.000 C 
ENDBRANCH  15  17
ENDBRANCH  14  15
BRANCH  14  18
ATOM     18  C   UNL     1       0.857   2.486  19.973  0.00  0.00    +0.000 C 
BRANCH  18  19
ATOM     19  C   UNL     1       1.077   2.815  21.457  0.00  0.00    +0.000 C 
ATOM     20  C   UNL     1       2.521   2.591  21.895  0.00  0.00    +0.000 C 
ENDBRANCH  18  19
ENDBRANCH  14  18
ENDBRANCH   1  14
TORSDOF 5
ENDMDL
MODEL 5
REMARK VINA RESULT:      -6.6      1.267      2.546
REMARK  Name = 
REMARK  7 active torsions:
REMARK  status: ('A' for Active; 'I' for Inactive)
REMARK    1  A    between atoms: C_1  and  C_2
REMARK    2  A    between atoms: C_2  and  C_3
REMARK    3  A    between atoms: C_3  and  N_4
REMARK    4  A    between atoms: N_4  and  C_5
REMARK    5  A    between atoms: N_4  and  C_8
REMARK    6  A    between atoms: C_5  and  C_6
REMARK    7  A    between atoms: C_6  and  C_7
REMARK                            x       y       z     vdW  Elec       q    Type
REMARK                         _______ _______ _______ _____ _____    ______ ____
ROOT
ATOM      1  C   UNL     1       5.084   6.634  16.450  0.00  0.00    +0.000 C 
ATOM      2  C   UNL     1       5.133   5.396  15.480  0.00  0.00    +0.000 C 
ATOM      3  C   UNL     1       5.174   4.035  16.211  0.00  0.00    +0.000 C 
ATOM      4  C   UNL     1       4.242   4.023  17.371  0.00  0.00    +0.000 A 
ATOM      5  N   UNL     1       4.008   2.937  18.108  0.00  0.00    +0.000 NA
ATOM      6  N   UNL     1       3.261   3.393  19.153  0.00  0.00    +0.000 N 
ATOM      7  C   UNL     1       2.862   2.672  20.278  0.00  0.00    +0.000 A 
ATOM      8  C   UNL     1       2.153   3.275  21.252  0.00  0.00    +0.000 A 
ATOM      9  C   UNL     1       1.784   4.673  21.082  0.00  0.00    +0.000 A 
ATOM     10  C   UNL     1       2.152   5.374  19.996  0.00  0.00    +0.000 A 
ATOM     11  C   UNL     1       2.945   4.749  18.994  0.00  0.00    +0.000 A 
ATOM     12  C   UNL     1       3.586   5.175  17.855  0.00  0.00    +0.000 A 
ATOM     13  C   UNL     1       3.711   6.509  17.207  0.00  0.00    +0.000 C 
ENDROOT
BRANCH   1  14
ATOM     14  N   UNL     1       6.258   6.732  17.359  0.00  0.00    +0.000 NA
BRANCH  14  15
ATOM     15  C   UNL     1       6.691   8.105  17.710  0.00  0.00    +0.000 C 
BRANCH  15  17
ATOM     16  C   UNL     1       8.600   9.644  18.374  0.00  0.00    +0.000 C 
ATOM     17  C   UNL     1       8.184   8.435  17.537  0.00  0.00    +0.000 C 
ENDBRANCH  15  17
ENDBRANCH  14  15
BRANCH  14  18
ATOM     18  C   UNL     1       7.387   5.856  17.001  0.00  0.00    +0.000 C 
BRANCH  18  19
ATOM     19  C   UNL     1       7.769   4.859  18.105  0.00  0.00    +0.000 C 
ATOM     20  C   UNL     1       7.817   5.508  19.485  0.00  0.00    +0.000 C 
ENDBRANCH  18  19
ENDBRANCH  14  18
ENDBRANCH   1  14
TORSDOF 5
ENDMDL
MODEL 6
REMARK VINA RESULT:      -6.6      1.609      5.309
REMARK  Name = 
REMARK  7 active torsions:
REMARK  status: ('A' for Active; 'I' for Inactive)
REMARK    1  A    between atoms: C_1  and  C_2
REMARK    2  A    between atoms: C_2  and  C_3
REMARK    3  A    between atoms: C_3  and  N_4
REMARK    4  A    between atoms: N_4  and  C_5
REMARK    5  A    between atoms: N_4  and  C_8
REMARK    6  A    between atoms: C_5  and  C_6
REMARK    7  A    between atoms: C_6  and  C_7
REMARK                            x       y       z     vdW  Elec       q    Type
REMARK                         _______ _______ _______ _____ _____    ______ ____
ROOT
ATOM      1  C   UNL     1       3.073   3.068  19.138  0.00  0.00    +0.000 C 
ATOM      2  C   UNL     1       2.935   2.511  17.674  0.00  0.00    +0.000 C 
ATOM      3  C   UNL     1       3.341   3.528  16.583  0.00  0.00    +0.000 C 
ATOM      4  C   UNL     1       4.569   4.271  16.973  0.00  0.00    +0.000 A 
ATOM      5  N   UNL     1       5.189   5.132  16.166  0.00  0.00    +0.000 NA
ATOM      6  N   UNL     1       6.133   5.716  16.957  0.00  0.00    +0.000 N 
ATOM      7  C   UNL     1       6.966   6.783  16.623  0.00  0.00    +0.000 A 
ATOM      8  C   UNL     1       7.829   7.278  17.532  0.00  0.00    +0.000 A 
ATOM      9  C   UNL     1       7.895   6.652  18.844  0.00  0.00    +0.000 A 
ATOM     10  C   UNL     1       7.107   5.615  19.173  0.00  0.00    +0.000 A 
ATOM     11  C   UNL     1       6.161   5.128  18.230  0.00  0.00    +0.000 A 
ATOM     12  C   UNL     1       5.144   4.204  18.260  0.00  0.00    +0.000 A 
ATOM     13  C   UNL     1       4.612   3.325  19.338  0.00  0.00    +0.000 C 
ENDROOT
BRANCH   1  14
ATOM     14  N   UNL     1       2.230   4.265  19.409  0.00  0.00    +0.000 NA
BRANCH  14  15
ATOM     15  C   UNL     1       2.922   5.414  20.039  0.00  0.00    +0.000 C 
BRANCH  15  17
ATOM     16  C   UNL     1       1.827   7.692  20.302  0.00  0.00    +0.000 C 
ATOM     17  C   UNL     1       2.693   6.800  19.412  0.00  0.00    +0.000 C 
ENDBRANCH  15  17
ENDBRANCH  14  15
BRANCH  14  18
ATOM     18  C   UNL     1       0.931   3.972  20.037  0.00  0.00    +0.000 C 
BRANCH  18  19
ATOM     19  C   UNL     1       0.884   2.613  20.752  0.00  0.00    +0.000 C 
ATOM     20  C   UNL     1       1.664   2.617  22.062  0.00  0.00    +0.000 C 
ENDBRANCH  18  19
ENDBRANCH  14  18
ENDBRANCH   1  14
TORSDOF 5
ENDMDL
MODEL 7
REMARK VINA RESULT:      -6.5      1.847      4.199
REMARK  Name = 
REMARK  7 active torsions:
REMARK  status: ('A' for Active; 'I' for Inactive)
REMARK    1  A    between atoms: C_1  and  C_2
REMARK    2  A    between atoms: C_2  and  C_3
REMARK    3  A    between atoms: C_3  and  N_4
REMARK    4  A    between atoms: N_4  and  C_5
REMARK    5  A    between atoms: N_4  and  C_8
REMARK    6  A    between atoms: C_5  and  C_6
REMARK    7  A    between atoms: C_6  and  C_7
REMARK                            x       y       z     vdW  Elec       q    Type
REMARK                         _______ _______ _______ _____ _____    ______ ____
ROOT
ATOM      1  C   UNL     1       5.994   5.486  17.344  0.00  0.00    +0.000 C 
ATOM      2  C   UNL     1       5.458   6.964  17.352  0.00  0.00    +0.000 C 
ATOM      3  C   UNL     1       3.933   7.070  17.582  0.00  0.00    +0.000 C 
ATOM      4  C   UNL     1       3.483   6.119  18.634  0.00  0.00    +0.000 A 
ATOM      5  N   UNL     1       2.234   6.080  19.097  0.00  0.00    +0.000 NA
ATOM      6  N   UNL     1       2.202   4.972  19.890  0.00  0.00    +0.000 N 
ATOM      7  C   UNL     1       1.084   4.414  20.510  0.00  0.00    +0.000 A 
ATOM      8  C   UNL     1       1.207   3.287  21.238  0.00  0.00    +0.000 A 
ATOM      9  C   UNL     1       2.527   2.695  21.390  0.00  0.00    +0.000 A 
ATOM     10  C   UNL     1       3.613   3.231  20.808  0.00  0.00    +0.000 A 
ATOM     11  C   UNL     1       3.473   4.391  19.998  0.00  0.00    +0.000 A 
ATOM     12  C   UNL     1       4.308   5.112  19.178  0.00  0.00    +0.000 A 
ATOM     13  C   UNL     1       5.739   4.946  18.799  0.00  0.00    +0.000 C 
ENDROOT
BRANCH   1  14
ATOM     14  N   UNL     1       5.395   4.635  16.279  0.00  0.00    +0.000 NA
BRANCH  14  15
ATOM     15  C   UNL     1       4.762   3.376  16.737  0.00  0.00    +0.000 C 
BRANCH  15  17
ATOM     16  C   UNL     1       2.657   2.162  17.480  0.00  0.00    +0.000 C 
ATOM     17  C   UNL     1       3.233   3.267  16.595  0.00  0.00    +0.000 C 
ENDBRANCH  15  17
ENDBRANCH  14  15
BRANCH  14  18
ATOM     18  C   UNL     1       6.248   4.441  15.095  0.00  0.00    +0.000 C 
BRANCH  18  19
ATOM     19  C   UNL     1       5.477   3.989  13.846  0.00  0.00    +0.000 C 
ATOM     20  C   UNL     1       6.400   3.688  12.669  0.00  0.00    +0.000 C 
ENDBRANCH  18  19
ENDBRANCH  14  18
ENDBRANCH   1  14
TORSDOF 5
ENDMDL
MODEL 8
REMARK VINA RESULT:      -6.4      2.075      4.989
REMARK  Name = 
REMARK  7 active torsions:
REMARK  status: ('A' for Active; 'I' for Inactive)
REMARK    1  A    between atoms: C_1  and  C_2
REMARK    2  A    between atoms: C_2  and  C_3
REMARK    3  A    between atoms: C_3  and  N_4
REMARK    4  A    between atoms: N_4  and  C_5
REMARK    5  A    between atoms: N_4  and  C_8
REMARK    6  A    between atoms: C_5  and  C_6
REMARK    7  A    between atoms: C_6  and  C_7
REMARK                            x       y       z     vdW  Elec       q    Type
REMARK                         _______ _______ _______ _____ _____    ______ ____
ROOT
ATOM      1  C   UNL     1       2.064   4.814  20.640  0.00  0.00    +0.000 C 
ATOM      2  C   UNL     1       1.205   3.644  20.033  0.00  0.00    +0.000 C 
ATOM      3  C   UNL     1       1.367   3.485  18.504  0.00  0.00    +0.000 C 
ATOM      4  C   UNL     1       2.789   3.640  18.097  0.00  0.00    +0.000 A 
ATOM      5  N   UNL     1       3.217   3.446  16.849  0.00  0.00    +0.000 NA
ATOM      6  N   UNL     1       4.514   3.864  16.869  0.00  0.00    +0.000 N 
ATOM      7  C   UNL     1       5.374   3.988  15.777  0.00  0.00    +0.000 A 
ATOM      8  C   UNL     1       6.625   4.454  15.951  0.00  0.00    +0.000 A 
ATOM      9  C   UNL     1       7.066   4.784  17.298  0.00  0.00    +0.000 A 
ATOM     10  C   UNL     1       6.251   4.657  18.360  0.00  0.00    +0.000 A 
ATOM     11  C   UNL     1       4.914   4.214  18.166  0.00  0.00    +0.000 A 
ATOM     12  C   UNL     1       3.804   4.090  18.968  0.00  0.00    +0.000 A 
ATOM     13  C   UNL     1       3.561   4.391  20.406  0.00  0.00    +0.000 C 
ENDROOT
BRANCH   1  14
ATOM     14  N   UNL     1       1.731   6.155  20.086  0.00  0.00    +0.000 NA
BRANCH  14  15
ATOM     15  C   UNL     1       2.872   6.937  19.556  0.00  0.00    +0.000 C 
BRANCH  15  17
ATOM     16  C   UNL     1       2.112   8.619  17.810  0.00  0.00    +0.000 C 
ATOM     17  C   UNL     1       2.841   7.299  18.061  0.00  0.00    +0.000 C 
ENDBRANCH  15  17
ENDBRANCH  14  15
BRANCH  14  18
ATOM     18  C   UNL     1       0.834   6.962  20.930  0.00  0.00    +0.000 C 
BRANCH  18  19
ATOM     19  C   UNL     1       1.414   8.332  21.313  0.00  0.00    +0.000 C 
ATOM     20  C   UNL     1       0.343   9.414  21.401  0.00  0.00    +0.000 C 
ENDBRANCH  18  19
ENDBRANCH  14  18
ENDBRANCH   1  14
TORSDOF 5
ENDMDL
MODEL 9
REMARK VINA RESULT:      -6.4      1.641      5.506
REMARK  Name = 
REMARK  7 active torsions:
REMARK  status: ('A' for Active; 'I' for Inactive)
REMARK    1  A    between atoms: C_1  and  C_2
REMARK    2  A    between atoms: C_2  and  C_3
REMARK    3  A    between atoms: C_3  and  N_4
REMARK    4  A    between atoms: N_4  and  C_5
REMARK    5  A    between atoms: N_4  and  C_8
REMARK    6  A    between atoms: C_5  and  C_6
REMARK    7  A    between atoms: C_6  and  C_7
REMARK                            x       y       z     vdW  Elec       q    Type
REMARK                         _______ _______ _______ _____ _____    ______ ____
ROOT
ATOM      1  C   UNL     1       2.069   2.912  17.771  0.00  0.00    +0.000 C 
ATOM      2  C   UNL     1       1.150   4.183  17.639  0.00  0.00    +0.000 C 
ATOM      3  C   UNL     1       1.817   5.485  18.139  0.00  0.00    +0.000 C 
ATOM      4  C   UNL     1       3.239   5.558  17.708  0.00  0.00    +0.000 A 
ATOM      5  N   UNL     1       4.012   6.624  17.917  0.00  0.00    +0.000 NA
ATOM      6  N   UNL     1       5.258   6.215  17.546  0.00  0.00    +0.000 N 
ATOM      7  C   UNL     1       6.452   6.920  17.693  0.00  0.00    +0.000 A 
ATOM      8  C   UNL     1       7.618   6.364  17.310  0.00  0.00    +0.000 A 
ATOM      9  C   UNL     1       7.594   5.040  16.708  0.00  0.00    +0.000 A 
ATOM     10  C   UNL     1       6.448   4.356  16.549  0.00  0.00    +0.000 A 
ATOM     11  C   UNL     1       5.226   4.923  17.003  0.00  0.00    +0.000 A 
ATOM     12  C   UNL     1       3.930   4.479  17.116  0.00  0.00    +0.000 A 
ATOM     13  C   UNL     1       3.279   3.177  16.802  0.00  0.00    +0.000 C 
ENDROOT
BRANCH   1  14
ATOM     14  N   UNL     1       2.480   2.610  19.169  0.00  0.00    +0.000 NA
BRANCH  14  15
ATOM     15  C   UNL     1       3.622   1.679  19.320  0.00  0.00    +0.000 C 
BRANCH  15  17
ATOM     16  C   UNL     1       5.301   1.116  21.143  0.00  0.00    +0.000 C 
ATOM     17  C   UNL     1       4.825   2.171  20.144  0.00  0.00    +0.000 C 
ENDBRANCH  15  17
ENDBRANCH  14  15
BRANCH  14  18
ATOM     18  C   UNL     1       1.368   2.295  20.082  0.00  0.00    +0.000 C 
BRANCH  18  19
ATOM     19  C   UNL     1       1.485   2.974  21.455  0.00  0.00    +0.000 C 
ATOM     20  C   UNL     1       2.188   4.325  21.378  0.00  0.00    +0.000 C 
ENDBRANCH  18  19
ENDBRANCH  14  18
ENDBRANCH   1  14
TORSDOF 5
ENDMDL
