MODEL 1
REMARK VINA RESULT:      -8.3      0.000      0.000
REMARK  Name = 
REMARK  6 active torsions:
REMARK  status: ('A' for Active; 'I' for Inactive)
REMARK    1  A    between atoms: C_1  and  O_2
REMARK    2  A    between atoms: O_2  and  C_3
REMARK    3  A    between atoms: C_7  and  C_8
REMARK    4  A    between atoms: C_10  and  C_11
REMARK    5  A    between atoms: C_11  and  C_12
REMARK    6  A    between atoms: C_17  and  C_18
REMARK                            x       y       z     vdW  Elec       q    Type
REMARK                         _______ _______ _______ _____ _____    ______ ____
ROOT
ATOM      1  C   UNL     1       8.035   8.604  18.073  0.00  0.00    +0.000 A 
ATOM      2  C   UNL     1       8.233   7.335  18.561  0.00  0.00    +0.000 A 
ATOM      3  C   UNL     1       7.472   6.504  17.708  0.00  0.00    +0.000 A 
ATOM      4  N   UNL     1       6.801   7.221  16.799  0.00  0.00    +0.000 NA
ATOM      5  O   UNL     1       7.150   8.540  17.037  0.00  0.00    +0.000 OA
ENDROOT
BRANCH   1  10
ATOM      6  C   UNL     1       9.735  11.444  19.865  0.00  0.00    +0.000 A 
ATOM      7  C   UNL     1       9.494  12.490  18.972  0.00  0.00    +0.000 A 
ATOM      8  C   UNL     1       8.852  12.251  17.758  0.00  0.00    +0.000 A 
ATOM      9  C   UNL     1       8.421  10.964  17.443  0.00  0.00    +0.000 A 
ATOM     10  C   UNL     1       8.616   9.908  18.344  0.00  0.00    +0.000 A 
ATOM     11  C   UNL     1       9.306  10.156  19.541  0.00  0.00    +0.000 A 
BRANCH   6  13
ATOM     12  C   UNL     1       9.722  12.786  21.823  0.00  0.00    +0.000 C 
ATOM     13  O   UNL     1      10.371  11.804  21.023  0.00  0.00    +0.000 OA
ENDBRANCH   6  13
ENDBRANCH   1  10
BRANCH   3  14
ATOM     14  C   UNL     1       7.379   5.025  17.709  0.00  0.00    +0.000 C 
BRANCH  14  15
ATOM     15  C   UNL     1       6.261   4.564  18.616  0.00  0.00    +0.000 C 
ATOM     16  O   UNL     1       6.242   4.931  19.789  0.00  0.00    +0.000 OA
ATOM     17  N   UNL     1       5.358   3.712  18.009  0.00  0.00    +0.000 N 
ATOM     18  C   UNL     1       4.224   3.317  18.664  0.00  0.00    +0.000 A 
ATOM     19  N   UNL     1       3.722   3.793  19.770  0.00  0.00    +0.000 NA
ATOM     20  C   UNL     1       2.570   3.111  20.106  0.00  0.00    +0.000 A 
ATOM     21  C   UNL     1       1.853   3.508  21.344  0.00  0.00    +0.000 C 
ATOM     22  C   UNL     1       2.222   2.106  19.222  0.00  0.00    +0.000 A 
ATOM     23  S   UNL     1       3.345   2.060  17.919  0.00  0.00    +0.000 S 
ATOM     24  H   UNL     1       5.562   3.279  17.120  0.00  0.00    +0.000 HD
ENDBRANCH  14  15
ENDBRANCH   3  14
TORSDOF 4
ENDMDL
MODEL 2
REMARK VINA RESULT:      -8.3      1.354      1.835
REMARK  Name = 
REMARK  6 active torsions:
REMARK  status: ('A' for Active; 'I' for Inactive)
REMARK    1  A    between atoms: C_1  and  O_2
REMARK    2  A    between atoms: O_2  and  C_3
REMARK    3  A    between atoms: C_7  and  C_8
REMARK    4  A    between atoms: C_10  and  C_11
REMARK    5  A    between atoms: C_11  and  C_12
REMARK    6  A    between atoms: C_17  and  C_18
REMARK                            x       y       z     vdW  Elec       q    Type
REMARK                         _______ _______ _______ _____ _____    ______ ____
ROOT
ATOM      1  C   UNL     1       8.419   8.860  18.374  0.00  0.00    +0.000 A 
ATOM      2  C   UNL     1       8.463   7.563  18.825  0.00  0.00    +0.000 A 
ATOM      3  C   UNL     1       7.688   6.837  17.892  0.00  0.00    +0.000 A 
ATOM      4  N   UNL     1       7.153   7.644  16.968  0.00  0.00    +0.000 NA
ATOM      5  O   UNL     1       7.607   8.915  17.280  0.00  0.00    +0.000 OA
ENDROOT
BRANCH   1  10
ATOM      6  C   UNL     1      10.469  12.005  18.106  0.00  0.00    +0.000 A 
ATOM      7  C   UNL     1      10.635  12.318  19.457  0.00  0.00    +0.000 A 
ATOM      8  C   UNL     1      10.014  11.552  20.443  0.00  0.00    +0.000 A 
ATOM      9  C   UNL     1       9.244  10.448  20.081  0.00  0.00    +0.000 A 
ATOM     10  C   UNL     1       9.100  10.093  18.733  0.00  0.00    +0.000 A 
ATOM     11  C   UNL     1       9.692  10.901  17.750  0.00  0.00    +0.000 A 
BRANCH   6  13
ATOM     12  C   UNL     1      11.045  14.225  17.495  0.00  0.00    +0.000 C 
ATOM     13  O   UNL     1      11.129  12.828  17.234  0.00  0.00    +0.000 OA
ENDBRANCH   6  13
ENDBRANCH   1  10
BRANCH   3  14
ATOM     14  C   UNL     1       7.458   5.374  17.829  0.00  0.00    +0.000 C 
BRANCH  14  15
ATOM     15  C   UNL     1       6.181   5.008  18.552  0.00  0.00    +0.000 C 
ATOM     16  O   UNL     1       6.105   5.175  19.768  0.00  0.00    +0.000 OA
ATOM     17  N   UNL     1       5.207   4.465  17.735  0.00  0.00    +0.000 N 
ATOM     18  C   UNL     1       3.955   4.206  18.222  0.00  0.00    +0.000 A 
ATOM     19  N   UNL     1       3.434   4.587  19.356  0.00  0.00    +0.000 NA
ATOM     20  C   UNL     1       2.145   4.106  19.476  0.00  0.00    +0.000 A 
ATOM     21  C   UNL     1       1.385   4.433  20.709  0.00  0.00    +0.000 C 
ATOM     22  C   UNL     1       1.714   3.350  18.402  0.00  0.00    +0.000 A 
ATOM     23  S   UNL     1       2.944   3.290  17.199  0.00  0.00    +0.000 S 
ATOM     24  H   UNL     1       5.422   4.151  16.801  0.00  0.00    +0.000 HD
ENDBRANCH  14  15
ENDBRANCH   3  14
TORSDOF 4
ENDMDL
MODEL 3
REMARK VINA RESULT:      -8.0      4.580      7.757
REMARK  Name = 
REMARK  6 active torsions:
REMARK  status: ('A' for Active; 'I' for Inactive)
REMARK    1  A    between atoms: C_1  and  O_2
REMARK    2  A    between atoms: O_2  and  C_3
REMARK    3  A    between atoms: C_7  and  C_8
REMARK    4  A    between atoms: C_10  and  C_11
REMARK    5  A    between atoms: C_11  and  C_12
REMARK    6  A    between atoms: C_17  and  C_18
REMARK                            x       y       z     vdW  Elec       q    Type
REMARK                         _______ _______ _______ _____ _____    ______ ____
ROOT
ATOM      1  C   UNL     1       6.433   4.355  14.356  0.00  0.00    +0.000 A 
ATOM      2  C   UNL     1       5.846   4.420  15.595  0.00  0.00    +0.000 A 
ATOM      3  C   UNL     1       6.585   5.408  16.287  0.00  0.00    +0.000 A 
ATOM      4  N   UNL     1       7.597   5.870  15.543  0.00  0.00    +0.000 NA
ATOM      5  O   UNL     1       7.504   5.200  14.334  0.00  0.00    +0.000 OA
ENDROOT
BRANCH   1  10
ATOM      6  C   UNL     1       4.475   3.043  11.421  0.00  0.00    +0.000 A 
ATOM      7  C   UNL     1       5.423   2.201  10.837  0.00  0.00    +0.000 A 
ATOM      8  C   UNL     1       6.717   2.126  11.352  0.00  0.00    +0.000 A 
ATOM      9  C   UNL     1       7.060   2.874  12.477  0.00  0.00    +0.000 A 
ATOM     10  C   UNL     1       6.111   3.693  13.102  0.00  0.00    +0.000 A 
ATOM     11  C   UNL     1       4.827   3.795  12.543  0.00  0.00    +0.000 A 
BRANCH   6  13
ATOM     12  C   UNL     1       3.018   4.000   9.810  0.00  0.00    +0.000 C 
ATOM     13  O   UNL     1       3.242   3.029  10.827  0.00  0.00    +0.000 OA
ENDBRANCH   6  13
ENDBRANCH   1  10
BRANCH   3  14
ATOM     14  C   UNL     1       6.341   5.957  17.641  0.00  0.00    +0.000 C 
BRANCH  14  15
ATOM     15  C   UNL     1       5.434   5.040  18.430  0.00  0.00    +0.000 C 
ATOM     16  O   UNL     1       5.909   4.337  19.319  0.00  0.00    +0.000 OA
ATOM     17  N   UNL     1       4.114   5.066  18.022  0.00  0.00    +0.000 N 
ATOM     18  C   UNL     1       3.154   4.390  18.724  0.00  0.00    +0.000 A 
ATOM     19  N   UNL     1       3.253   3.840  19.903  0.00  0.00    +0.000 NA
ATOM     20  C   UNL     1       2.058   3.243  20.253  0.00  0.00    +0.000 A 
ATOM     21  C   UNL     1       1.974   2.557  21.567  0.00  0.00    +0.000 C 
ATOM     22  C   UNL     1       1.061   3.355  19.301  0.00  0.00    +0.000 A 
ATOM     23  S   UNL     1       1.632   4.277  17.964  0.00  0.00    +0.000 S 
ATOM     24  H   UNL     1       3.844   5.491  17.147  0.00  0.00    +0.000 HD
ENDBRANCH  14  15
ENDBRANCH   3  14
TORSDOF 4
ENDMDL
MODEL 4
REMARK VINA RESULT:      -8.0      4.452      7.668
REMARK  Name = 
REMARK  6 active torsions:
REMARK  status: ('A' for Active; 'I' for Inactive)
REMARK    1  A    between atoms: C_1  and  O_2
REMARK    2  A    between atoms: O_2  and  C_3
REMARK    3  A    between atoms: C_7  and  C_8
REMARK    4  A    between atoms: C_10  and  C_11
REMARK    5  A    between atoms: C_11  and  C_12
REMARK    6  A    between atoms: C_17  and  C_18
REMARK                            x       y       z     vdW  Elec       q    Type
REMARK                         _______ _______ _______ _____ _____    ______ ____
ROOT
ATOM      1  C   UNL     1       6.363   4.530  14.323  0.00  0.00    +0.000 A 
ATOM      2  C   UNL     1       7.080   4.244  15.459  0.00  0.00    +0.000 A 
ATOM      3  C   UNL     1       6.777   5.303  16.345  0.00  0.00    +0.000 A 
ATOM      4  N   UNL     1       5.980   6.210  15.769  0.00  0.00    +0.000 NA
ATOM      5  O   UNL     1       5.729   5.726  14.495  0.00  0.00    +0.000 OA
ENDROOT
BRANCH   1  10
ATOM      6  C   UNL     1       4.466   3.061  11.423  0.00  0.00    +0.000 A 
ATOM      7  C   UNL     1       5.445   2.232  10.870  0.00  0.00    +0.000 A 
ATOM      8  C   UNL     1       6.738   2.217  11.393  0.00  0.00    +0.000 A 
ATOM      9  C   UNL     1       7.050   3.012  12.495  0.00  0.00    +0.000 A 
ATOM     10  C   UNL     1       6.070   3.819  13.089  0.00  0.00    +0.000 A 
ATOM     11  C   UNL     1       4.787   3.859  12.522  0.00  0.00    +0.000 A 
BRANCH   6  13
ATOM     12  C   UNL     1       2.995   3.903   9.761  0.00  0.00    +0.000 C 
ATOM     13  O   UNL     1       3.238   2.987  10.824  0.00  0.00    +0.000 OA
ENDBRANCH   6  13
ENDBRANCH   1  10
BRANCH   3  14
ATOM     14  C   UNL     1       7.204   5.472  17.754  0.00  0.00    +0.000 C 
BRANCH  14  15
ATOM     15  C   UNL     1       6.189   4.858  18.692  0.00  0.00    +0.000 C 
ATOM     16  O   UNL     1       6.250   5.104  19.895  0.00  0.00    +0.000 OA
ATOM     17  N   UNL     1       5.283   4.019  18.071  0.00  0.00    +0.000 N 
ATOM     18  C   UNL     1       4.228   3.495  18.767  0.00  0.00    +0.000 A 
ATOM     19  N   UNL     1       3.798   3.827  19.953  0.00  0.00    +0.000 NA
ATOM     20  C   UNL     1       2.713   3.048  20.303  0.00  0.00    +0.000 A 
ATOM     21  C   UNL     1       2.083   3.276  21.628  0.00  0.00    +0.000 C 
ATOM     22  C   UNL     1       2.344   2.118  19.349  0.00  0.00    +0.000 A 
ATOM     23  S   UNL     1       3.356   2.269  17.965  0.00  0.00    +0.000 S 
ATOM     24  H   UNL     1       5.434   3.691  17.128  0.00  0.00    +0.000 HD
ENDBRANCH  14  15
ENDBRANCH   3  14
TORSDOF 4
ENDMDL
MODEL 5
REMARK VINA RESULT:      -8.0      1.852      2.344
REMARK  Name = 
REMARK  6 active torsions:
REMARK  status: ('A' for Active; 'I' for Inactive)
REMARK    1  A    between atoms: C_1  and  O_2
REMARK    2  A    between atoms: O_2  and  C_3
REMARK    3  A    between atoms: C_7  and  C_8
REMARK    4  A    between atoms: C_10  and  C_11
REMARK    5  A    between atoms: C_11  and  C_12
REMARK    6  A    between atoms: C_17  and  C_18
REMARK                            x       y       z     vdW  Elec       q    Type
REMARK                         _______ _______ _______ _____ _____    ______ ____
ROOT
ATOM      1  C   UNL     1       8.308   8.883  18.307  0.00  0.00    +0.000 A 
ATOM      2  C   UNL     1       8.408   7.570  18.698  0.00  0.00    +0.000 A 
ATOM      3  C   UNL     1       7.650   6.856  17.741  0.00  0.00    +0.000 A 
ATOM      4  N   UNL     1       7.073   7.682  16.860  0.00  0.00    +0.000 NA
ATOM      5  O   UNL     1       7.481   8.955  17.224  0.00  0.00    +0.000 OA
ENDROOT
BRANCH   1  10
ATOM      6  C   UNL     1      10.003  12.239  18.137  0.00  0.00    +0.000 A 
ATOM      7  C   UNL     1      10.410  12.388  19.464  0.00  0.00    +0.000 A 
ATOM      8  C   UNL     1      10.062  11.436  20.422  0.00  0.00    +0.000 A 
ATOM      9  C   UNL     1       9.327  10.312  20.049  0.00  0.00    +0.000 A 
ATOM     10  C   UNL     1       8.945  10.125  18.714  0.00  0.00    +0.000 A 
ATOM     11  C   UNL     1       9.262  11.114  17.771  0.00  0.00    +0.000 A 
BRANCH   6  13
ATOM     12  C   UNL     1      11.795  13.283  16.984  0.00  0.00    +0.000 C 
ATOM     13  O   UNL     1      10.406  13.237  17.291  0.00  0.00    +0.000 OA
ENDBRANCH   6  13
ENDBRANCH   1  10
BRANCH   3  14
ATOM     14  C   UNL     1       7.476   5.390  17.615  0.00  0.00    +0.000 C 
BRANCH  14  15
ATOM     15  C   UNL     1       6.223   4.942  18.333  0.00  0.00    +0.000 C 
ATOM     16  O   UNL     1       6.182   3.822  18.838  0.00  0.00    +0.000 OA
ATOM     17  N   UNL     1       5.198   5.870  18.310  0.00  0.00    +0.000 N 
ATOM     18  C   UNL     1       4.052   5.659  19.027  0.00  0.00    +0.000 A 
ATOM     19  N   UNL     1       3.825   4.757  19.942  0.00  0.00    +0.000 NA
ATOM     20  C   UNL     1       2.534   4.872  20.417  0.00  0.00    +0.000 A 
ATOM     21  C   UNL     1       2.084   3.923  21.467  0.00  0.00    +0.000 C 
ATOM     22  C   UNL     1       1.795   5.883  19.830  0.00  0.00    +0.000 A 
ATOM     23  S   UNL     1       2.771   6.734  18.695  0.00  0.00    +0.000 S 
ATOM     24  H   UNL     1       5.224   6.664  17.688  0.00  0.00    +0.000 HD
ENDBRANCH  14  15
ENDBRANCH   3  14
TORSDOF 4
ENDMDL
MODEL 6
REMARK VINA RESULT:      -7.9      1.603      2.110
REMARK  Name = 
REMARK  6 active torsions:
REMARK  status: ('A' for Active; 'I' for Inactive)
REMARK    1  A    between atoms: C_1  and  O_2
REMARK    2  A    between atoms: O_2  and  C_3
REMARK    3  A    between atoms: C_7  and  C_8
REMARK    4  A    between atoms: C_10  and  C_11
REMARK    5  A    between atoms: C_11  and  C_12
REMARK    6  A    between atoms: C_17  and  C_18
REMARK                            x       y       z     vdW  Elec       q    Type
REMARK                         _______ _______ _______ _____ _____    ______ ____
ROOT
ATOM      1  C   UNL     1       8.518   9.049  18.423  0.00  0.00    +0.000 A 
ATOM      2  C   UNL     1       8.449   7.791  18.969  0.00  0.00    +0.000 A 
ATOM      3  C   UNL     1       7.833   7.003  17.970  0.00  0.00    +0.000 A 
ATOM      4  N   UNL     1       7.489   7.742  16.908  0.00  0.00    +0.000 NA
ATOM      5  O   UNL     1       7.913   9.028  17.200  0.00  0.00    +0.000 OA
ENDROOT
BRANCH   1  10
ATOM      6  C   UNL     1      10.294  12.359  18.186  0.00  0.00    +0.000 A 
ATOM      7  C   UNL     1      10.620  12.571  19.527  0.00  0.00    +0.000 A 
ATOM      8  C   UNL     1      10.193  11.678  20.509  0.00  0.00    +0.000 A 
ATOM      9  C   UNL     1       9.458  10.550  20.149  0.00  0.00    +0.000 A 
ATOM     10  C   UNL     1       9.156  10.299  18.804  0.00  0.00    +0.000 A 
ATOM     11  C   UNL     1       9.552  11.231  17.833  0.00  0.00    +0.000 A 
BRANCH   6  13
ATOM     12  C   UNL     1      12.181  13.500  17.307  0.00  0.00    +0.000 C 
ATOM     13  O   UNL     1      10.771  13.303  17.317  0.00  0.00    +0.000 OA
ENDBRANCH   6  13
ENDBRANCH   1  10
BRANCH   3  14
ATOM     14  C   UNL     1       7.581   5.543  17.976  0.00  0.00    +0.000 C 
BRANCH  14  15
ATOM     15  C   UNL     1       6.114   5.260  18.208  0.00  0.00    +0.000 C 
ATOM     16  O   UNL     1       5.275   6.091  17.864  0.00  0.00    +0.000 OA
ATOM     17  N   UNL     1       5.865   4.058  18.843  0.00  0.00    +0.000 N 
ATOM     18  C   UNL     1       4.584   3.607  19.003  0.00  0.00    +0.000 A 
ATOM     19  N   UNL     1       3.492   4.061  18.450  0.00  0.00    +0.000 NA
ATOM     20  C   UNL     1       2.400   3.335  18.883  0.00  0.00    +0.000 A 
ATOM     21  C   UNL     1       1.059   3.707  18.364  0.00  0.00    +0.000 C 
ATOM     22  C   UNL     1       2.702   2.325  19.778  0.00  0.00    +0.000 A 
ATOM     23  S   UNL     1       4.402   2.263  20.037  0.00  0.00    +0.000 S 
ATOM     24  H   UNL     1       6.605   3.541  19.294  0.00  0.00    +0.000 HD
ENDBRANCH  14  15
ENDBRANCH   3  14
TORSDOF 4
ENDMDL
MODEL 7
REMARK VINA RESULT:      -7.9      1.202      1.767
REMARK  Name = 
REMARK  6 active torsions:
REMARK  status: ('A' for Active; 'I' for Inactive)
REMARK    1  A    between atoms: C_1  and  O_2
REMARK    2  A    between atoms: O_2  and  C_3
REMARK    3  A    between atoms: C_7  and  C_8
REMARK    4  A    between atoms: C_10  and  C_11
REMARK    5  A    between atoms: C_11  and  C_12
REMARK    6  A    between atoms: C_17  and  C_18
REMARK                            x       y       z     vdW  Elec       q    Type
REMARK                         _______ _______ _______ _____ _____    ______ ____
ROOT
ATOM      1  C   UNL     1       8.053   8.652  18.115  0.00  0.00    +0.000 A 
ATOM      2  C   UNL     1       8.216   7.372  18.585  0.00  0.00    +0.000 A 
ATOM      3  C   UNL     1       7.488   6.565  17.680  0.00  0.00    +0.000 A 
ATOM      4  N   UNL     1       6.867   7.307  16.755  0.00  0.00    +0.000 NA
ATOM      5  O   UNL     1       7.218   8.618  17.037  0.00  0.00    +0.000 OA
ENDROOT
BRANCH   1  10
ATOM      6  C   UNL     1       8.892  12.318  17.965  0.00  0.00    +0.000 A 
ATOM      7  C   UNL     1       9.944  12.377  18.882  0.00  0.00    +0.000 A 
ATOM      8  C   UNL     1      10.321  11.244  19.601  0.00  0.00    +0.000 A 
ATOM      9  C   UNL     1       9.663  10.034  19.385  0.00  0.00    +0.000 A 
ATOM     10  C   UNL     1       8.633   9.945  18.439  0.00  0.00    +0.000 A 
ATOM     11  C   UNL     1       8.233  11.104  17.757  0.00  0.00    +0.000 A 
BRANCH   6  13
ATOM     12  C   UNL     1       7.426  14.168  17.713  0.00  0.00    +0.000 C 
ATOM     13  O   UNL     1       8.617  13.493  17.320  0.00  0.00    +0.000 OA
ENDBRANCH   6  13
ENDBRANCH   1  10
BRANCH   3  14
ATOM     14  C   UNL     1       7.382   5.088  17.646  0.00  0.00    +0.000 C 
BRANCH  14  15
ATOM     15  C   UNL     1       6.209   4.621  18.478  0.00  0.00    +0.000 C 
ATOM     16  O   UNL     1       6.304   4.606  19.704  0.00  0.00    +0.000 OA
ATOM     17  N   UNL     1       5.119   4.210  17.734  0.00  0.00    +0.000 N 
ATOM     18  C   UNL     1       3.940   3.885  18.347  0.00  0.00    +0.000 A 
ATOM     19  N   UNL     1       3.589   4.094  19.586  0.00  0.00    +0.000 NA
ATOM     20  C   UNL     1       2.318   3.604  19.812  0.00  0.00    +0.000 A 
ATOM     21  C   UNL     1       1.742   3.746  21.173  0.00  0.00    +0.000 C 
ATOM     22  C   UNL     1       1.725   3.018  18.709  0.00  0.00    +0.000 A 
ATOM     23  S   UNL     1       2.777   3.135  17.351  0.00  0.00    +0.000 S 
ATOM     24  H   UNL     1       5.196   4.038  16.743  0.00  0.00    +0.000 HD
ENDBRANCH  14  15
ENDBRANCH   3  14
TORSDOF 4
ENDMDL
MODEL 8
REMARK VINA RESULT:      -7.8      4.690      7.889
REMARK  Name = 
REMARK  6 active torsions:
REMARK  status: ('A' for Active; 'I' for Inactive)
REMARK    1  A    between atoms: C_1  and  O_2
REMARK    2  A    between atoms: O_2  and  C_3
REMARK    3  A    between atoms: C_7  and  C_8
REMARK    4  A    between atoms: C_10  and  C_11
REMARK    5  A    between atoms: C_11  and  C_12
REMARK    6  A    between atoms: C_17  and  C_18
REMARK                            x       y       z     vdW  Elec       q    Type
REMARK                         _______ _______ _______ _____ _____    ______ ____
ROOT
ATOM      1  C   UNL     1       6.560   4.041  14.138  0.00  0.00    +0.000 A 
ATOM      2  C   UNL     1       6.568   3.687  15.465  0.00  0.00    +0.000 A 
ATOM      3  C   UNL     1       7.097   4.817  16.130  0.00  0.00    +0.000 A 
ATOM      4  N   UNL     1       7.449   5.773  15.263  0.00  0.00    +0.000 NA
ATOM      5  O   UNL     1       7.119   5.279  14.012  0.00  0.00    +0.000 OA
ENDROOT
BRANCH   1  10
ATOM      6  C   UNL     1       4.189   3.205  11.336  0.00  0.00    +0.000 A 
ATOM      7  C   UNL     1       4.860   2.132  10.745  0.00  0.00    +0.000 A 
ATOM      8  C   UNL     1       6.114   1.739  11.209  0.00  0.00    +0.000 A 
ATOM      9  C   UNL     1       6.693   2.402  12.291  0.00  0.00    +0.000 A 
ATOM     10  C   UNL     1       6.017   3.454  12.924  0.00  0.00    +0.000 A 
ATOM     11  C   UNL     1       4.777   3.868  12.415  0.00  0.00    +0.000 A 
BRANCH   6  13
ATOM     12  C   UNL     1       2.971   4.249   9.587  0.00  0.00    +0.000 C 
ATOM     13  O   UNL     1       2.966   3.495  10.794  0.00  0.00    +0.000 OA
ENDBRANCH   6  13
ENDBRANCH   1  10
BRANCH   3  14
ATOM     14  C   UNL     1       7.256   5.034  17.587  0.00  0.00    +0.000 C 
BRANCH  14  15
ATOM     15  C   UNL     1       5.915   4.968  18.282  0.00  0.00    +0.000 C 
ATOM     16  O   UNL     1       5.185   5.957  18.285  0.00  0.00    +0.000 OA
ATOM     17  N   UNL     1       5.658   3.758  18.899  0.00  0.00    +0.000 N 
ATOM     18  C   UNL     1       4.435   3.504  19.455  0.00  0.00    +0.000 A 
ATOM     19  N   UNL     1       3.331   4.189  19.326  0.00  0.00    +0.000 NA
ATOM     20  C   UNL     1       2.318   3.605  20.060  0.00  0.00    +0.000 A 
ATOM     21  C   UNL     1       0.979   4.246  20.043  0.00  0.00    +0.000 C 
ATOM     22  C   UNL     1       2.692   2.465  20.747  0.00  0.00    +0.000 A 
ATOM     23  S   UNL     1       4.342   2.099  20.417  0.00  0.00    +0.000 S 
ATOM     24  H   UNL     1       6.391   3.080  19.047  0.00  0.00    +0.000 HD
ENDBRANCH  14  15
ENDBRANCH   3  14
TORSDOF 4
ENDMDL
MODEL 9
REMARK VINA RESULT:      -7.8      7.255      9.035
REMARK  Name = 
REMARK  6 active torsions:
REMARK  status: ('A' for Active; 'I' for Inactive)
REMARK    1  A    between atoms: C_1  and  O_2
REMARK    2  A    between atoms: O_2  and  C_3
REMARK    3  A    between atoms: C_7  and  C_8
REMARK    4  A    between atoms: C_10  and  C_11
REMARK    5  A    between atoms: C_11  and  C_12
REMARK    6  A    between atoms: C_17  and  C_18
REMARK                            x       y       z     vdW  Elec       q    Type
REMARK                         _______ _______ _______ _____ _____    ______ ____
ROOT
ATOM      1  C   UNL     1       2.324   7.773  18.437  0.00  0.00    +0.000 A 
ATOM      2  C   UNL     1       1.964   9.006  17.952  0.00  0.00    +0.000 A 
ATOM      3  C   UNL     1       1.344   9.651  19.047  0.00  0.00    +0.000 A 
ATOM      4  N   UNL     1       1.272   8.844  20.113  0.00  0.00    +0.000 NA
ATOM      5  O   UNL     1       1.881   7.662  19.723  0.00  0.00    +0.000 OA
ENDROOT
BRANCH   1  10
ATOM      6  C   UNL     1       5.013   5.850  16.637  0.00  0.00    +0.000 A 
ATOM      7  C   UNL     1       4.512   4.551  16.741  0.00  0.00    +0.000 A 
ATOM      8  C   UNL     1       3.347   4.297  17.465  0.00  0.00    +0.000 A 
ATOM      9  C   UNL     1       2.659   5.351  18.064  0.00  0.00    +0.000 A 
ATOM     10  C   UNL     1       3.123   6.667  17.935  0.00  0.00    +0.000 A 
ATOM     11  C   UNL     1       4.323   6.900  17.245  0.00  0.00    +0.000 A 
BRANCH   6  13
ATOM     12  C   UNL     1       6.935   4.790  15.735  0.00  0.00    +0.000 C 
ATOM     13  O   UNL     1       6.160   5.973  15.901  0.00  0.00    +0.000 OA
ENDBRANCH   6  13
ENDBRANCH   1  10
BRANCH   3  14
ATOM     14  C   UNL     1       0.835  11.040  19.127  0.00  0.00    +0.000 C 
BRANCH  14  15
ATOM     15  C   UNL     1      -0.656  11.073  18.882  0.00  0.00    +0.000 C 
ATOM     16  O   UNL     1      -1.421  11.266  19.824  0.00  0.00    +0.000 OA
ATOM     17  N   UNL     1      -1.016  10.836  17.568  0.00  0.00    +0.000 N 
ATOM     18  C   UNL     1      -2.319  10.962  17.169  0.00  0.00    +0.000 A 
ATOM     19  N   UNL     1      -3.317  11.489  17.824  0.00  0.00    +0.000 NA
ATOM     20  C   UNL     1      -4.474  11.411  17.075  0.00  0.00    +0.000 A 
ATOM     21  C   UNL     1      -5.726  11.959  17.656  0.00  0.00    +0.000 C 
ATOM     22  C   UNL     1      -4.318  10.807  15.841  0.00  0.00    +0.000 A 
ATOM     23  S   UNL     1      -2.668  10.377  15.606  0.00  0.00    +0.000 S 
ATOM     24  H   UNL     1      -0.355  10.464  16.903  0.00  0.00    +0.000 HD
ENDBRANCH  14  15
ENDBRANCH   3  14
TORSDOF 4
ENDMDL
