MODEL 1
REMARK VINA RESULT:      -7.7      0.000      0.000
REMARK  Name = 
REMARK  6 active torsions:
REMARK  status: ('A' for Active; 'I' for Inactive)
REMARK    1  A    between atoms: C_1  and  C_2
REMARK    2  A    between atoms: C_2  and  N_3
REMARK    3  A    between atoms: N_3  and  C_4
REMARK    4  A    between atoms: C_4  and  C_5
REMARK    5  A    between atoms: C_10  and  C_12
REMARK    6  A    between atoms: C_15  and  N_16
REMARK                            x       y       z     vdW  Elec       q    Type
REMARK                         _______ _______ _______ _____ _____    ______ ____
ROOT
ATOM      1  N   UNL     1       3.158   3.892  19.936  0.00  0.00    +0.000 N 
ATOM      2  C   UNL     1       4.382   3.406  19.454  0.00  0.00    +0.000 C 
ATOM      3  O   UNL     1       5.033   2.539  20.044  0.00  0.00    +0.000 OA
ENDROOT
BRANCH   2   4
ATOM      4  C   UNL     1       4.934   3.859  18.157  0.00  0.00    +0.000 A 
ATOM      5  C   UNL     1       4.271   3.647  16.946  0.00  0.00    +0.000 A 
ATOM      6  C   UNL     1       4.909   3.938  15.739  0.00  0.00    +0.000 A 
ATOM      7  C   UNL     1       6.187   4.515  15.740  0.00  0.00    +0.000 A 
ATOM      8  C   UNL     1       6.806   4.829  16.958  0.00  0.00    +0.000 A 
ATOM      9  C   UNL     1       6.182   4.498  18.162  0.00  0.00    +0.000 A 
BRANCH   7  10
ATOM     10  N   UNL     1       6.864   4.770  14.525  0.00  0.00    +0.000 N 
ATOM     11  C   UNL     1       6.669   4.211  13.286  0.00  0.00    +0.000 A 
ATOM     12  N   UNL     1       7.543   4.712  12.440  0.00  0.00    +0.000 NA
ATOM     13  N   UNL     1       8.295   5.596  13.164  0.00  0.00    +0.000 NA
ATOM     14  N   UNL     1       7.894   5.642  14.428  0.00  0.00    +0.000 NA
ENDBRANCH   7  10
ENDBRANCH   2   4
BRANCH   1  16
ATOM     15  C   UNL     1       1.267   2.876  21.247  0.00  0.00    +0.000 C 
ATOM     16  C   UNL     1       2.723   3.339  21.228  0.00  0.00    +0.000 C 
ENDBRANCH   1  16
BRANCH   1  17
ATOM     17  C   UNL     1       2.233   4.813  19.242  0.00  0.00    +0.000 C 
BRANCH  17  18
ATOM     18  C   UNL     1       2.657   6.286  19.206  0.00  0.00    +0.000 C 
ATOM     19  C   UNL     1       2.367   7.016  17.913  0.00  0.00    +0.000 C 
ATOM     20  C   UNL     1       2.365   8.453  18.383  0.00  0.00    +0.000 C 
ATOM     21  O   UNL     1       1.726   8.434  19.664  0.00  0.00    +0.000 OA
ATOM     22  C   UNL     1       1.941   7.140  20.248  0.00  0.00    +0.000 C 
ENDBRANCH  17  18
ENDBRANCH   1  17
TORSDOF 5
ENDMDL
MODEL 2
REMARK VINA RESULT:      -7.2      3.780      6.985
REMARK  Name = 
REMARK  6 active torsions:
REMARK  status: ('A' for Active; 'I' for Inactive)
REMARK    1  A    between atoms: C_1  and  C_2
REMARK    2  A    between atoms: C_2  and  N_3
REMARK    3  A    between atoms: N_3  and  C_4
REMARK    4  A    between atoms: C_4  and  C_5
REMARK    5  A    between atoms: C_10  and  C_12
REMARK    6  A    between atoms: C_15  and  N_16
REMARK                            x       y       z     vdW  Elec       q    Type
REMARK                         _______ _______ _______ _____ _____    ______ ____
ROOT
ATOM      1  N   UNL     1       3.857   4.208  18.347  0.00  0.00    +0.000 N 
ATOM      2  C   UNL     1       2.604   4.825  18.220  0.00  0.00    +0.000 C 
ATOM      3  O   UNL     1       1.660   4.298  17.624  0.00  0.00    +0.000 OA
ENDROOT
BRANCH   2   4
ATOM      4  C   UNL     1       2.317   6.127  18.864  0.00  0.00    +0.000 A 
ATOM      5  C   UNL     1       1.946   6.233  20.206  0.00  0.00    +0.000 A 
ATOM      6  C   UNL     1       1.521   7.460  20.719  0.00  0.00    +0.000 A 
ATOM      7  C   UNL     1       1.538   8.605  19.910  0.00  0.00    +0.000 A 
ATOM      8  C   UNL     1       2.015   8.519  18.595  0.00  0.00    +0.000 A 
ATOM      9  C   UNL     1       2.400   7.282  18.073  0.00  0.00    +0.000 A 
BRANCH   7  10
ATOM     10  N   UNL     1       1.065   9.842  20.403  0.00  0.00    +0.000 N 
ATOM     11  C   UNL     1       0.519  10.901  19.718  0.00  0.00    +0.000 A 
ATOM     12  N   UNL     1       0.245  11.871  20.564  0.00  0.00    +0.000 NA
ATOM     13  N   UNL     1       0.627  11.410  21.794  0.00  0.00    +0.000 NA
ATOM     14  N   UNL     1       1.124  10.183  21.711  0.00  0.00    +0.000 NA
ENDBRANCH   7  10
ENDBRANCH   2   4
BRANCH   1  16
ATOM     15  C   UNL     1       3.644   1.710  18.555  0.00  0.00    +0.000 C 
ATOM     16  C   UNL     1       3.993   2.907  17.673  0.00  0.00    +0.000 C 
ENDBRANCH   1  16
BRANCH   1  17
ATOM     17  C   UNL     1       5.000   4.679  19.158  0.00  0.00    +0.000 C 
BRANCH  17  18
ATOM     18  C   UNL     1       6.215   5.183  18.372  0.00  0.00    +0.000 C 
ATOM     19  C   UNL     1       5.954   6.355  17.451  0.00  0.00    +0.000 C 
ATOM     20  C   UNL     1       7.347   6.924  17.299  0.00  0.00    +0.000 C 
ATOM     21  O   UNL     1       7.949   6.807  18.593  0.00  0.00    +0.000 OA
ATOM     22  C   UNL     1       7.337   5.698  19.269  0.00  0.00    +0.000 C 
ENDBRANCH  17  18
ENDBRANCH   1  17
TORSDOF 5
ENDMDL
MODEL 3
REMARK VINA RESULT:      -7.2      0.421      1.110
REMARK  Name = 
REMARK  6 active torsions:
REMARK  status: ('A' for Active; 'I' for Inactive)
REMARK    1  A    between atoms: C_1  and  C_2
REMARK    2  A    between atoms: C_2  and  N_3
REMARK    3  A    between atoms: N_3  and  C_4
REMARK    4  A    between atoms: C_4  and  C_5
REMARK    5  A    between atoms: C_10  and  C_12
REMARK    6  A    between atoms: C_15  and  N_16
REMARK                            x       y       z     vdW  Elec       q    Type
REMARK                         _______ _______ _______ _____ _____    ______ ____
ROOT
ATOM      1  N   UNL     1       3.035   4.296  19.705  0.00  0.00    +0.000 N 
ATOM      2  C   UNL     1       4.247   3.625  19.491  0.00  0.00    +0.000 C 
ATOM      3  O   UNL     1       4.700   2.796  20.287  0.00  0.00    +0.000 OA
ENDROOT
BRANCH   2   4
ATOM      4  C   UNL     1       5.028   3.820  18.248  0.00  0.00    +0.000 A 
ATOM      5  C   UNL     1       6.248   4.499  18.230  0.00  0.00    +0.000 A 
ATOM      6  C   UNL     1       6.860   4.806  17.013  0.00  0.00    +0.000 A 
ATOM      7  C   UNL     1       6.290   4.366  15.809  0.00  0.00    +0.000 A 
ATOM      8  C   UNL     1       5.123   3.590  15.835  0.00  0.00    +0.000 A 
ATOM      9  C   UNL     1       4.493   3.321  17.052  0.00  0.00    +0.000 A 
BRANCH   7  10
ATOM     10  N   UNL     1       6.873   4.711  14.568  0.00  0.00    +0.000 N 
ATOM     11  C   UNL     1       6.579   4.248  13.310  0.00  0.00    +0.000 A 
ATOM     12  N   UNL     1       7.389   4.810  12.438  0.00  0.00    +0.000 NA
ATOM     13  N   UNL     1       8.201   5.636  13.167  0.00  0.00    +0.000 NA
ATOM     14  N   UNL     1       7.899   5.587  14.457  0.00  0.00    +0.000 NA
ENDBRANCH   7  10
ENDBRANCH   2   4
BRANCH   1  16
ATOM     15  C   UNL     1       0.980   3.350  20.807  0.00  0.00    +0.000 C 
ATOM     16  C   UNL     1       2.358   3.988  20.976  0.00  0.00    +0.000 C 
ENDBRANCH   1  16
BRANCH   1  17
ATOM     17  C   UNL     1       2.334   5.188  18.757  0.00  0.00    +0.000 C 
BRANCH  17  18
ATOM     18  C   UNL     1       2.741   6.665  18.803  0.00  0.00    +0.000 C 
ATOM     19  C   UNL     1       2.468   7.455  17.542  0.00  0.00    +0.000 C 
ATOM     20  C   UNL     1       2.440   8.867  18.082  0.00  0.00    +0.000 C 
ATOM     21  O   UNL     1       1.777   8.778  19.347  0.00  0.00    +0.000 OA
ATOM     22  C   UNL     1       1.995   7.459  19.871  0.00  0.00    +0.000 C 
ENDBRANCH  17  18
ENDBRANCH   1  17
TORSDOF 5
ENDMDL
MODEL 4
REMARK VINA RESULT:      -7.0      3.769      7.415
REMARK  Name = 
REMARK  6 active torsions:
REMARK  status: ('A' for Active; 'I' for Inactive)
REMARK    1  A    between atoms: C_1  and  C_2
REMARK    2  A    between atoms: C_2  and  N_3
REMARK    3  A    between atoms: N_3  and  C_4
REMARK    4  A    between atoms: C_4  and  C_5
REMARK    5  A    between atoms: C_10  and  C_12
REMARK    6  A    between atoms: C_15  and  N_16
REMARK                            x       y       z     vdW  Elec       q    Type
REMARK                         _______ _______ _______ _____ _____    ______ ____
ROOT
ATOM      1  N   UNL     1       4.088   4.589  18.108  0.00  0.00    +0.000 N 
ATOM      2  C   UNL     1       2.773   5.073  18.150  0.00  0.00    +0.000 C 
ATOM      3  O   UNL     1       1.858   4.574  17.487  0.00  0.00    +0.000 OA
ENDROOT
BRANCH   2   4
ATOM      4  C   UNL     1       2.386   6.179  19.055  0.00  0.00    +0.000 A 
ATOM      5  C   UNL     1       1.970   5.959  20.370  0.00  0.00    +0.000 A 
ATOM      6  C   UNL     1       1.455   7.013  21.126  0.00  0.00    +0.000 A 
ATOM      7  C   UNL     1       1.425   8.311  20.596  0.00  0.00    +0.000 A 
ATOM      8  C   UNL     1       1.946   8.550  19.316  0.00  0.00    +0.000 A 
ATOM      9  C   UNL     1       2.422   7.486  18.548  0.00  0.00    +0.000 A 
BRANCH   7  10
ATOM     10  N   UNL     1       0.862   9.378  21.332  0.00  0.00    +0.000 N 
ATOM     11  C   UNL     1       0.694  10.692  20.971  0.00  0.00    +0.000 A 
ATOM     12  N   UNL     1       0.158  11.354  21.973  0.00  0.00    +0.000 NA
ATOM     13  N   UNL     1      -0.009  10.438  22.975  0.00  0.00    +0.000 NA
ATOM     14  N   UNL     1       0.413   9.238  22.601  0.00  0.00    +0.000 NA
ENDBRANCH   7  10
ENDBRANCH   2   4
BRANCH   1  16
ATOM     15  C   UNL     1       4.927   3.898  15.839  0.00  0.00    +0.000 C 
ATOM     16  C   UNL     1       4.322   3.474  17.176  0.00  0.00    +0.000 C 
ENDBRANCH   1  16
BRANCH   1  17
ATOM     17  C   UNL     1       5.218   5.013  18.962  0.00  0.00    +0.000 C 
BRANCH  17  18
ATOM     18  C   UNL     1       6.416   5.626  18.229  0.00  0.00    +0.000 C 
ATOM     19  C   UNL     1       6.168   6.974  17.589  0.00  0.00    +0.000 C 
ATOM     20  C   UNL     1       7.578   7.510  17.478  0.00  0.00    +0.000 C 
ATOM     21  O   UNL     1       8.235   7.102  18.683  0.00  0.00    +0.000 OA
ATOM     22  C   UNL     1       7.604   5.899  19.148  0.00  0.00    +0.000 C 
ENDBRANCH  17  18
ENDBRANCH   1  17
TORSDOF 5
ENDMDL
MODEL 5
REMARK VINA RESULT:      -6.9      3.841      7.681
REMARK  Name = 
REMARK  6 active torsions:
REMARK  status: ('A' for Active; 'I' for Inactive)
REMARK    1  A    between atoms: C_1  and  C_2
REMARK    2  A    between atoms: C_2  and  N_3
REMARK    3  A    between atoms: N_3  and  C_4
REMARK    4  A    between atoms: C_4  and  C_5
REMARK    5  A    between atoms: C_10  and  C_12
REMARK    6  A    between atoms: C_15  and  N_16
REMARK                            x       y       z     vdW  Elec       q    Type
REMARK                         _______ _______ _______ _____ _____    ______ ____
ROOT
ATOM      1  N   UNL     1       3.021   5.152  17.678  0.00  0.00    +0.000 N 
ATOM      2  C   UNL     1       3.348   6.499  17.890  0.00  0.00    +0.000 C 
ATOM      3  O   UNL     1       4.327   7.038  17.363  0.00  0.00    +0.000 OA
ENDROOT
BRANCH   2   4
ATOM      4  C   UNL     1       2.488   7.382  18.711  0.00  0.00    +0.000 A 
ATOM      5  C   UNL     1       1.921   8.553  18.206  0.00  0.00    +0.000 A 
ATOM      6  C   UNL     1       1.261   9.437  19.063  0.00  0.00    +0.000 A 
ATOM      7  C   UNL     1       1.100   9.114  20.418  0.00  0.00    +0.000 A 
ATOM      8  C   UNL     1       1.574   7.886  20.900  0.00  0.00    +0.000 A 
ATOM      9  C   UNL     1       2.269   7.025  20.049  0.00  0.00    +0.000 A 
BRANCH   7  10
ATOM     10  N   UNL     1       0.477  10.021  21.305  0.00  0.00    +0.000 N 
ATOM     11  C   UNL     1       0.226  11.362  21.146  0.00  0.00    +0.000 A 
ATOM     12  N   UNL     1      -0.343  11.831  22.235  0.00  0.00    +0.000 NA
ATOM     13  N   UNL     1      -0.447  10.765  23.087  0.00  0.00    +0.000 NA
ATOM     14  N   UNL     1       0.046   9.664  22.537  0.00  0.00    +0.000 NA
ENDBRANCH   7  10
ENDBRANCH   2   4
BRANCH   1  16
ATOM     15  C   UNL     1       5.273   4.043  17.511  0.00  0.00    +0.000 C 
ATOM     16  C   UNL     1       3.955   4.401  16.825  0.00  0.00    +0.000 C 
ENDBRANCH   1  16
BRANCH   1  17
ATOM     17  C   UNL     1       1.802   4.452  18.136  0.00  0.00    +0.000 C 
BRANCH  17  18
ATOM     18  C   UNL     1       2.014   3.362  19.193  0.00  0.00    +0.000 C 
ATOM     19  C   UNL     1       3.003   3.700  20.287  0.00  0.00    +0.000 C 
ATOM     20  C   UNL     1       2.569   2.746  21.378  0.00  0.00    +0.000 C 
ATOM     21  O   UNL     1       1.138   2.728  21.319  0.00  0.00    +0.000 OA
ATOM     22  C   UNL     1       0.745   3.028  19.971  0.00  0.00    +0.000 C 
ENDBRANCH  17  18
ENDBRANCH   1  17
TORSDOF 5
ENDMDL
MODEL 6
REMARK VINA RESULT:      -6.9      0.681      1.028
REMARK  Name = 
REMARK  6 active torsions:
REMARK  status: ('A' for Active; 'I' for Inactive)
REMARK    1  A    between atoms: C_1  and  C_2
REMARK    2  A    between atoms: C_2  and  N_3
REMARK    3  A    between atoms: N_3  and  C_4
REMARK    4  A    between atoms: C_4  and  C_5
REMARK    5  A    between atoms: C_10  and  C_12
REMARK    6  A    between atoms: C_15  and  N_16
REMARK                            x       y       z     vdW  Elec       q    Type
REMARK                         _______ _______ _______ _____ _____    ______ ____
ROOT
ATOM      1  N   UNL     1       3.013   3.430  19.890  0.00  0.00    +0.000 N 
ATOM      2  C   UNL     1       4.366   3.282  19.553  0.00  0.00    +0.000 C 
ATOM      3  O   UNL     1       5.178   2.715  20.292  0.00  0.00    +0.000 OA
ENDROOT
BRANCH   2   4
ATOM      4  C   UNL     1       4.890   3.738  18.246  0.00  0.00    +0.000 A 
ATOM      5  C   UNL     1       4.285   3.392  17.036  0.00  0.00    +0.000 A 
ATOM      6  C   UNL     1       4.912   3.703  15.827  0.00  0.00    +0.000 A 
ATOM      7  C   UNL     1       6.111   4.429  15.823  0.00  0.00    +0.000 A 
ATOM      8  C   UNL     1       6.660   4.871  17.035  0.00  0.00    +0.000 A 
ATOM      9  C   UNL     1       6.052   4.523  18.243  0.00  0.00    +0.000 A 
BRANCH   7  10
ATOM     10  N   UNL     1       6.780   4.708  14.609  0.00  0.00    +0.000 N 
ATOM     11  C   UNL     1       6.549   4.205  13.352  0.00  0.00    +0.000 A 
ATOM     12  N   UNL     1       7.430   4.708  12.514  0.00  0.00    +0.000 NA
ATOM     13  N   UNL     1       8.222   5.536  13.261  0.00  0.00    +0.000 NA
ATOM     14  N   UNL     1       7.840   5.546  14.531  0.00  0.00    +0.000 NA
ENDBRANCH   7  10
ENDBRANCH   2   4
BRANCH   1  16
ATOM     15  C   UNL     1       1.145   2.576  21.343  0.00  0.00    +0.000 C 
ATOM     16  C   UNL     1       2.630   2.913  21.213  0.00  0.00    +0.000 C 
ENDBRANCH   1  16
BRANCH   1  17
ATOM     17  C   UNL     1       1.935   3.955  19.024  0.00  0.00    +0.000 C 
BRANCH  17  18
ATOM     18  C   UNL     1       1.651   5.456  19.145  0.00  0.00    +0.000 C 
ATOM     19  C   UNL     1       1.888   6.055  20.514  0.00  0.00    +0.000 C 
ATOM     20  C   UNL     1       2.069   7.516  20.167  0.00  0.00    +0.000 C 
ATOM     21  O   UNL     1       2.820   7.526  18.948  0.00  0.00    +0.000 OA
ATOM     22  C   UNL     1       2.539   6.308  18.242  0.00  0.00    +0.000 C 
ENDBRANCH  17  18
ENDBRANCH   1  17
TORSDOF 5
ENDMDL
MODEL 7
REMARK VINA RESULT:      -6.9      3.786      7.024
REMARK  Name = 
REMARK  6 active torsions:
REMARK  status: ('A' for Active; 'I' for Inactive)
REMARK    1  A    between atoms: C_1  and  C_2
REMARK    2  A    between atoms: C_2  and  N_3
REMARK    3  A    between atoms: N_3  and  C_4
REMARK    4  A    between atoms: C_4  and  C_5
REMARK    5  A    between atoms: C_10  and  C_12
REMARK    6  A    between atoms: C_15  and  N_16
REMARK                            x       y       z     vdW  Elec       q    Type
REMARK                         _______ _______ _______ _____ _____    ______ ____
ROOT
ATOM      1  N   UNL     1       3.813   4.109  18.083  0.00  0.00    +0.000 N 
ATOM      2  C   UNL     1       2.549   4.716  18.064  0.00  0.00    +0.000 C 
ATOM      3  O   UNL     1       1.572   4.204  17.508  0.00  0.00    +0.000 OA
ENDROOT
BRANCH   2   4
ATOM      4  C   UNL     1       2.292   5.986  18.781  0.00  0.00    +0.000 A 
ATOM      5  C   UNL     1       1.971   6.027  20.139  0.00  0.00    +0.000 A 
ATOM      6  C   UNL     1       1.572   7.229  20.727  0.00  0.00    +0.000 A 
ATOM      7  C   UNL     1       1.567   8.413  19.975  0.00  0.00    +0.000 A 
ATOM      8  C   UNL     1       1.996   8.389  18.640  0.00  0.00    +0.000 A 
ATOM      9  C   UNL     1       2.354   7.178  18.045  0.00  0.00    +0.000 A 
BRANCH   7  10
ATOM     10  N   UNL     1       1.119   9.627  20.544  0.00  0.00    +0.000 N 
ATOM     11  C   UNL     1       0.709   9.887  21.829  0.00  0.00    +0.000 A 
ATOM     12  N   UNL     1       0.342  11.147  21.922  0.00  0.00    +0.000 NA
ATOM     13  N   UNL     1       0.525  11.679  20.675  0.00  0.00    +0.000 NA
ATOM     14  N   UNL     1       0.995  10.770  19.831  0.00  0.00    +0.000 NA
ENDBRANCH   7  10
ENDBRANCH   2   4
BRANCH   1  16
ATOM     15  C   UNL     1       3.573   1.606  18.179  0.00  0.00    +0.000 C 
ATOM     16  C   UNL     1       3.916   2.840  17.345  0.00  0.00    +0.000 C 
ENDBRANCH   1  16
BRANCH   1  17
ATOM     17  C   UNL     1       5.002   4.558  18.838  0.00  0.00    +0.000 C 
BRANCH  17  18
ATOM     18  C   UNL     1       5.747   5.764  18.257  0.00  0.00    +0.000 C 
ATOM     19  C   UNL     1       7.133   6.003  18.814  0.00  0.00    +0.000 C 
ATOM     20  C   UNL     1       7.755   6.826  17.707  0.00  0.00    +0.000 C 
ATOM     21  O   UNL     1       7.273   6.251  16.488  0.00  0.00    +0.000 OA
ATOM     22  C   UNL     1       5.998   5.646  16.756  0.00  0.00    +0.000 C 
ENDBRANCH  17  18
ENDBRANCH   1  17
TORSDOF 5
ENDMDL
MODEL 8
REMARK VINA RESULT:      -6.8      3.820      7.091
REMARK  Name = 
REMARK  6 active torsions:
REMARK  status: ('A' for Active; 'I' for Inactive)
REMARK    1  A    between atoms: C_1  and  C_2
REMARK    2  A    between atoms: C_2  and  N_3
REMARK    3  A    between atoms: N_3  and  C_4
REMARK    4  A    between atoms: C_4  and  C_5
REMARK    5  A    between atoms: C_10  and  C_12
REMARK    6  A    between atoms: C_15  and  N_16
REMARK                            x       y       z     vdW  Elec       q    Type
REMARK                         _______ _______ _______ _____ _____    ______ ____
ROOT
ATOM      1  N   UNL     1       3.722   4.330  18.122  0.00  0.00    +0.000 N 
ATOM      2  C   UNL     1       2.433   4.860  18.268  0.00  0.00    +0.000 C 
ATOM      3  O   UNL     1       1.416   4.235  17.952  0.00  0.00    +0.000 OA
ENDROOT
BRANCH   2   4
ATOM      4  C   UNL     1       2.210   6.189  18.882  0.00  0.00    +0.000 A 
ATOM      5  C   UNL     1       1.912   6.347  20.236  0.00  0.00    +0.000 A 
ATOM      6  C   UNL     1       1.543   7.600  20.730  0.00  0.00    +0.000 A 
ATOM      7  C   UNL     1       1.546   8.718  19.884  0.00  0.00    +0.000 A 
ATOM      8  C   UNL     1       1.952   8.578  18.550  0.00  0.00    +0.000 A 
ATOM      9  C   UNL     1       2.280   7.316  18.050  0.00  0.00    +0.000 A 
BRANCH   7  10
ATOM     10  N   UNL     1       1.128   9.982  20.359  0.00  0.00    +0.000 N 
ATOM     11  C   UNL     1       0.796  11.111  19.652  0.00  0.00    +0.000 A 
ATOM     12  N   UNL     1       0.496  12.079  20.493  0.00  0.00    +0.000 NA
ATOM     13  N   UNL     1       0.646  11.543  21.742  0.00  0.00    +0.000 NA
ATOM     14  N   UNL     1       1.028  10.275  21.677  0.00  0.00    +0.000 NA
ENDBRANCH   7  10
ENDBRANCH   2   4
BRANCH   1  16
ATOM     15  C   UNL     1       3.670   1.846  18.519  0.00  0.00    +0.000 C 
ATOM     16  C   UNL     1       3.791   2.991  17.515  0.00  0.00    +0.000 C 
ENDBRANCH   1  16
BRANCH   1  17
ATOM     17  C   UNL     1       4.987   4.927  18.600  0.00  0.00    +0.000 C 
BRANCH  17  18
ATOM     18  C   UNL     1       5.934   5.448  17.513  0.00  0.00    +0.000 C 
ATOM     19  C   UNL     1       6.811   4.404  16.859  0.00  0.00    +0.000 C 
ATOM     20  C   UNL     1       7.154   5.086  15.553  0.00  0.00    +0.000 C 
ATOM     21  O   UNL     1       5.955   5.754  15.147  0.00  0.00    +0.000 OA
ATOM     22  C   UNL     1       5.200   6.068  16.327  0.00  0.00    +0.000 C 
ENDBRANCH  17  18
ENDBRANCH   1  17
TORSDOF 5
ENDMDL
MODEL 9
REMARK VINA RESULT:      -6.8      3.855      7.256
REMARK  Name = 
REMARK  6 active torsions:
REMARK  status: ('A' for Active; 'I' for Inactive)
REMARK    1  A    between atoms: C_1  and  C_2
REMARK    2  A    between atoms: C_2  and  N_3
REMARK    3  A    between atoms: N_3  and  C_4
REMARK    4  A    between atoms: C_4  and  C_5
REMARK    5  A    between atoms: C_10  and  C_12
REMARK    6  A    between atoms: C_15  and  N_16
REMARK                            x       y       z     vdW  Elec       q    Type
REMARK                         _______ _______ _______ _____ _____    ______ ____
ROOT
ATOM      1  N   UNL     1       3.731   4.810  17.635  0.00  0.00    +0.000 N 
ATOM      2  C   UNL     1       4.036   6.156  17.883  0.00  0.00    +0.000 C 
ATOM      3  O   UNL     1       5.148   6.640  17.652  0.00  0.00    +0.000 OA
ENDROOT
BRANCH   2   4
ATOM      4  C   UNL     1       3.008   7.101  18.375  0.00  0.00    +0.000 A 
ATOM      5  C   UNL     1       2.512   8.142  17.587  0.00  0.00    +0.000 A 
ATOM      6  C   UNL     1       1.674   9.107  18.151  0.00  0.00    +0.000 A 
ATOM      7  C   UNL     1       1.267   8.991  19.488  0.00  0.00    +0.000 A 
ATOM      8  C   UNL     1       1.678   7.885  20.245  0.00  0.00    +0.000 A 
ATOM      9  C   UNL     1       2.549   6.945  19.690  0.00  0.00    +0.000 A 
BRANCH   7  10
ATOM     10  N   UNL     1       0.459   9.985  20.084  0.00  0.00    +0.000 N 
ATOM     11  C   UNL     1       0.610  10.622  21.291  0.00  0.00    +0.000 A 
ATOM     12  N   UNL     1      -0.391  11.457  21.472  0.00  0.00    +0.000 NA
ATOM     13  N   UNL     1      -1.178  11.336  20.360  0.00  0.00    +0.000 NA
ATOM     14  N   UNL     1      -0.676  10.450  19.512  0.00  0.00    +0.000 NA
ENDBRANCH   7  10
ENDBRANCH   2   4
BRANCH   1  16
ATOM     15  C   UNL     1       5.078   4.122  15.625  0.00  0.00    +0.000 C 
ATOM     16  C   UNL     1       4.845   3.992  17.129  0.00  0.00    +0.000 C 
ENDBRANCH   1  16
BRANCH   1  17
ATOM     17  C   UNL     1       2.403   4.167  17.734  0.00  0.00    +0.000 C 
BRANCH  17  18
ATOM     18  C   UNL     1       2.196   3.243  18.939  0.00  0.00    +0.000 C 
ATOM     19  C   UNL     1       3.224   3.371  20.042  0.00  0.00    +0.000 C 
ATOM     20  C   UNL     1       2.462   2.805  21.220  0.00  0.00    +0.000 C 
ATOM     21  O   UNL     1       1.120   3.281  21.068  0.00  0.00    +0.000 OA
ATOM     22  C   UNL     1       0.880   3.496  19.669  0.00  0.00    +0.000 C 
ENDBRANCH  17  18
ENDBRANCH   1  17
TORSDOF 5
ENDMDL
