MODEL 1
REMARK VINA RESULT:      -8.1      0.000      0.000
REMARK  Name = 
REMARK  7 active torsions:
REMARK  status: ('A' for Active; 'I' for Inactive)
REMARK    1  A    between atoms: C_1  and  O_2
REMARK    2  A    between atoms: O_2  and  C_3
REMARK    3  A    between atoms: C_9  and  C_10
REMARK    4  A    between atoms: C_10  and  C_11
REMARK    5  A    between atoms: C_11  and  N_12
REMARK    6  A    between atoms: N_17  and  C_18
REMARK    7  A    between atoms: C_18  and  C_19
REMARK                            x       y       z     vdW  Elec       q    Type
REMARK                         _______ _______ _______ _____ _____    ______ ____
ROOT
ATOM      1  C   UNL     1       2.707   2.967  18.486  0.00  0.00    +0.000 A 
ATOM      2  C   UNL     1       1.576   3.714  18.177  0.00  0.00    +0.000 A 
ATOM      3  C   UNL     1       1.666   5.087  17.915  0.00  0.00    +0.000 A 
ATOM      4  C   UNL     1       2.930   5.696  17.969  0.00  0.00    +0.000 A 
ATOM      5  C   UNL     1       4.088   4.966  18.263  0.00  0.00    +0.000 A 
ATOM      6  C   UNL     1       3.962   3.588  18.544  0.00  0.00    +0.000 A 
ATOM      7  C   UNL     1       5.202   5.863  18.198  0.00  0.00    +0.000 A 
ATOM      8  C   UNL     1       4.681   7.108  17.904  0.00  0.00    +0.000 A 
ATOM      9  N   UNL     1       3.318   7.006  17.783  0.00  0.00    +0.000 N 
ENDROOT
BRANCH   1  11
ATOM     10  C   UNL     1       3.937   0.951  18.560  0.00  0.00    +0.000 C 
ATOM     11  O   UNL     1       2.707   1.630  18.788  0.00  0.00    +0.000 OA
ENDBRANCH   1  11
BRANCH   7  12
ATOM     12  C   UNL     1       6.650   5.509  18.409  0.00  0.00    +0.000 C 
BRANCH  12  13
ATOM     13  C   UNL     1       7.197   4.548  17.347  0.00  0.00    +0.000 C 
BRANCH  13  14
ATOM     14  N   UNL     1       7.509   5.216  16.095  0.00  0.00    +0.000 N 
ATOM     15  C   UNL     1       7.113   4.725  14.900  0.00  0.00    +0.000 C 
ATOM     16  N   UNL     1       6.338   3.732  14.659  0.00  0.00    +0.000 NA
ATOM     17  N   UNL     1       7.623   5.429  13.873  0.00  0.00    +0.000 N 
ATOM     18  H   UNL     1       8.449   5.595  16.052  0.00  0.00    +0.000 HD
ATOM     19  H   UNL     1       6.039   3.305  15.532  0.00  0.00    +0.000 HD
ATOM     20  H   UNL     1       7.510   6.427  13.999  0.00  0.00    +0.000 HD
ATOM     21  H   UNL     1       7.171   5.129  13.014  0.00  0.00    +0.000 HD
ENDBRANCH  13  14
ENDBRANCH  12  13
ENDBRANCH   7  12
BRANCH   9  22
ATOM     22  C   UNL     1       2.443   8.151  17.545  0.00  0.00    +0.000 C 
BRANCH  22  23
ATOM     23  C   UNL     1       1.778   8.601  18.823  0.00  0.00    +0.000 A 
ATOM     24  C   UNL     1       1.965   7.885  20.012  0.00  0.00    +0.000 A 
ATOM     25  C   UNL     1       1.257   8.228  21.165  0.00  0.00    +0.000 A 
ATOM     26  C   UNL     1       0.354   9.295  21.147  0.00  0.00    +0.000 A 
ATOM     27 CL   UNL     1      -0.541   9.614  22.590  0.00  0.00    +0.000 Cl
ATOM     28  C   UNL     1       0.192  10.046  19.980  0.00  0.00    +0.000 A 
ATOM     29 CL   UNL     1      -0.886  11.393  19.886  0.00  0.00    +0.000 Cl
ATOM     30  C   UNL     1       0.906   9.702  18.826  0.00  0.00    +0.000 A 
ENDBRANCH  22  23
ENDBRANCH   9  22
TORSDOF 6
ENDMDL
MODEL 2
REMARK VINA RESULT:      -7.6      1.614      2.375
REMARK  Name = 
REMARK  7 active torsions:
REMARK  status: ('A' for Active; 'I' for Inactive)
REMARK    1  A    between atoms: C_1  and  O_2
REMARK    2  A    between atoms: O_2  and  C_3
REMARK    3  A    between atoms: C_9  and  C_10
REMARK    4  A    between atoms: C_10  and  C_11
REMARK    5  A    between atoms: C_11  and  N_12
REMARK    6  A    between atoms: N_17  and  C_18
REMARK    7  A    between atoms: C_18  and  C_19
REMARK                            x       y       z     vdW  Elec       q    Type
REMARK                         _______ _______ _______ _____ _____    ______ ____
ROOT
ATOM      1  C   UNL     1       2.075   3.157  19.025  0.00  0.00    +0.000 A 
ATOM      2  C   UNL     1       1.283   3.487  20.120  0.00  0.00    +0.000 A 
ATOM      3  C   UNL     1       1.157   4.815  20.545  0.00  0.00    +0.000 A 
ATOM      4  C   UNL     1       1.847   5.812  19.839  0.00  0.00    +0.000 A 
ATOM      5  C   UNL     1       2.641   5.511  18.725  0.00  0.00    +0.000 A 
ATOM      6  C   UNL     1       2.767   4.161  18.333  0.00  0.00    +0.000 A 
ATOM      7  C   UNL     1       3.167   6.741  18.215  0.00  0.00    +0.000 A 
ATOM      8  C   UNL     1       2.708   7.738  19.054  0.00  0.00    +0.000 A 
ATOM      9  N   UNL     1       1.931   7.175  20.035  0.00  0.00    +0.000 N 
ENDROOT
BRANCH   1  11
ATOM     10  C   UNL     1       3.643   1.472  18.490  0.00  0.00    +0.000 C 
ATOM     11  O   UNL     1       2.282   1.885  18.560  0.00  0.00    +0.000 OA
ENDBRANCH   1  11
BRANCH   7  12
ATOM     12  C   UNL     1       4.045   6.905  17.003  0.00  0.00    +0.000 C 
BRANCH  12  13
ATOM     13  C   UNL     1       5.537   6.734  17.311  0.00  0.00    +0.000 C 
BRANCH  13  14
ATOM     14  N   UNL     1       6.322   6.431  16.126  0.00  0.00    +0.000 N 
ATOM     15  C   UNL     1       6.776   5.185  15.864  0.00  0.00    +0.000 C 
ATOM     16  N   UNL     1       6.516   4.091  16.481  0.00  0.00    +0.000 NA
ATOM     17  N   UNL     1       7.587   5.162  14.791  0.00  0.00    +0.000 N 
ATOM     18  H   UNL     1       7.013   7.138  15.897  0.00  0.00    +0.000 HD
ATOM     19  H   UNL     1       5.893   4.274  17.264  0.00  0.00    +0.000 HD
ATOM     20  H   UNL     1       7.197   5.664  14.004  0.00  0.00    +0.000 HD
ATOM     21  H   UNL     1       7.767   4.194  14.538  0.00  0.00    +0.000 HD
ENDBRANCH  13  14
ENDBRANCH  12  13
ENDBRANCH   7  12
BRANCH   9  22
ATOM     22  C   UNL     1       1.342   7.938  21.132  0.00  0.00    +0.000 C 
BRANCH  22  23
ATOM     23  C   UNL     1       0.735   9.226  20.633  0.00  0.00    +0.000 A 
ATOM     24  C   UNL     1       0.951  10.427  21.319  0.00  0.00    +0.000 A 
ATOM     25  C   UNL     1       0.293  11.595  20.930  0.00  0.00    +0.000 A 
ATOM     26  C   UNL     1      -0.587  11.580  19.845  0.00  0.00    +0.000 A 
ATOM     27 CL   UNL     1      -1.421  13.045  19.467  0.00  0.00    +0.000 Cl
ATOM     28  C   UNL     1      -0.778  10.399  19.123  0.00  0.00    +0.000 A 
ATOM     29 CL   UNL     1      -1.832  10.306  17.757  0.00  0.00    +0.000 Cl
ATOM     30  C   UNL     1      -0.115   9.230  19.514  0.00  0.00    +0.000 A 
ENDBRANCH  22  23
ENDBRANCH   9  22
TORSDOF 6
ENDMDL
MODEL 3
REMARK VINA RESULT:      -7.6      4.310      7.412
REMARK  Name = 
REMARK  7 active torsions:
REMARK  status: ('A' for Active; 'I' for Inactive)
REMARK    1  A    between atoms: C_1  and  O_2
REMARK    2  A    between atoms: O_2  and  C_3
REMARK    3  A    between atoms: C_9  and  C_10
REMARK    4  A    between atoms: C_10  and  C_11
REMARK    5  A    between atoms: C_11  and  N_12
REMARK    6  A    between atoms: N_17  and  C_18
REMARK    7  A    between atoms: C_18  and  C_19
REMARK                            x       y       z     vdW  Elec       q    Type
REMARK                         _______ _______ _______ _____ _____    ______ ____
ROOT
ATOM      1  C   UNL     1       2.419   3.164  19.757  0.00  0.00    +0.000 A 
ATOM      2  C   UNL     1       3.707   2.669  19.584  0.00  0.00    +0.000 A 
ATOM      3  C   UNL     1       4.691   3.428  18.937  0.00  0.00    +0.000 A 
ATOM      4  C   UNL     1       4.349   4.705  18.467  0.00  0.00    +0.000 A 
ATOM      5  C   UNL     1       3.064   5.234  18.640  0.00  0.00    +0.000 A 
ATOM      6  C   UNL     1       2.088   4.438  19.276  0.00  0.00    +0.000 A 
ATOM      7  C   UNL     1       3.056   6.557  18.091  0.00  0.00    +0.000 A 
ATOM      8  C   UNL     1       4.319   6.771  17.573  0.00  0.00    +0.000 A 
ATOM      9  N   UNL     1       5.085   5.653  17.787  0.00  0.00    +0.000 N 
ENDROOT
BRANCH   1  11
ATOM     10  C   UNL     1       1.275   2.638  21.757  0.00  0.00    +0.000 C 
ATOM     11  O   UNL     1       1.388   2.480  20.346  0.00  0.00    +0.000 OA
ENDBRANCH   1  11
BRANCH   7  12
ATOM     12  C   UNL     1       1.895   7.516  18.085  0.00  0.00    +0.000 C 
BRANCH  12  13
ATOM     13  C   UNL     1       2.328   8.986  18.082  0.00  0.00    +0.000 C 
BRANCH  13  14
ATOM     14  N   UNL     1       1.258   9.884  17.677  0.00  0.00    +0.000 N 
ATOM     15  C   UNL     1       0.319  10.320  18.545  0.00  0.00    +0.000 C 
ATOM     16  N   UNL     1       0.264  10.154  19.816  0.00  0.00    +0.000 NA
ATOM     17  N   UNL     1      -0.644  11.029  17.930  0.00  0.00    +0.000 N 
ATOM     18  H   UNL     1       0.859   9.667  16.770  0.00  0.00    +0.000 HD
ATOM     19  H   UNL     1       1.057   9.600  20.129  0.00  0.00    +0.000 HD
ATOM     20  H   UNL     1      -0.264  11.727  17.302  0.00  0.00    +0.000 HD
ATOM     21  H   UNL     1      -1.228  11.469  18.635  0.00  0.00    +0.000 HD
ENDBRANCH  13  14
ENDBRANCH  12  13
ENDBRANCH   7  12
BRANCH   9  22
ATOM     22  C   UNL     1       6.455   5.512  17.303  0.00  0.00    +0.000 C 
BRANCH  22  23
ATOM     23  C   UNL     1       6.478   5.066  15.860  0.00  0.00    +0.000 A 
ATOM     24  C   UNL     1       5.649   4.024  15.426  0.00  0.00    +0.000 A 
ATOM     25  C   UNL     1       5.755   3.530  14.124  0.00  0.00    +0.000 A 
ATOM     26  C   UNL     1       6.688   4.073  13.237  0.00  0.00    +0.000 A 
ATOM     27 CL   UNL     1       6.814   3.362  11.668  0.00  0.00    +0.000 Cl
ATOM     28  C   UNL     1       7.490   5.143  13.644  0.00  0.00    +0.000 A 
ATOM     29 CL   UNL     1       8.649   5.884  12.599  0.00  0.00    +0.000 Cl
ATOM     30  C   UNL     1       7.379   5.639  14.949  0.00  0.00    +0.000 A 
ENDBRANCH  22  23
ENDBRANCH   9  22
TORSDOF 6
ENDMDL
MODEL 4
REMARK VINA RESULT:      -7.5      5.875     10.013
REMARK  Name = 
REMARK  7 active torsions:
REMARK  status: ('A' for Active; 'I' for Inactive)
REMARK    1  A    between atoms: C_1  and  O_2
REMARK    2  A    between atoms: O_2  and  C_3
REMARK    3  A    between atoms: C_9  and  C_10
REMARK    4  A    between atoms: C_10  and  C_11
REMARK    5  A    between atoms: C_11  and  N_12
REMARK    6  A    between atoms: N_17  and  C_18
REMARK    7  A    between atoms: C_18  and  C_19
REMARK                            x       y       z     vdW  Elec       q    Type
REMARK                         _______ _______ _______ _____ _____    ______ ____
ROOT
ATOM      1  C   UNL     1      -4.007  10.933  17.730  0.00  0.00    +0.000 A 
ATOM      2  C   UNL     1      -3.033  10.228  17.031  0.00  0.00    +0.000 A 
ATOM      3  C   UNL     1      -1.693  10.250  17.439  0.00  0.00    +0.000 A 
ATOM      4  C   UNL     1      -1.353  11.000  18.575  0.00  0.00    +0.000 A 
ATOM      5  C   UNL     1      -2.314  11.707  19.307  0.00  0.00    +0.000 A 
ATOM      6  C   UNL     1      -3.653  11.685  18.858  0.00  0.00    +0.000 A 
ATOM      7  C   UNL     1      -1.655  12.326  20.418  0.00  0.00    +0.000 A 
ATOM      8  C   UNL     1      -0.317  12.004  20.303  0.00  0.00    +0.000 A 
ATOM      9  N   UNL     1      -0.138  11.223  19.189  0.00  0.00    +0.000 N 
ENDROOT
BRANCH   1  11
ATOM     10  C   UNL     1      -6.229  11.295  18.448  0.00  0.00    +0.000 C 
ATOM     11  O   UNL     1      -5.331  10.995  17.384  0.00  0.00    +0.000 OA
ENDBRANCH   1  11
BRANCH   7  12
ATOM     12  C   UNL     1      -2.302  13.158  21.492  0.00  0.00    +0.000 C 
BRANCH  12  13
ATOM     13  C   UNL     1      -2.127  12.572  22.897  0.00  0.00    +0.000 C 
BRANCH  13  14
ATOM     14  N   UNL     1      -3.371  12.065  23.452  0.00  0.00    +0.000 N 
ATOM     15  C   UNL     1      -4.059  12.733  24.404  0.00  0.00    +0.000 C 
ATOM     16  N   UNL     1      -3.844  13.907  24.872  0.00  0.00    +0.000 NA
ATOM     17  N   UNL     1      -5.103  12.020  24.862  0.00  0.00    +0.000 N 
ATOM     18  H   UNL     1      -3.369  11.064  23.621  0.00  0.00    +0.000 HD
ATOM     19  H   UNL     1      -3.024  14.313  24.429  0.00  0.00    +0.000 HD
ATOM     20  H   UNL     1      -5.657  11.625  24.112  0.00  0.00    +0.000 HD
ATOM     21  H   UNL     1      -5.678  12.620  25.447  0.00  0.00    +0.000 HD
ENDBRANCH  13  14
ENDBRANCH  12  13
ENDBRANCH   7  12
BRANCH   9  22
ATOM     22  C   UNL     1       1.170  10.762  18.730  0.00  0.00    +0.000 C 
BRANCH  22  23
ATOM     23  C   UNL     1       1.417   9.331  19.146  0.00  0.00    +0.000 A 
ATOM     24  C   UNL     1       1.014   8.878  20.407  0.00  0.00    +0.000 A 
ATOM     25  C   UNL     1       1.349   7.593  20.840  0.00  0.00    +0.000 A 
ATOM     26  C   UNL     1       2.089   6.742  20.015  0.00  0.00    +0.000 A 
ATOM     27 CL   UNL     1       2.529   5.195  20.645  0.00  0.00    +0.000 Cl
ATOM     28  C   UNL     1       2.459   7.166  18.735  0.00  0.00    +0.000 A 
ATOM     29 CL   UNL     1       3.353   6.164  17.649  0.00  0.00    +0.000 Cl
ATOM     30  C   UNL     1       2.119   8.453  18.303  0.00  0.00    +0.000 A 
ENDBRANCH  22  23
ENDBRANCH   9  22
TORSDOF 6
ENDMDL
MODEL 5
REMARK VINA RESULT:      -7.5      2.872      4.285
REMARK  Name = 
REMARK  7 active torsions:
REMARK  status: ('A' for Active; 'I' for Inactive)
REMARK    1  A    between atoms: C_1  and  O_2
REMARK    2  A    between atoms: O_2  and  C_3
REMARK    3  A    between atoms: C_9  and  C_10
REMARK    4  A    between atoms: C_10  and  C_11
REMARK    5  A    between atoms: C_11  and  N_12
REMARK    6  A    between atoms: N_17  and  C_18
REMARK    7  A    between atoms: C_18  and  C_19
REMARK                            x       y       z     vdW  Elec       q    Type
REMARK                         _______ _______ _______ _____ _____    ______ ____
ROOT
ATOM      1  C   UNL     1       5.082   5.166  17.158  0.00  0.00    +0.000 A 
ATOM      2  C   UNL     1       5.126   6.325  16.390  0.00  0.00    +0.000 A 
ATOM      3  C   UNL     1       4.310   7.422  16.692  0.00  0.00    +0.000 A 
ATOM      4  C   UNL     1       3.445   7.329  17.794  0.00  0.00    +0.000 A 
ATOM      5  C   UNL     1       3.390   6.180  18.593  0.00  0.00    +0.000 A 
ATOM      6  C   UNL     1       4.208   5.082  18.250  0.00  0.00    +0.000 A 
ATOM      7  C   UNL     1       2.449   6.420  19.645  0.00  0.00    +0.000 A 
ATOM      8  C   UNL     1       1.940   7.686  19.429  0.00  0.00    +0.000 A 
ATOM      9  N   UNL     1       2.527   8.220  18.310  0.00  0.00    +0.000 N 
ENDROOT
BRANCH   1  11
ATOM     10  C   UNL     1       6.195   3.829  15.558  0.00  0.00    +0.000 C 
ATOM     11  O   UNL     1       5.818   4.036  16.915  0.00  0.00    +0.000 OA
ENDBRANCH   1  11
BRANCH   7  12
ATOM     12  C   UNL     1       2.093   5.474  20.761  0.00  0.00    +0.000 C 
BRANCH  12  13
ATOM     13  C   UNL     1       0.977   4.493  20.386  0.00  0.00    +0.000 C 
BRANCH  13  14
ATOM     14  N   UNL     1       1.489   3.215  19.920  0.00  0.00    +0.000 N 
ATOM     15  C   UNL     1       1.439   2.851  18.620  0.00  0.00    +0.000 C 
ATOM     16  N   UNL     1       1.084   3.551  17.605  0.00  0.00    +0.000 NA
ATOM     17  N   UNL     1       1.845   1.582  18.437  0.00  0.00    +0.000 N 
ATOM     18  H   UNL     1       1.278   2.436  20.536  0.00  0.00    +0.000 HD
ATOM     19  H   UNL     1       0.805   4.481  17.906  0.00  0.00    +0.000 HD
ATOM     20  H   UNL     1       2.714   1.384  18.917  0.00  0.00    +0.000 HD
ATOM     21  H   UNL     1       1.946   1.410  17.441  0.00  0.00    +0.000 HD
ENDBRANCH  13  14
ENDBRANCH  12  13
ENDBRANCH   7  12
BRANCH   9  22
ATOM     22  C   UNL     1       2.166   9.521  17.754  0.00  0.00    +0.000 C 
BRANCH  22  23
ATOM     23  C   UNL     1       0.951  10.089  18.448  0.00  0.00    +0.000 A 
ATOM     24  C   UNL     1      -0.334   9.825  17.960  0.00  0.00    +0.000 A 
ATOM     25  C   UNL     1      -1.449  10.446  18.526  0.00  0.00    +0.000 A 
ATOM     26  C   UNL     1      -1.294  11.337  19.591  0.00  0.00    +0.000 A 
ATOM     27 CL   UNL     1      -2.710  12.124  20.191  0.00  0.00    +0.000 Cl
ATOM     28  C   UNL     1      -0.022  11.576  20.117  0.00  0.00    +0.000 A 
ATOM     29 CL   UNL     1       0.247  12.645  21.447  0.00  0.00    +0.000 Cl
ATOM     30  C   UNL     1       1.094  10.949  19.550  0.00  0.00    +0.000 A 
ENDBRANCH  22  23
ENDBRANCH   9  22
TORSDOF 6
ENDMDL
MODEL 6
REMARK VINA RESULT:      -7.5      1.830      2.696
REMARK  Name = 
REMARK  7 active torsions:
REMARK  status: ('A' for Active; 'I' for Inactive)
REMARK    1  A    between atoms: C_1  and  O_2
REMARK    2  A    between atoms: O_2  and  C_3
REMARK    3  A    between atoms: C_9  and  C_10
REMARK    4  A    between atoms: C_10  and  C_11
REMARK    5  A    between atoms: C_11  and  N_12
REMARK    6  A    between atoms: N_17  and  C_18
REMARK    7  A    between atoms: C_18  and  C_19
REMARK                            x       y       z     vdW  Elec       q    Type
REMARK                         _______ _______ _______ _____ _____    ______ ____
ROOT
ATOM      1  C   UNL     1       3.019   3.338  19.771  0.00  0.00    +0.000 A 
ATOM      2  C   UNL     1       2.168   3.760  20.787  0.00  0.00    +0.000 A 
ATOM      3  C   UNL     1       1.774   5.100  20.889  0.00  0.00    +0.000 A 
ATOM      4  C   UNL     1       2.257   6.013  19.939  0.00  0.00    +0.000 A 
ATOM      5  C   UNL     1       3.103   5.614  18.897  0.00  0.00    +0.000 A 
ATOM      6  C   UNL     1       3.500   4.261  18.833  0.00  0.00    +0.000 A 
ATOM      7  C   UNL     1       3.377   6.764  18.087  0.00  0.00    +0.000 A 
ATOM      8  C   UNL     1       2.720   7.823  18.684  0.00  0.00    +0.000 A 
ATOM      9  N   UNL     1       2.064   7.372  19.801  0.00  0.00    +0.000 N 
ENDROOT
BRANCH   1  11
ATOM     10  C   UNL     1       3.512   1.577  18.274  0.00  0.00    +0.000 C 
ATOM     11  O   UNL     1       3.480   2.057  19.614  0.00  0.00    +0.000 OA
ENDBRANCH   1  11
BRANCH   7  12
ATOM     12  C   UNL     1       4.214   6.799  16.837  0.00  0.00    +0.000 C 
BRANCH  12  13
ATOM     13  C   UNL     1       5.676   7.178  17.101  0.00  0.00    +0.000 C 
BRANCH  13  14
ATOM     14  N   UNL     1       6.432   6.099  17.714  0.00  0.00    +0.000 N 
ATOM     15  C   UNL     1       7.213   5.267  16.991  0.00  0.00    +0.000 C 
ATOM     16  N   UNL     1       7.523   5.337  15.749  0.00  0.00    +0.000 NA
ATOM     17  N   UNL     1       7.711   4.267  17.740  0.00  0.00    +0.000 N 
ATOM     18  H   UNL     1       5.927   5.603  18.441  0.00  0.00    +0.000 HD
ATOM     19  H   UNL     1       7.071   6.142  15.323  0.00  0.00    +0.000 HD
ATOM     20  H   UNL     1       8.108   4.600  18.610  0.00  0.00    +0.000 HD
ATOM     21  H   UNL     1       8.413   3.771  17.200  0.00  0.00    +0.000 HD
ENDBRANCH  13  14
ENDBRANCH  12  13
ENDBRANCH   7  12
BRANCH   9  22
ATOM     22  C   UNL     1       1.326   8.245  20.709  0.00  0.00    +0.000 C 
BRANCH  22  23
ATOM     23  C   UNL     1       0.870   9.500  20.003  0.00  0.00    +0.000 A 
ATOM     24  C   UNL     1       1.356  10.753  20.396  0.00  0.00    +0.000 A 
ATOM     25  C   UNL     1       0.845  11.921  19.828  0.00  0.00    +0.000 A 
ATOM     26  C   UNL     1      -0.155  11.854  18.855  0.00  0.00    +0.000 A 
ATOM     27 CL   UNL     1      -0.789  13.343  18.250  0.00  0.00    +0.000 Cl
ATOM     28  C   UNL     1      -0.616  10.608  18.420  0.00  0.00    +0.000 A 
ATOM     29 CL   UNL     1      -1.833  10.442  17.205  0.00  0.00    +0.000 Cl
ATOM     30  C   UNL     1      -0.101   9.438  18.990  0.00  0.00    +0.000 A 
ENDBRANCH  22  23
ENDBRANCH   9  22
TORSDOF 6
ENDMDL
MODEL 7
REMARK VINA RESULT:      -7.5      1.716      2.652
REMARK  Name = 
REMARK  7 active torsions:
REMARK  status: ('A' for Active; 'I' for Inactive)
REMARK    1  A    between atoms: C_1  and  O_2
REMARK    2  A    between atoms: O_2  and  C_3
REMARK    3  A    between atoms: C_9  and  C_10
REMARK    4  A    between atoms: C_10  and  C_11
REMARK    5  A    between atoms: C_11  and  N_12
REMARK    6  A    between atoms: N_17  and  C_18
REMARK    7  A    between atoms: C_18  and  C_19
REMARK                            x       y       z     vdW  Elec       q    Type
REMARK                         _______ _______ _______ _____ _____    ______ ____
ROOT
ATOM      1  C   UNL     1       3.028   3.390  19.771  0.00  0.00    +0.000 A 
ATOM      2  C   UNL     1       2.168   3.713  20.816  0.00  0.00    +0.000 A 
ATOM      3  C   UNL     1       1.709   5.024  20.994  0.00  0.00    +0.000 A 
ATOM      4  C   UNL     1       2.136   6.010  20.091  0.00  0.00    +0.000 A 
ATOM      5  C   UNL     1       2.990   5.711  19.023  0.00  0.00    +0.000 A 
ATOM      6  C   UNL     1       3.454   4.385  18.882  0.00  0.00    +0.000 A 
ATOM      7  C   UNL     1       3.198   6.915  18.275  0.00  0.00    +0.000 A 
ATOM      8  C   UNL     1       2.496   7.906  18.933  0.00  0.00    +0.000 A 
ATOM      9  N   UNL     1       1.874   7.363  20.029  0.00  0.00    +0.000 N 
ENDROOT
BRANCH   1  11
ATOM     10  C   UNL     1       3.456   1.678  18.200  0.00  0.00    +0.000 C 
ATOM     11  O   UNL     1       3.551   2.144  19.541  0.00  0.00    +0.000 OA
ENDBRANCH   1  11
BRANCH   7  12
ATOM     12  C   UNL     1       4.020   7.060  17.022  0.00  0.00    +0.000 C 
BRANCH  12  13
ATOM     13  C   UNL     1       5.521   6.860  17.259  0.00  0.00    +0.000 C 
BRANCH  13  14
ATOM     14  N   UNL     1       6.228   6.457  16.054  0.00  0.00    +0.000 N 
ATOM     15  C   UNL     1       6.843   5.259  15.948  0.00  0.00    +0.000 C 
ATOM     16  N   UNL     1       6.816   4.270  16.763  0.00  0.00    +0.000 NA
ATOM     17  N   UNL     1       7.543   5.153  14.804  0.00  0.00    +0.000 N 
ATOM     18  H   UNL     1       6.775   7.200  15.630  0.00  0.00    +0.000 HD
ATOM     19  H   UNL     1       6.250   4.504  17.575  0.00  0.00    +0.000 HD
ATOM     20  H   UNL     1       7.006   5.447  13.997  0.00  0.00    +0.000 HD
ATOM     21  H   UNL     1       7.846   4.190  14.694  0.00  0.00    +0.000 HD
ENDBRANCH  13  14
ENDBRANCH  12  13
ENDBRANCH   7  12
BRANCH   9  22
ATOM     22  C   UNL     1       1.103   8.148  20.989  0.00  0.00    +0.000 C 
BRANCH  22  23
ATOM     23  C   UNL     1       0.639   9.448  20.378  0.00  0.00    +0.000 A 
ATOM     24  C   UNL     1      -0.241   9.447  19.289  0.00  0.00    +0.000 A 
ATOM     25  C   UNL     1      -0.576  10.641  18.647  0.00  0.00    +0.000 A 
ATOM     26  C   UNL     1      -0.038  11.853  19.087  0.00  0.00    +0.000 A 
ATOM     27 CL   UNL     1      -0.439  13.280  18.198  0.00  0.00    +0.000 Cl
ATOM     28  C   UNL     1       0.805  11.874  20.201  0.00  0.00    +0.000 A 
ATOM     29 CL   UNL     1       1.490  13.334  20.820  0.00  0.00    +0.000 Cl
ATOM     30  C   UNL     1       1.137  10.676  20.845  0.00  0.00    +0.000 A 
ENDBRANCH  22  23
ENDBRANCH   9  22
TORSDOF 6
ENDMDL
MODEL 8
REMARK VINA RESULT:      -7.4      1.654      2.546
REMARK  Name = 
REMARK  7 active torsions:
REMARK  status: ('A' for Active; 'I' for Inactive)
REMARK    1  A    between atoms: C_1  and  O_2
REMARK    2  A    between atoms: O_2  and  C_3
REMARK    3  A    between atoms: C_9  and  C_10
REMARK    4  A    between atoms: C_10  and  C_11
REMARK    5  A    between atoms: C_11  and  N_12
REMARK    6  A    between atoms: N_17  and  C_18
REMARK    7  A    between atoms: C_18  and  C_19
REMARK                            x       y       z     vdW  Elec       q    Type
REMARK                         _______ _______ _______ _____ _____    ______ ____
ROOT
ATOM      1  C   UNL     1       2.517   3.060  18.322  0.00  0.00    +0.000 A 
ATOM      2  C   UNL     1       1.693   3.430  19.379  0.00  0.00    +0.000 A 
ATOM      3  C   UNL     1       1.611   4.764  19.798  0.00  0.00    +0.000 A 
ATOM      4  C   UNL     1       2.379   5.725  19.123  0.00  0.00    +0.000 A 
ATOM      5  C   UNL     1       3.207   5.384  18.046  0.00  0.00    +0.000 A 
ATOM      6  C   UNL     1       3.285   4.028  17.661  0.00  0.00    +0.000 A 
ATOM      7  C   UNL     1       3.814   6.586  17.559  0.00  0.00    +0.000 A 
ATOM      8  C   UNL     1       3.365   7.605  18.376  0.00  0.00    +0.000 A 
ATOM      9  N   UNL     1       2.519   7.083  19.321  0.00  0.00    +0.000 N 
ENDROOT
BRANCH   1  11
ATOM     10  C   UNL     1       3.801   1.078  18.403  0.00  0.00    +0.000 C 
ATOM     11  O   UNL     1       2.683   1.778  17.867  0.00  0.00    +0.000 OA
ENDBRANCH   1  11
BRANCH   7  12
ATOM     12  C   UNL     1       4.752   6.704  16.388  0.00  0.00    +0.000 C 
BRANCH  12  13
ATOM     13  C   UNL     1       6.016   5.851  16.540  0.00  0.00    +0.000 C 
BRANCH  13  14
ATOM     14  N   UNL     1       6.705   6.090  17.798  0.00  0.00    +0.000 N 
ATOM     15  C   UNL     1       7.608   5.220  18.300  0.00  0.00    +0.000 C 
ATOM     16  N   UNL     1       8.098   4.168  17.753  0.00  0.00    +0.000 NA
ATOM     17  N   UNL     1       8.019   5.575  19.530  0.00  0.00    +0.000 N 
ATOM     18  H   UNL     1       6.112   6.477  18.526  0.00  0.00    +0.000 HD
ATOM     19  H   UNL     1       7.690   4.035  16.831  0.00  0.00    +0.000 HD
ATOM     20  H   UNL     1       8.272   6.554  19.583  0.00  0.00    +0.000 HD
ATOM     21  H   UNL     1       8.808   4.992  19.794  0.00  0.00    +0.000 HD
ENDBRANCH  13  14
ENDBRANCH  12  13
ENDBRANCH   7  12
BRANCH   9  22
ATOM     22  C   UNL     1       1.919   7.875  20.391  0.00  0.00    +0.000 C 
BRANCH  22  23
ATOM     23  C   UNL     1       0.968   8.908  19.833  0.00  0.00    +0.000 A 
ATOM     24  C   UNL     1       0.872   9.112  18.452  0.00  0.00    +0.000 A 
ATOM     25  C   UNL     1       0.086  10.147  17.941  0.00  0.00    +0.000 A 
ATOM     26  C   UNL     1      -0.618  10.989  18.805  0.00  0.00    +0.000 A 
ATOM     27 CL   UNL     1      -1.510  12.293  18.106  0.00  0.00    +0.000 Cl
ATOM     28  C   UNL     1      -0.567  10.768  20.184  0.00  0.00    +0.000 A 
ATOM     29 CL   UNL     1      -1.428  11.751  21.314  0.00  0.00    +0.000 Cl
ATOM     30  C   UNL     1       0.219   9.728  20.693  0.00  0.00    +0.000 A 
ENDBRANCH  22  23
ENDBRANCH   9  22
TORSDOF 6
ENDMDL
MODEL 9
REMARK VINA RESULT:      -7.4      2.628      4.190
REMARK  Name = 
REMARK  7 active torsions:
REMARK  status: ('A' for Active; 'I' for Inactive)
REMARK    1  A    between atoms: C_1  and  O_2
REMARK    2  A    between atoms: O_2  and  C_3
REMARK    3  A    between atoms: C_9  and  C_10
REMARK    4  A    between atoms: C_10  and  C_11
REMARK    5  A    between atoms: C_11  and  N_12
REMARK    6  A    between atoms: N_17  and  C_18
REMARK    7  A    between atoms: C_18  and  C_19
REMARK                            x       y       z     vdW  Elec       q    Type
REMARK                         _______ _______ _______ _____ _____    ______ ____
ROOT
ATOM      1  C   UNL     1       4.888   5.067  16.254  0.00  0.00    +0.000 A 
ATOM      2  C   UNL     1       5.279   6.264  16.846  0.00  0.00    +0.000 A 
ATOM      3  C   UNL     1       4.559   6.808  17.917  0.00  0.00    +0.000 A 
ATOM      4  C   UNL     1       3.431   6.117  18.385  0.00  0.00    +0.000 A 
ATOM      5  C   UNL     1       3.023   4.903  17.818  0.00  0.00    +0.000 A 
ATOM      6  C   UNL     1       3.755   4.390  16.725  0.00  0.00    +0.000 A 
ATOM      7  C   UNL     1       1.877   4.441  18.543  0.00  0.00    +0.000 A 
ATOM      8  C   UNL     1       1.608   5.404  19.497  0.00  0.00    +0.000 A 
ATOM      9  N   UNL     1       2.532   6.413  19.388  0.00  0.00    +0.000 N 
ENDROOT
BRANCH   1  11
ATOM     10  C   UNL     1       6.928   4.624  15.146  0.00  0.00    +0.000 C 
ATOM     11  O   UNL     1       5.512   4.480  15.185  0.00  0.00    +0.000 OA
ENDBRANCH   1  11
BRANCH   7  12
ATOM     12  C   UNL     1       1.124   3.160  18.305  0.00  0.00    +0.000 C 
BRANCH  12  13
ATOM     13  C   UNL     1       1.608   2.003  19.187  0.00  0.00    +0.000 C 
BRANCH  13  14
ATOM     14  N   UNL     1       2.930   2.239  19.743  0.00  0.00    +0.000 N 
ATOM     15  C   UNL     1       4.026   1.590  19.293  0.00  0.00    +0.000 C 
ATOM     16  N   UNL     1       4.135   0.806  18.284  0.00  0.00    +0.000 NA
ATOM     17  N   UNL     1       5.113   1.864  20.036  0.00  0.00    +0.000 N 
ATOM     18  H   UNL     1       2.941   2.338  20.753  0.00  0.00    +0.000 HD
ATOM     19  H   UNL     1       3.232   0.699  17.828  0.00  0.00    +0.000 HD
ATOM     20  H   UNL     1       5.225   2.857  20.202  0.00  0.00    +0.000 HD
ATOM     21  H   UNL     1       5.934   1.491  19.567  0.00  0.00    +0.000 HD
ENDBRANCH  13  14
ENDBRANCH  12  13
ENDBRANCH   7  12
BRANCH   9  22
ATOM     22  C   UNL     1       2.498   7.626  20.200  0.00  0.00    +0.000 C 
BRANCH  22  23
ATOM     23  C   UNL     1       1.467   8.599  19.679  0.00  0.00    +0.000 A 
ATOM     24  C   UNL     1       1.351   8.845  18.306  0.00  0.00    +0.000 A 
ATOM     25  C   UNL     1       0.483   9.831  17.833  0.00  0.00    +0.000 A 
ATOM     26  C   UNL     1      -0.285  10.582  18.727  0.00  0.00    +0.000 A 
ATOM     27 CL   UNL     1      -1.281  11.834  18.074  0.00  0.00    +0.000 Cl
ATOM     28  C   UNL     1      -0.213  10.316  20.097  0.00  0.00    +0.000 A 
ATOM     29 CL   UNL     1      -1.147  11.185  21.261  0.00  0.00    +0.000 Cl
ATOM     30  C   UNL     1       0.656   9.324  20.568  0.00  0.00    +0.000 A 
ENDBRANCH  22  23
ENDBRANCH   9  22
TORSDOF 6
ENDMDL
