MODEL 1
REMARK VINA RESULT:      -5.1      0.000      0.000
REMARK  Name = 
REMARK  3 active torsions:
REMARK  status: ('A' for Active; 'I' for Inactive)
REMARK    1  A    between atoms: C_1  and  N_2
REMARK    2  A    between atoms: C_7  and  C_8
REMARK    3  A    between atoms: N_9  and  O_10
REMARK                            x       y       z     vdW  Elec       q    Type
REMARK                         _______ _______ _______ _____ _____    ______ ____
ROOT
ATOM      1  C   UNL     1       3.258   1.701  18.268  0.00  0.00    +0.000 C 
ATOM      2  N   UNL     1       2.760   2.815  19.090  0.00  0.00    +0.000 N 
ATOM      3  C   UNL     1       1.583   2.643  19.770  0.00  0.00    +0.000 A 
ATOM      4  C   UNL     1       1.060   3.660  20.568  0.00  0.00    +0.000 A 
ATOM      5  C   UNL     1       1.743   4.865  20.672  0.00  0.00    +0.000 A 
ATOM      6  C   UNL     1       2.938   5.044  19.984  0.00  0.00    +0.000 A 
ATOM      7  C   UNL     1       3.454   4.006  19.184  0.00  0.00    +0.000 A 
ENDROOT
BRANCH   7   8
ATOM      8  C   UNL     1       4.742   4.221  18.460  0.00  0.00    +0.000 C 
ATOM      9  N   UNL     1       5.868   4.074  19.061  0.00  0.00    +0.000 NA
BRANCH   9  10
ATOM     10  O   UNL     1       7.002   4.261  18.421  0.00  0.00    +0.000 OA
ATOM     11  H   UNL     1       7.837   4.260  18.908  0.00  0.00    +0.000 HD
ENDBRANCH   9  10
ENDBRANCH   7   8
TORSDOF 2
ENDMDL
MODEL 2
REMARK VINA RESULT:      -5.0      1.272      1.610
REMARK  Name = 
REMARK  3 active torsions:
REMARK  status: ('A' for Active; 'I' for Inactive)
REMARK    1  A    between atoms: C_1  and  N_2
REMARK    2  A    between atoms: C_7  and  C_8
REMARK    3  A    between atoms: N_9  and  O_10
REMARK                            x       y       z     vdW  Elec       q    Type
REMARK                         _______ _______ _______ _____ _____    ______ ____
ROOT
ATOM      1  C   UNL     1       1.916   4.363  17.688  0.00  0.00    +0.000 C 
ATOM      2  N   UNL     1       2.093   3.752  19.013  0.00  0.00    +0.000 N 
ATOM      3  C   UNL     1       0.986   3.586  19.803  0.00  0.00    +0.000 A 
ATOM      4  C   UNL     1       1.088   3.011  21.070  0.00  0.00    +0.000 A 
ATOM      5  C   UNL     1       2.330   2.603  21.536  0.00  0.00    +0.000 A 
ATOM      6  C   UNL     1       3.457   2.770  20.737  0.00  0.00    +0.000 A 
ATOM      7  C   UNL     1       3.337   3.350  19.460  0.00  0.00    +0.000 A 
ENDROOT
BRANCH   7   8
ATOM      8  C   UNL     1       4.560   3.512  18.621  0.00  0.00    +0.000 C 
ATOM      9  N   UNL     1       5.640   4.002  19.116  0.00  0.00    +0.000 NA
BRANCH   9  10
ATOM     10  O   UNL     1       6.718   4.141  18.375  0.00  0.00    +0.000 OA
ATOM     11  H   UNL     1       7.271   4.928  18.470  0.00  0.00    +0.000 HD
ENDBRANCH   9  10
ENDBRANCH   7   8
TORSDOF 2
ENDMDL
MODEL 3
REMARK VINA RESULT:      -4.9      2.789      4.538
REMARK  Name = 
REMARK  3 active torsions:
REMARK  status: ('A' for Active; 'I' for Inactive)
REMARK    1  A    between atoms: C_1  and  N_2
REMARK    2  A    between atoms: C_7  and  C_8
REMARK    3  A    between atoms: N_9  and  O_10
REMARK                            x       y       z     vdW  Elec       q    Type
REMARK                         _______ _______ _______ _____ _____    ______ ____
ROOT
ATOM      1  C   UNL     1       3.797   5.108  18.532  0.00  0.00    +0.000 C 
ATOM      2  N   UNL     1       4.884   4.904  17.562  0.00  0.00    +0.000 N 
ATOM      3  C   UNL     1       4.549   4.604  16.268  0.00  0.00    +0.000 A 
ATOM      4  C   UNL     1       5.533   4.401  15.301  0.00  0.00    +0.000 A 
ATOM      5  C   UNL     1       6.871   4.502  15.657  0.00  0.00    +0.000 A 
ATOM      6  C   UNL     1       7.215   4.806  16.970  0.00  0.00    +0.000 A 
ATOM      7  C   UNL     1       6.210   5.010  17.935  0.00  0.00    +0.000 A 
ENDROOT
BRANCH   7   8
ATOM      8  C   UNL     1       6.606   5.341  19.335  0.00  0.00    +0.000 C 
ATOM      9  N   UNL     1       7.821   5.198  19.728  0.00  0.00    +0.000 NA
BRANCH   9  10
ATOM     10  O   UNL     1       8.169   5.494  20.962  0.00  0.00    +0.000 OA
ATOM     11  H   UNL     1       7.510   5.472  21.667  0.00  0.00    +0.000 HD
ENDBRANCH   9  10
ENDBRANCH   7   8
TORSDOF 2
ENDMDL
MODEL 4
REMARK VINA RESULT:      -4.9      2.254      3.000
REMARK  Name = 
REMARK  3 active torsions:
REMARK  status: ('A' for Active; 'I' for Inactive)
REMARK    1  A    between atoms: C_1  and  N_2
REMARK    2  A    between atoms: C_7  and  C_8
REMARK    3  A    between atoms: N_9  and  O_10
REMARK                            x       y       z     vdW  Elec       q    Type
REMARK                         _______ _______ _______ _____ _____    ______ ____
ROOT
ATOM      1  C   UNL     1       5.309   4.375  18.607  0.00  0.00    +0.000 C 
ATOM      2  N   UNL     1       3.921   3.890  18.587  0.00  0.00    +0.000 N 
ATOM      3  C   UNL     1       2.972   4.663  17.971  0.00  0.00    +0.000 A 
ATOM      4  C   UNL     1       1.639   4.257  17.918  0.00  0.00    +0.000 A 
ATOM      5  C   UNL     1       1.269   3.051  18.499  0.00  0.00    +0.000 A 
ATOM      6  C   UNL     1       2.229   2.263  19.125  0.00  0.00    +0.000 A 
ATOM      7  C   UNL     1       3.571   2.687  19.169  0.00  0.00    +0.000 A 
ENDROOT
BRANCH   7   8
ATOM      8  C   UNL     1       4.583   1.819  19.842  0.00  0.00    +0.000 C 
ATOM      9  N   UNL     1       4.797   1.914  21.105  0.00  0.00    +0.000 NA
BRANCH   9  10
ATOM     10  O   UNL     1       5.686   1.146  21.697  0.00  0.00    +0.000 OA
ATOM     11  H   UNL     1       6.536   0.975  21.270  0.00  0.00    +0.000 HD
ENDBRANCH   9  10
ENDBRANCH   7   8
TORSDOF 2
ENDMDL
MODEL 5
REMARK VINA RESULT:      -4.9      2.315      3.062
REMARK  Name = 
REMARK  3 active torsions:
REMARK  status: ('A' for Active; 'I' for Inactive)
REMARK    1  A    between atoms: C_1  and  N_2
REMARK    2  A    between atoms: C_7  and  C_8
REMARK    3  A    between atoms: N_9  and  O_10
REMARK                            x       y       z     vdW  Elec       q    Type
REMARK                         _______ _______ _______ _____ _____    ______ ____
ROOT
ATOM      1  C   UNL     1       1.232   3.119  21.071  0.00  0.00    +0.000 C 
ATOM      2  N   UNL     1       1.972   3.253  19.808  0.00  0.00    +0.000 N 
ATOM      3  C   UNL     1       1.343   3.855  18.749  0.00  0.00    +0.000 A 
ATOM      4  C   UNL     1       1.993   4.014  17.525  0.00  0.00    +0.000 A 
ATOM      5  C   UNL     1       3.294   3.553  17.378  0.00  0.00    +0.000 A 
ATOM      6  C   UNL     1       3.935   2.940  18.449  0.00  0.00    +0.000 A 
ATOM      7  C   UNL     1       3.267   2.789  19.680  0.00  0.00    +0.000 A 
ENDROOT
BRANCH   7   8
ATOM      8  C   UNL     1       3.980   2.135  20.816  0.00  0.00    +0.000 C 
ATOM      9  N   UNL     1       5.180   1.698  20.677  0.00  0.00    +0.000 NA
BRANCH   9  10
ATOM     10  O   UNL     1       5.809   1.124  21.680  0.00  0.00    +0.000 OA
ATOM     11  H   UNL     1       5.355   0.997  22.524  0.00  0.00    +0.000 HD
ENDBRANCH   9  10
ENDBRANCH   7   8
TORSDOF 2
ENDMDL
MODEL 6
REMARK VINA RESULT:      -4.9      4.126      5.188
REMARK  Name = 
REMARK  3 active torsions:
REMARK  status: ('A' for Active; 'I' for Inactive)
REMARK    1  A    between atoms: C_1  and  N_2
REMARK    2  A    between atoms: C_7  and  C_8
REMARK    3  A    between atoms: N_9  and  O_10
REMARK                            x       y       z     vdW  Elec       q    Type
REMARK                         _______ _______ _______ _____ _____    ______ ____
ROOT
ATOM      1  C   UNL     1       4.509   6.955  17.758  0.00  0.00    +0.000 C 
ATOM      2  N   UNL     1       5.391   6.074  16.977  0.00  0.00    +0.000 N 
ATOM      3  C   UNL     1       5.171   5.967  15.629  0.00  0.00    +0.000 A 
ATOM      4  C   UNL     1       5.974   5.149  14.834  0.00  0.00    +0.000 A 
ATOM      5  C   UNL     1       7.009   4.433  15.420  0.00  0.00    +0.000 A 
ATOM      6  C   UNL     1       7.236   4.539  16.788  0.00  0.00    +0.000 A 
ATOM      7  C   UNL     1       6.417   5.371  17.577  0.00  0.00    +0.000 A 
ENDROOT
BRANCH   7   8
ATOM      8  C   UNL     1       6.685   5.471  19.041  0.00  0.00    +0.000 C 
ATOM      9  N   UNL     1       7.877   5.340  19.505  0.00  0.00    +0.000 NA
BRANCH   9  10
ATOM     10  O   UNL     1       8.112   5.433  20.796  0.00  0.00    +0.000 OA
ATOM     11  H   UNL     1       7.374   5.456  21.420  0.00  0.00    +0.000 HD
ENDBRANCH   9  10
ENDBRANCH   7   8
TORSDOF 2
ENDMDL
MODEL 7
REMARK VINA RESULT:      -4.9      1.611      1.751
REMARK  Name = 
REMARK  3 active torsions:
REMARK  status: ('A' for Active; 'I' for Inactive)
REMARK    1  A    between atoms: C_1  and  N_2
REMARK    2  A    between atoms: C_7  and  C_8
REMARK    3  A    between atoms: N_9  and  O_10
REMARK                            x       y       z     vdW  Elec       q    Type
REMARK                         _______ _______ _______ _____ _____    ______ ____
ROOT
ATOM      1  C   UNL     1       4.414   2.062  20.072  0.00  0.00    +0.000 C 
ATOM      2  N   UNL     1       3.607   3.007  19.285  0.00  0.00    +0.000 N 
ATOM      3  C   UNL     1       2.265   2.764  19.160  0.00  0.00    +0.000 A 
ATOM      4  C   UNL     1       1.445   3.624  18.428  0.00  0.00    +0.000 A 
ATOM      5  C   UNL     1       2.000   4.739  17.816  0.00  0.00    +0.000 A 
ATOM      6  C   UNL     1       3.363   4.989  17.940  0.00  0.00    +0.000 A 
ATOM      7  C   UNL     1       4.177   4.113  18.685  0.00  0.00    +0.000 A 
ENDROOT
BRANCH   7   8
ATOM      8  C   UNL     1       5.635   4.407  18.807  0.00  0.00    +0.000 C 
ATOM      9  N   UNL     1       6.076   5.180  19.734  0.00  0.00    +0.000 NA
BRANCH   9  10
ATOM     10  O   UNL     1       7.362   5.436  19.843  0.00  0.00    +0.000 OA
ATOM     11  H   UNL     1       7.989   5.020  19.236  0.00  0.00    +0.000 HD
ENDBRANCH   9  10
ENDBRANCH   7   8
TORSDOF 2
ENDMDL
MODEL 8
REMARK VINA RESULT:      -4.8      1.138      2.045
REMARK  Name = 
REMARK  3 active torsions:
REMARK  status: ('A' for Active; 'I' for Inactive)
REMARK    1  A    between atoms: C_1  and  N_2
REMARK    2  A    between atoms: C_7  and  C_8
REMARK    3  A    between atoms: N_9  and  O_10
REMARK                            x       y       z     vdW  Elec       q    Type
REMARK                         _______ _______ _______ _____ _____    ______ ____
ROOT
ATOM      1  C   UNL     1       2.985   6.229  18.730  0.00  0.00    +0.000 C 
ATOM      2  N   UNL     1       2.716   4.972  19.445  0.00  0.00    +0.000 N 
ATOM      3  C   UNL     1       1.577   4.888  20.203  0.00  0.00    +0.000 A 
ATOM      4  C   UNL     1       1.266   3.723  20.903  0.00  0.00    +0.000 A 
ATOM      5  C   UNL     1       2.124   2.634  20.832  0.00  0.00    +0.000 A 
ATOM      6  C   UNL     1       3.281   2.715  20.064  0.00  0.00    +0.000 A 
ATOM      7  C   UNL     1       3.580   3.898  19.361  0.00  0.00    +0.000 A 
ENDROOT
BRANCH   7   8
ATOM      8  C   UNL     1       4.825   3.957  18.539  0.00  0.00    +0.000 C 
ATOM      9  N   UNL     1       5.964   4.196  19.084  0.00  0.00    +0.000 NA
BRANCH   9  10
ATOM     10  O   UNL     1       7.061   4.244  18.359  0.00  0.00    +0.000 OA
ATOM     11  H   UNL     1       7.416   3.434  17.968  0.00  0.00    +0.000 HD
ENDBRANCH   9  10
ENDBRANCH   7   8
TORSDOF 2
ENDMDL
MODEL 9
REMARK VINA RESULT:      -4.8      1.847      2.332
REMARK  Name = 
REMARK  3 active torsions:
REMARK  status: ('A' for Active; 'I' for Inactive)
REMARK    1  A    between atoms: C_1  and  N_2
REMARK    2  A    between atoms: C_7  and  C_8
REMARK    3  A    between atoms: N_9  and  O_10
REMARK                            x       y       z     vdW  Elec       q    Type
REMARK                         _______ _______ _______ _____ _____    ______ ____
ROOT
ATOM      1  C   UNL     1       4.515   2.698  19.717  0.00  0.00    +0.000 C 
ATOM      2  N   UNL     1       4.039   3.934  19.080  0.00  0.00    +0.000 N 
ATOM      3  C   UNL     1       2.691   4.085  18.884  0.00  0.00    +0.000 A 
ATOM      4  C   UNL     1       2.177   5.235  18.286  0.00  0.00    +0.000 A 
ATOM      5  C   UNL     1       3.045   6.241  17.882  0.00  0.00    +0.000 A 
ATOM      6  C   UNL     1       4.414   6.092  18.079  0.00  0.00    +0.000 A 
ATOM      7  C   UNL     1       4.917   4.925  18.686  0.00  0.00    +0.000 A 
ENDROOT
BRANCH   7   8
ATOM      8  C   UNL     1       6.390   4.793  18.890  0.00  0.00    +0.000 C 
ATOM      9  N   UNL     1       6.991   5.463  19.807  0.00  0.00    +0.000 NA
BRANCH   9  10
ATOM     10  O   UNL     1       8.288   5.343  19.989  0.00  0.00    +0.000 OA
ATOM     11  H   UNL     1       8.849   6.130  19.996  0.00  0.00    +0.000 HD
ENDBRANCH   9  10
ENDBRANCH   7   8
TORSDOF 2
ENDMDL
