MODEL 1
REMARK VINA RESULT:      -7.4      0.000      0.000
REMARK  Name = 
REMARK  5 active torsions:
REMARK  status: ('A' for Active; 'I' for Inactive)
REMARK    1  A    between atoms: C_1  and  C_2
REMARK    2  A    between atoms: C_2  and  N_3
REMARK    3  A    between atoms: C_5  and  C_6
REMARK    4  A    between atoms: C_6  and  O_8
REMARK    5  A    between atoms: C_15  and  N_16
REMARK                            x       y       z     vdW  Elec       q    Type
REMARK                         _______ _______ _______ _____ _____    ______ ____
ROOT
ATOM      1  N   UNL     1       6.772   5.513  17.106  0.00  0.00    +0.000 N 
ATOM      2  C   UNL     1       7.375   5.523  15.851  0.00  0.00    +0.000 A 
ATOM      3  C   UNL     1       6.869   5.018  14.715  0.00  0.00    +0.000 A 
ATOM      4  C   UNL     1       5.544   4.387  14.806  0.00  0.00    +0.000 A 
ATOM      5  O   UNL     1       4.978   3.987  13.791  0.00  0.00    +0.000 OA
ATOM      6  C   UNL     1       4.944   4.215  16.145  0.00  0.00    +0.000 A 
ATOM      7  C   UNL     1       3.792   3.429  16.247  0.00  0.00    +0.000 A 
ATOM      8  C   UNL     1       3.247   3.187  17.494  0.00  0.00    +0.000 A 
ATOM      9  F   UNL     1       2.146   2.428  17.556  0.00  0.00    +0.000 F 
ATOM     10  C   UNL     1       3.800   3.767  18.635  0.00  0.00    +0.000 A 
ATOM     11  C   UNL     1       4.933   4.600  18.517  0.00  0.00    +0.000 A 
ATOM     12  C   UNL     1       5.561   4.801  17.274  0.00  0.00    +0.000 A 
ENDROOT
BRANCH  10  13
ATOM     13  N   UNL     1       3.240   3.498  19.906  0.00  0.00    +0.000 N 
ATOM     14  C   UNL     1       2.308   4.254  20.581  0.00  0.00    +0.000 A 
ATOM     15  C   UNL     1       2.054   3.580  21.752  0.00  0.00    +0.000 A 
ATOM     16  N   UNL     1       2.836   2.465  21.849  0.00  0.00    +0.000 NA
ATOM     17  C   UNL     1       3.533   2.438  20.735  0.00  0.00    +0.000 A 
ENDBRANCH  10  13
BRANCH   1  19
ATOM     18  C   UNL     1       7.870   7.556  17.985  0.00  0.00    +0.000 C 
ATOM     19  C   UNL     1       7.453   6.119  18.267  0.00  0.00    +0.000 C 
ENDBRANCH   1  19
BRANCH   3  20
ATOM     20  C   UNL     1       7.642   5.093  13.459  0.00  0.00    +0.000 C 
ATOM     21  O   UNL     1       8.602   5.838  13.308  0.00  0.00    +0.000 OA
BRANCH  20  22
ATOM     22  O   UNL     1       7.220   4.260  12.486  0.00  0.00    +0.000 OA
ATOM     23  H   UNL     1       6.304   4.445  12.161  0.00  0.00    +0.000 HD
ENDBRANCH  20  22
ENDBRANCH   3  20
TORSDOF 4
ENDMDL
MODEL 2
REMARK VINA RESULT:      -6.9      4.470      6.060
REMARK  Name = 
REMARK  5 active torsions:
REMARK  status: ('A' for Active; 'I' for Inactive)
REMARK    1  A    between atoms: C_1  and  C_2
REMARK    2  A    between atoms: C_2  and  N_3
REMARK    3  A    between atoms: C_5  and  C_6
REMARK    4  A    between atoms: C_6  and  O_8
REMARK    5  A    between atoms: C_15  and  N_16
REMARK                            x       y       z     vdW  Elec       q    Type
REMARK                         _______ _______ _______ _____ _____    ______ ____
ROOT
ATOM      1  N   UNL     1       2.653   5.010  20.088  0.00  0.00    +0.000 N 
ATOM      2  C   UNL     1       3.248   4.040  19.283  0.00  0.00    +0.000 A 
ATOM      3  C   UNL     1       3.832   4.237  18.092  0.00  0.00    +0.000 A 
ATOM      4  C   UNL     1       3.844   5.616  17.582  0.00  0.00    +0.000 A 
ATOM      5  O   UNL     1       4.443   5.888  16.543  0.00  0.00    +0.000 OA
ATOM      6  C   UNL     1       3.086   6.642  18.328  0.00  0.00    +0.000 A 
ATOM      7  C   UNL     1       2.923   7.895  17.730  0.00  0.00    +0.000 A 
ATOM      8  C   UNL     1       2.158   8.854  18.367  0.00  0.00    +0.000 A 
ATOM      9  F   UNL     1       2.020  10.042  17.765  0.00  0.00    +0.000 F 
ATOM     10  C   UNL     1       1.602   8.600  19.621  0.00  0.00    +0.000 A 
ATOM     11  C   UNL     1       1.814   7.351  20.240  0.00  0.00    +0.000 A 
ATOM     12  C   UNL     1       2.519   6.325  19.583  0.00  0.00    +0.000 A 
ENDROOT
BRANCH  10  13
ATOM     13  N   UNL     1       0.809   9.586  20.254  0.00  0.00    +0.000 N 
ATOM     14  C   UNL     1      -0.354  10.149  19.777  0.00  0.00    +0.000 A 
ATOM     15  C   UNL     1      -0.771  11.029  20.749  0.00  0.00    +0.000 A 
ATOM     16  N   UNL     1       0.122  11.071  21.780  0.00  0.00    +0.000 NA
ATOM     17  C   UNL     1       1.054  10.200  21.461  0.00  0.00    +0.000 A 
ENDBRANCH  10  13
BRANCH   1  19
ATOM     18  C   UNL     1       1.948   3.128  21.542  0.00  0.00    +0.000 C 
ATOM     19  C   UNL     1       2.055   4.639  21.385  0.00  0.00    +0.000 C 
ENDBRANCH   1  19
BRANCH   3  20
ATOM     20  C   UNL     1       4.407   3.098  17.349  0.00  0.00    +0.000 C 
ATOM     21  O   UNL     1       3.924   1.973  17.369  0.00  0.00    +0.000 OA
BRANCH  20  22
ATOM     22  O   UNL     1       5.508   3.393  16.626  0.00  0.00    +0.000 OA
ATOM     23  H   UNL     1       6.007   2.601  16.306  0.00  0.00    +0.000 HD
ENDBRANCH  20  22
ENDBRANCH   3  20
TORSDOF 4
ENDMDL
MODEL 3
REMARK VINA RESULT:      -6.7      4.572      6.027
REMARK  Name = 
REMARK  5 active torsions:
REMARK  status: ('A' for Active; 'I' for Inactive)
REMARK    1  A    between atoms: C_1  and  C_2
REMARK    2  A    between atoms: C_2  and  N_3
REMARK    3  A    between atoms: C_5  and  C_6
REMARK    4  A    between atoms: C_6  and  O_8
REMARK    5  A    between atoms: C_15  and  N_16
REMARK                            x       y       z     vdW  Elec       q    Type
REMARK                         _______ _______ _______ _____ _____    ______ ____
ROOT
ATOM      1  N   UNL     1       2.783   5.212  19.823  0.00  0.00    +0.000 N 
ATOM      2  C   UNL     1       3.455   4.306  19.006  0.00  0.00    +0.000 A 
ATOM      3  C   UNL     1       4.075   4.580  17.848  0.00  0.00    +0.000 A 
ATOM      4  C   UNL     1       4.038   5.978  17.394  0.00  0.00    +0.000 A 
ATOM      5  O   UNL     1       4.663   6.320  16.392  0.00  0.00    +0.000 OA
ATOM      6  C   UNL     1       3.201   6.934  18.148  0.00  0.00    +0.000 A 
ATOM      7  C   UNL     1       3.000   8.202  17.594  0.00  0.00    +0.000 A 
ATOM      8  C   UNL     1       2.164   9.096  18.237  0.00  0.00    +0.000 A 
ATOM      9  F   UNL     1       1.991  10.300  17.677  0.00  0.00    +0.000 F 
ATOM     10  C   UNL     1       1.574   8.764  19.456  0.00  0.00    +0.000 A 
ATOM     11  C   UNL     1       1.823   7.502  20.033  0.00  0.00    +0.000 A 
ATOM     12  C   UNL     1       2.604   6.539  19.366  0.00  0.00    +0.000 A 
ENDROOT
BRANCH  10  13
ATOM     13  N   UNL     1       0.709   9.684  20.094  0.00  0.00    +0.000 N 
ATOM     14  C   UNL     1       0.867  10.246  21.341  0.00  0.00    +0.000 A 
ATOM     15  C   UNL     1      -0.205  11.091  21.511  0.00  0.00    +0.000 A 
ATOM     16  N   UNL     1      -1.047  11.028  20.438  0.00  0.00    +0.000 NA
ATOM     17  C   UNL     1      -0.478  10.184  19.607  0.00  0.00    +0.000 A 
ENDBRANCH  10  13
BRANCH   1  19
ATOM     18  C   UNL     1       1.236   3.567  20.850  0.00  0.00    +0.000 C 
ATOM     19  C   UNL     1       2.154   4.760  21.080  0.00  0.00    +0.000 C 
ENDBRANCH   1  19
BRANCH   3  20
ATOM     20  C   UNL     1       4.734   3.501  17.085  0.00  0.00    +0.000 C 
ATOM     21  O   UNL     1       5.526   3.712  16.175  0.00  0.00    +0.000 OA
BRANCH  20  22
ATOM     22  O   UNL     1       4.408   2.252  17.478  0.00  0.00    +0.000 OA
ATOM     23  H   UNL     1       3.486   2.162  17.823  0.00  0.00    +0.000 HD
ENDBRANCH  20  22
ENDBRANCH   3  20
TORSDOF 4
ENDMDL
MODEL 4
REMARK VINA RESULT:      -6.7      4.817      6.303
REMARK  Name = 
REMARK  5 active torsions:
REMARK  status: ('A' for Active; 'I' for Inactive)
REMARK    1  A    between atoms: C_1  and  C_2
REMARK    2  A    between atoms: C_2  and  N_3
REMARK    3  A    between atoms: C_5  and  C_6
REMARK    4  A    between atoms: C_6  and  O_8
REMARK    5  A    between atoms: C_15  and  N_16
REMARK                            x       y       z     vdW  Elec       q    Type
REMARK                         _______ _______ _______ _____ _____    ______ ____
ROOT
ATOM      1  N   UNL     1       3.987   5.576  18.119  0.00  0.00    +0.000 N 
ATOM      2  C   UNL     1       4.414   4.292  18.446  0.00  0.00    +0.000 A 
ATOM      3  C   UNL     1       3.898   3.494  19.394  0.00  0.00    +0.000 A 
ATOM      4  C   UNL     1       2.769   4.030  20.166  0.00  0.00    +0.000 A 
ATOM      5  O   UNL     1       2.185   3.322  20.984  0.00  0.00    +0.000 OA
ATOM      6  C   UNL     1       2.391   5.444  19.958  0.00  0.00    +0.000 A 
ATOM      7  C   UNL     1       1.464   6.007  20.840  0.00  0.00    +0.000 A 
ATOM      8  C   UNL     1       1.143   7.346  20.719  0.00  0.00    +0.000 A 
ATOM      9  F   UNL     1       0.254   7.855  21.582  0.00  0.00    +0.000 F 
ATOM     10  C   UNL     1       1.689   8.117  19.692  0.00  0.00    +0.000 A 
ATOM     11  C   UNL     1       2.584   7.527  18.776  0.00  0.00    +0.000 A 
ATOM     12  C   UNL     1       2.994   6.188  18.919  0.00  0.00    +0.000 A 
ENDROOT
BRANCH  10  13
ATOM     13  N   UNL     1       1.362   9.490  19.591  0.00  0.00    +0.000 N 
ATOM     14  C   UNL     1       1.291  10.245  18.442  0.00  0.00    +0.000 A 
ATOM     15  C   UNL     1       0.914  11.505  18.843  0.00  0.00    +0.000 A 
ATOM     16  N   UNL     1       0.803  11.569  20.202  0.00  0.00    +0.000 NA
ATOM     17  C   UNL     1       1.075  10.354  20.624  0.00  0.00    +0.000 A 
ENDBRANCH  10  13
BRANCH   1  19
ATOM     18  C   UNL     1       5.199   5.406  15.961  0.00  0.00    +0.000 C 
ATOM     19  C   UNL     1       4.653   6.332  17.040  0.00  0.00    +0.000 C 
ENDBRANCH   1  19
BRANCH   3  20
ATOM     20  C   UNL     1       4.476   2.156  19.633  0.00  0.00    +0.000 C 
ATOM     21  O   UNL     1       5.173   1.892  20.605  0.00  0.00    +0.000 OA
BRANCH  20  22
ATOM     22  O   UNL     1       4.163   1.231  18.702  0.00  0.00    +0.000 OA
ATOM     23  H   UNL     1       3.201   1.188  18.479  0.00  0.00    +0.000 HD
ENDBRANCH  20  22
ENDBRANCH   3  20
TORSDOF 4
ENDMDL
MODEL 5
REMARK VINA RESULT:      -6.6      4.591      7.307
REMARK  Name = 
REMARK  5 active torsions:
REMARK  status: ('A' for Active; 'I' for Inactive)
REMARK    1  A    between atoms: C_1  and  C_2
REMARK    2  A    between atoms: C_2  and  N_3
REMARK    3  A    between atoms: C_5  and  C_6
REMARK    4  A    between atoms: C_6  and  O_8
REMARK    5  A    between atoms: C_15  and  N_16
REMARK                            x       y       z     vdW  Elec       q    Type
REMARK                         _______ _______ _______ _____ _____    ______ ____
ROOT
ATOM      1  N   UNL     1       2.228   5.584  20.386  0.00  0.00    +0.000 N 
ATOM      2  C   UNL     1       1.474   6.498  21.117  0.00  0.00    +0.000 A 
ATOM      3  C   UNL     1       1.186   7.761  20.765  0.00  0.00    +0.000 A 
ATOM      4  C   UNL     1       1.723   8.226  19.478  0.00  0.00    +0.000 A 
ATOM      5  O   UNL     1       1.423   9.338  19.047  0.00  0.00    +0.000 OA
ATOM      6  C   UNL     1       2.658   7.342  18.752  0.00  0.00    +0.000 A 
ATOM      7  C   UNL     1       3.329   7.871  17.645  0.00  0.00    +0.000 A 
ATOM      8  C   UNL     1       4.264   7.095  16.987  0.00  0.00    +0.000 A 
ATOM      9  F   UNL     1       4.890   7.634  15.933  0.00  0.00    +0.000 F 
ATOM     10  C   UNL     1       4.496   5.778  17.380  0.00  0.00    +0.000 A 
ATOM     11  C   UNL     1       3.779   5.235  18.466  0.00  0.00    +0.000 A 
ATOM     12  C   UNL     1       2.879   6.023  19.209  0.00  0.00    +0.000 A 
ENDROOT
BRANCH  10  13
ATOM     13  N   UNL     1       5.468   5.001  16.706  0.00  0.00    +0.000 N 
ATOM     14  C   UNL     1       5.271   4.193  15.609  0.00  0.00    +0.000 A 
ATOM     15  C   UNL     1       6.506   3.671  15.301  0.00  0.00    +0.000 A 
ATOM     16  N   UNL     1       7.445   4.083  16.201  0.00  0.00    +0.000 NA
ATOM     17  C   UNL     1       6.801   4.876  17.028  0.00  0.00    +0.000 A 
ENDBRANCH  10  13
BRANCH   1  19
ATOM     18  C   UNL     1       1.264   3.310  20.625  0.00  0.00    +0.000 C 
ATOM     19  C   UNL     1       2.454   4.219  20.903  0.00  0.00    +0.000 C 
ENDBRANCH   1  19
BRANCH   3  20
ATOM     20  C   UNL     1       0.382   8.616  21.660  0.00  0.00    +0.000 C 
ATOM     21  O   UNL     1      -0.772   8.355  21.978  0.00  0.00    +0.000 OA
BRANCH  20  22
ATOM     22  O   UNL     1       1.023   9.711  22.121  0.00  0.00    +0.000 OA
ATOM     23  H   UNL     1       1.993   9.584  22.261  0.00  0.00    +0.000 HD
ENDBRANCH  20  22
ENDBRANCH   3  20
TORSDOF 4
ENDMDL
MODEL 6
REMARK VINA RESULT:      -6.5      5.701      7.178
REMARK  Name = 
REMARK  5 active torsions:
REMARK  status: ('A' for Active; 'I' for Inactive)
REMARK    1  A    between atoms: C_1  and  C_2
REMARK    2  A    between atoms: C_2  and  N_3
REMARK    3  A    between atoms: C_5  and  C_6
REMARK    4  A    between atoms: C_6  and  O_8
REMARK    5  A    between atoms: C_15  and  N_16
REMARK                            x       y       z     vdW  Elec       q    Type
REMARK                         _______ _______ _______ _____ _____    ______ ____
ROOT
ATOM      1  N   UNL     1       0.652   9.457  21.127  0.00  0.00    +0.000 N 
ATOM      2  C   UNL     1       0.857  10.736  20.615  0.00  0.00    +0.000 A 
ATOM      3  C   UNL     1       1.384  11.045  19.420  0.00  0.00    +0.000 A 
ATOM      4  C   UNL     1       1.787   9.919  18.565  0.00  0.00    +0.000 A 
ATOM      5  O   UNL     1       2.189  10.122  17.421  0.00  0.00    +0.000 OA
ATOM      6  C   UNL     1       1.734   8.556  19.135  0.00  0.00    +0.000 A 
ATOM      7  C   UNL     1       2.315   7.519  18.399  0.00  0.00    +0.000 A 
ATOM      8  C   UNL     1       2.348   6.246  18.936  0.00  0.00    +0.000 A 
ATOM      9  F   UNL     1       2.915   5.276  18.207  0.00  0.00    +0.000 F 
ATOM     10  C   UNL     1       1.755   5.981  20.170  0.00  0.00    +0.000 A 
ATOM     11  C   UNL     1       1.125   7.023  20.882  0.00  0.00    +0.000 A 
ATOM     12  C   UNL     1       1.145   8.346  20.402  0.00  0.00    +0.000 A 
ENDROOT
BRANCH  10  13
ATOM     13  N   UNL     1       1.809   4.675  20.713  0.00  0.00    +0.000 N 
ATOM     14  C   UNL     1       0.998   3.609  20.398  0.00  0.00    +0.000 A 
ATOM     15  C   UNL     1       1.449   2.555  21.158  0.00  0.00    +0.000 A 
ATOM     16  N   UNL     1       2.473   2.947  21.971  0.00  0.00    +0.000 NA
ATOM     17  C   UNL     1       2.669   4.215  21.685  0.00  0.00    +0.000 A 
ENDBRANCH  10  13
BRANCH   1  19
ATOM     18  C   UNL     1      -0.783  10.482  22.872  0.00  0.00    +0.000 C 
ATOM     19  C   UNL     1       0.052   9.275  22.463  0.00  0.00    +0.000 C 
ENDBRANCH   1  19
BRANCH   3  20
ATOM     20  C   UNL     1       1.552  12.458  19.025  0.00  0.00    +0.000 C 
ATOM     21  O   UNL     1       2.303  13.230  19.607  0.00  0.00    +0.000 OA
BRANCH  20  22
ATOM     22  O   UNL     1       0.821  12.836  17.956  0.00  0.00    +0.000 OA
ATOM     23  H   UNL     1       0.737  12.142  17.256  0.00  0.00    +0.000 HD
ENDBRANCH  20  22
ENDBRANCH   3  20
TORSDOF 4
ENDMDL
MODEL 7
REMARK VINA RESULT:      -6.5      4.896      6.392
REMARK  Name = 
REMARK  5 active torsions:
REMARK  status: ('A' for Active; 'I' for Inactive)
REMARK    1  A    between atoms: C_1  and  C_2
REMARK    2  A    between atoms: C_2  and  N_3
REMARK    3  A    between atoms: C_5  and  C_6
REMARK    4  A    between atoms: C_6  and  O_8
REMARK    5  A    between atoms: C_15  and  N_16
REMARK                            x       y       z     vdW  Elec       q    Type
REMARK                         _______ _______ _______ _____ _____    ______ ____
ROOT
ATOM      1  N   UNL     1       3.686   5.789  17.921  0.00  0.00    +0.000 N 
ATOM      2  C   UNL     1       4.090   4.477  18.158  0.00  0.00    +0.000 A 
ATOM      3  C   UNL     1       3.610   3.650  19.100  0.00  0.00    +0.000 A 
ATOM      4  C   UNL     1       2.554   4.184  19.971  0.00  0.00    +0.000 A 
ATOM      5  O   UNL     1       2.002   3.455  20.794  0.00  0.00    +0.000 OA
ATOM      6  C   UNL     1       2.213   5.617  19.857  0.00  0.00    +0.000 A 
ATOM      7  C   UNL     1       1.367   6.165  20.826  0.00  0.00    +0.000 A 
ATOM      8  C   UNL     1       1.087   7.518  20.790  0.00  0.00    +0.000 A 
ATOM      9  F   UNL     1       0.276   8.012  21.735  0.00  0.00    +0.000 F 
ATOM     10  C   UNL     1       1.589   8.321  19.766  0.00  0.00    +0.000 A 
ATOM     11  C   UNL     1       2.400   7.749  18.764  0.00  0.00    +0.000 A 
ATOM     12  C   UNL     1       2.772   6.392  18.816  0.00  0.00    +0.000 A 
ENDROOT
BRANCH  10  13
ATOM     13  N   UNL     1       1.305   9.707  19.752  0.00  0.00    +0.000 N 
ATOM     14  C   UNL     1       1.082  10.521  20.840  0.00  0.00    +0.000 A 
ATOM     15  C   UNL     1       0.879  11.782  20.330  0.00  0.00    +0.000 A 
ATOM     16  N   UNL     1       0.913  11.764  18.966  0.00  0.00    +0.000 NA
ATOM     17  C   UNL     1       1.170  10.516  18.646  0.00  0.00    +0.000 A 
ENDBRANCH  10  13
BRANCH   1  19
ATOM     18  C   UNL     1       5.263   5.730  16.006  0.00  0.00    +0.000 C 
ATOM     19  C   UNL     1       4.306   6.576  16.836  0.00  0.00    +0.000 C 
ENDBRANCH   1  19
BRANCH   3  20
ATOM     20  C   UNL     1       4.155   2.284  19.236  0.00  0.00    +0.000 C 
ATOM     21  O   UNL     1       3.703   1.320  18.631  0.00  0.00    +0.000 OA
BRANCH  20  22
ATOM     22  O   UNL     1       5.208   2.177  20.072  0.00  0.00    +0.000 OA
ATOM     23  H   UNL     1       6.046   1.885  19.635  0.00  0.00    +0.000 HD
ENDBRANCH  20  22
ENDBRANCH   3  20
TORSDOF 4
ENDMDL
MODEL 8
REMARK VINA RESULT:      -6.4      3.820      4.797
REMARK  Name = 
REMARK  5 active torsions:
REMARK  status: ('A' for Active; 'I' for Inactive)
REMARK    1  A    between atoms: C_1  and  C_2
REMARK    2  A    between atoms: C_2  and  N_3
REMARK    3  A    between atoms: C_5  and  C_6
REMARK    4  A    between atoms: C_6  and  O_8
REMARK    5  A    between atoms: C_15  and  N_16
REMARK                            x       y       z     vdW  Elec       q    Type
REMARK                         _______ _______ _______ _____ _____    ______ ____
ROOT
ATOM      1  N   UNL     1       4.144   4.743  18.774  0.00  0.00    +0.000 N 
ATOM      2  C   UNL     1       4.936   4.207  17.761  0.00  0.00    +0.000 A 
ATOM      3  C   UNL     1       5.393   4.852  16.677  0.00  0.00    +0.000 A 
ATOM      4  C   UNL     1       5.018   6.267  16.543  0.00  0.00    +0.000 A 
ATOM      5  O   UNL     1       5.477   6.946  15.626  0.00  0.00    +0.000 OA
ATOM      6  C   UNL     1       4.051   6.827  17.510  0.00  0.00    +0.000 A 
ATOM      7  C   UNL     1       3.536   8.101  17.254  0.00  0.00    +0.000 A 
ATOM      8  C   UNL     1       2.575   8.624  18.098  0.00  0.00    +0.000 A 
ATOM      9  F   UNL     1       2.101   9.846  17.822  0.00  0.00    +0.000 F 
ATOM     10  C   UNL     1       2.163   7.918  19.228  0.00  0.00    +0.000 A 
ATOM     11  C   UNL     1       2.725   6.655  19.507  0.00  0.00    +0.000 A 
ATOM     12  C   UNL     1       3.645   6.059  18.625  0.00  0.00    +0.000 A 
ENDROOT
BRANCH  10  13
ATOM     13  N   UNL     1       1.167   8.460  20.075  0.00  0.00    +0.000 N 
ATOM     14  C   UNL     1       0.786   7.996  21.314  0.00  0.00    +0.000 A 
ATOM     15  C   UNL     1      -0.189   8.859  21.755  0.00  0.00    +0.000 A 
ATOM     16  N   UNL     1      -0.463   9.806  20.810  0.00  0.00    +0.000 NA
ATOM     17  C   UNL     1       0.360   9.546  19.818  0.00  0.00    +0.000 A 
ENDBRANCH  10  13
BRANCH   1  19
ATOM     18  C   UNL     1       4.326   2.509  19.836  0.00  0.00    +0.000 C 
ATOM     19  C   UNL     1       3.724   3.906  19.915  0.00  0.00    +0.000 C 
ENDBRANCH   1  19
BRANCH   3  20
ATOM     20  C   UNL     1       6.215   4.138  15.679  0.00  0.00    +0.000 C 
ATOM     21  O   UNL     1       5.788   3.213  14.999  0.00  0.00    +0.000 OA
BRANCH  20  22
ATOM     22  O   UNL     1       7.479   4.594  15.558  0.00  0.00    +0.000 OA
ATOM     23  H   UNL     1       8.173   3.895  15.648  0.00  0.00    +0.000 HD
ENDBRANCH  20  22
ENDBRANCH   3  20
TORSDOF 4
ENDMDL
