MODEL 1
REMARK VINA RESULT:      -7.8      0.000      0.000
REMARK  Name = 
REMARK  11 active torsions:
REMARK  status: ('A' for Active; 'I' for Inactive)
REMARK    1  A    between atoms: C_1  and  O_2
REMARK    2  A    between atoms: O_2  and  C_3
REMARK    3  A    between atoms: C_7  and  C_8
REMARK    4  A    between atoms: N_10  and  C_11
REMARK    5  A    between atoms: N_10  and  C_21
REMARK    6  A    between atoms: C_11  and  C_12
REMARK    7  A    between atoms: C_12  and  C_13
REMARK    8  A    between atoms: C_21  and  C_22
REMARK    9  A    between atoms: C_22  and  C_23
REMARK   10  A    between atoms: C_23  and  C_24
REMARK   11  A    between atoms: C_23  and  C_25
REMARK                            x       y       z     vdW  Elec       q    Type
REMARK                         _______ _______ _______ _____ _____    ______ ____
ROOT
ATOM      1  C   UNL     1       4.333   4.105  18.794  0.00  0.00    +0.000 C 
ATOM      2  O   UNL     1       4.215   2.959  19.236  0.00  0.00    +0.000 OA
ATOM      3  N   UNL     1       3.651   5.194  19.382  0.00  0.00    +0.000 N 
ENDROOT
BRANCH   1   8
ATOM      4  C   UNL     1       5.627   4.295  15.231  0.00  0.00    +0.000 A 
ATOM      5  C   UNL     1       6.983   4.525  15.460  0.00  0.00    +0.000 A 
ATOM      6  C   UNL     1       7.448   4.724  16.757  0.00  0.00    +0.000 A 
ATOM      7  C   UNL     1       6.570   4.587  17.832  0.00  0.00    +0.000 A 
ATOM      8  C   UNL     1       5.224   4.241  17.616  0.00  0.00    +0.000 A 
ATOM      9  C   UNL     1       4.749   4.180  16.309  0.00  0.00    +0.000 A 
BRANCH   4  11
ATOM     10  C   UNL     1       6.246   3.639  13.052  0.00  0.00    +0.000 C 
ATOM     11  O   UNL     1       5.258   4.195  13.914  0.00  0.00    +0.000 OA
ENDBRANCH   4  11
ENDBRANCH   1   8
BRANCH   3  12
ATOM     12  C   UNL     1       3.574   6.611  18.925  0.00  0.00    +0.000 C 
BRANCH  12  13
ATOM     13  C   UNL     1       2.221   6.993  18.317  0.00  0.00    +0.000 C 
BRANCH  13  14
ATOM     14  C   UNL     1       1.954   8.506  18.280  0.00  0.00    +0.000 C 
ATOM     15  O   UNL     1       2.222   9.178  17.280  0.00  0.00    +0.000 OA
ATOM     16  N   UNL     1       1.347   9.051  19.409  0.00  0.00    +0.000 N 
ATOM     17  C   UNL     1       0.961  10.474  19.444  0.00  0.00    +0.000 C 
ATOM     18  C   UNL     1      -0.368  10.686  20.210  0.00  0.00    +0.000 C 
ATOM     19  N   UNL     1      -0.392  10.057  21.545  0.00  0.00    +0.000 NA
ATOM     20  C   UNL     1      -0.003   8.640  21.452  0.00  0.00    +0.000 C 
ATOM     21  C   UNL     1       1.333   8.421  20.726  0.00  0.00    +0.000 C 
ATOM     22  H   UNL     1      -1.340  10.116  21.923  0.00  0.00    +0.000 HD
ENDBRANCH  13  14
ENDBRANCH  12  13
ENDBRANCH   3  12
BRANCH   3  23
ATOM     23  C   UNL     1       2.868   4.845  20.582  0.00  0.00    +0.000 C 
BRANCH  23  24
ATOM     24  C   UNL     1       1.370   4.709  20.263  0.00  0.00    +0.000 C 
BRANCH  24  25
ATOM     25  C   UNL     1       0.816   3.277  20.411  0.00  0.00    +0.000 C 
ATOM     26  C   UNL     1       0.869   2.476  19.108  0.00  0.00    +0.000 C 
ATOM     27  C   UNL     1       1.600   2.521  21.490  0.00  0.00    +0.000 C 
ENDBRANCH  24  25
ENDBRANCH  23  24
ENDBRANCH   3  23
TORSDOF 8
ENDMDL
MODEL 2
REMARK VINA RESULT:      -7.8      1.154      1.655
REMARK  Name = 
REMARK  11 active torsions:
REMARK  status: ('A' for Active; 'I' for Inactive)
REMARK    1  A    between atoms: C_1  and  O_2
REMARK    2  A    between atoms: O_2  and  C_3
REMARK    3  A    between atoms: C_7  and  C_8
REMARK    4  A    between atoms: N_10  and  C_11
REMARK    5  A    between atoms: N_10  and  C_21
REMARK    6  A    between atoms: C_11  and  C_12
REMARK    7  A    between atoms: C_12  and  C_13
REMARK    8  A    between atoms: C_21  and  C_22
REMARK    9  A    between atoms: C_22  and  C_23
REMARK   10  A    between atoms: C_23  and  C_24
REMARK   11  A    between atoms: C_23  and  C_25
REMARK                            x       y       z     vdW  Elec       q    Type
REMARK                         _______ _______ _______ _____ _____    ______ ____
ROOT
ATOM      1  C   UNL     1       3.819   3.591  18.105  0.00  0.00    +0.000 C 
ATOM      2  O   UNL     1       3.930   2.378  18.299  0.00  0.00    +0.000 OA
ATOM      3  N   UNL     1       2.553   4.214  18.045  0.00  0.00    +0.000 N 
ENDROOT
BRANCH   1   8
ATOM      4  C   UNL     1       6.864   5.262  16.573  0.00  0.00    +0.000 A 
ATOM      5  C   UNL     1       7.505   5.732  17.719  0.00  0.00    +0.000 A 
ATOM      6  C   UNL     1       6.896   5.601  18.963  0.00  0.00    +0.000 A 
ATOM      7  C   UNL     1       5.693   4.903  19.071  0.00  0.00    +0.000 A 
ATOM      8  C   UNL     1       5.098   4.325  17.935  0.00  0.00    +0.000 A 
ATOM      9  C   UNL     1       5.651   4.583  16.685  0.00  0.00    +0.000 A 
BRANCH   4  11
ATOM     10  C   UNL     1       6.959   4.857  14.252  0.00  0.00    +0.000 C 
ATOM     11  O   UNL     1       7.509   5.513  15.390  0.00  0.00    +0.000 OA
ENDBRANCH   4  11
ENDBRANCH   1   8
BRANCH   3  12
ATOM     12  C   UNL     1       2.215   5.626  17.706  0.00  0.00    +0.000 C 
BRANCH  12  13
ATOM     13  C   UNL     1       2.589   6.632  18.799  0.00  0.00    +0.000 C 
BRANCH  13  14
ATOM     14  C   UNL     1       2.206   8.084  18.474  0.00  0.00    +0.000 C 
ATOM     15  O   UNL     1       2.482   8.589  17.382  0.00  0.00    +0.000 OA
ATOM     16  N   UNL     1       1.487   8.764  19.455  0.00  0.00    +0.000 N 
ATOM     17  C   UNL     1       0.987  10.130  19.212  0.00  0.00    +0.000 C 
ATOM     18  C   UNL     1      -0.401  10.353  19.862  0.00  0.00    +0.000 C 
ATOM     19  N   UNL     1      -0.458   9.972  21.286  0.00  0.00    +0.000 NA
ATOM     20  C   UNL     1       0.048   8.602  21.472  0.00  0.00    +0.000 C 
ATOM     21  C   UNL     1       1.440   8.378  20.862  0.00  0.00    +0.000 C 
ATOM     22  H   UNL     1      -1.430  10.012  21.601  0.00  0.00    +0.000 HD
ENDBRANCH  13  14
ENDBRANCH  12  13
ENDBRANCH   3  12
BRANCH   3  23
ATOM     23  C   UNL     1       1.417   3.309  18.303  0.00  0.00    +0.000 C 
BRANCH  23  24
ATOM     24  C   UNL     1       0.857   3.490  19.724  0.00  0.00    +0.000 C 
BRANCH  24  25
ATOM     25  C   UNL     1       1.894   3.279  20.847  0.00  0.00    +0.000 C 
ATOM     26  C   UNL     1       2.380   4.590  21.469  0.00  0.00    +0.000 C 
ATOM     27  C   UNL     1       1.297   2.398  21.951  0.00  0.00    +0.000 C 
ENDBRANCH  24  25
ENDBRANCH  23  24
ENDBRANCH   3  23
TORSDOF 8
ENDMDL
MODEL 3
REMARK VINA RESULT:      -7.7      1.566      2.142
REMARK  Name = 
REMARK  11 active torsions:
REMARK  status: ('A' for Active; 'I' for Inactive)
REMARK    1  A    between atoms: C_1  and  O_2
REMARK    2  A    between atoms: O_2  and  C_3
REMARK    3  A    between atoms: C_7  and  C_8
REMARK    4  A    between atoms: N_10  and  C_11
REMARK    5  A    between atoms: N_10  and  C_21
REMARK    6  A    between atoms: C_11  and  C_12
REMARK    7  A    between atoms: C_12  and  C_13
REMARK    8  A    between atoms: C_21  and  C_22
REMARK    9  A    between atoms: C_22  and  C_23
REMARK   10  A    between atoms: C_23  and  C_24
REMARK   11  A    between atoms: C_23  and  C_25
REMARK                            x       y       z     vdW  Elec       q    Type
REMARK                         _______ _______ _______ _____ _____    ______ ____
ROOT
ATOM      1  C   UNL     1       4.166   4.607  19.037  0.00  0.00    +0.000 C 
ATOM      2  O   UNL     1       4.407   3.503  19.532  0.00  0.00    +0.000 OA
ATOM      3  N   UNL     1       3.194   5.466  19.594  0.00  0.00    +0.000 N 
ENDROOT
BRANCH   1   8
ATOM      4  C   UNL     1       6.719   6.162  16.697  0.00  0.00    +0.000 A 
ATOM      5  C   UNL     1       6.409   5.508  15.505  0.00  0.00    +0.000 A 
ATOM      6  C   UNL     1       5.454   4.496  15.492  0.00  0.00    +0.000 A 
ATOM      7  C   UNL     1       4.735   4.212  16.653  0.00  0.00    +0.000 A 
ATOM      8  C   UNL     1       4.960   4.947  17.831  0.00  0.00    +0.000 A 
ATOM      9  C   UNL     1       6.011   5.860  17.860  0.00  0.00    +0.000 A 
BRANCH   4  11
ATOM     10  C   UNL     1       7.855   7.938  17.753  0.00  0.00    +0.000 C 
ATOM     11  O   UNL     1       7.729   7.085  16.619  0.00  0.00    +0.000 OA
ENDBRANCH   4  11
ENDBRANCH   1   8
BRANCH   3  12
ATOM     12  C   UNL     1       2.685   6.770  19.078  0.00  0.00    +0.000 C 
BRANCH  12  13
ATOM     13  C   UNL     1       1.614   7.412  19.966  0.00  0.00    +0.000 C 
BRANCH  13  14
ATOM     14  C   UNL     1       1.460   8.927  19.767  0.00  0.00    +0.000 C 
ATOM     15  O   UNL     1       1.682   9.455  18.673  0.00  0.00    +0.000 OA
ATOM     16  N   UNL     1       1.007   9.649  20.869  0.00  0.00    +0.000 N 
ATOM     17  C   UNL     1       0.734  11.095  20.764  0.00  0.00    +0.000 C 
ATOM     18  C   UNL     1      -0.497  11.507  21.609  0.00  0.00    +0.000 C 
ATOM     19  N   UNL     1      -0.441  11.040  23.007  0.00  0.00    +0.000 NA
ATOM     20  C   UNL     1      -0.170   9.593  23.055  0.00  0.00    +0.000 C 
ATOM     21  C   UNL     1       1.069   9.177  22.250  0.00  0.00    +0.000 C 
ATOM     22  H   UNL     1      -1.341  11.223  23.454  0.00  0.00    +0.000 HD
ENDBRANCH  13  14
ENDBRANCH  12  13
ENDBRANCH   3  12
BRANCH   3  23
ATOM     23  C   UNL     1       2.568   4.958  20.829  0.00  0.00    +0.000 C 
BRANCH  23  24
ATOM     24  C   UNL     1       1.146   4.432  20.570  0.00  0.00    +0.000 C 
BRANCH  24  25
ATOM     25  C   UNL     1       1.015   2.896  20.640  0.00  0.00    +0.000 C 
ATOM     26  C   UNL     1       1.266   2.211  19.294  0.00  0.00    +0.000 C 
ATOM     27  C   UNL     1       1.998   2.332  21.673  0.00  0.00    +0.000 C 
ENDBRANCH  24  25
ENDBRANCH  23  24
ENDBRANCH   3  23
TORSDOF 8
ENDMDL
MODEL 4
REMARK VINA RESULT:      -7.7      2.692      5.703
REMARK  Name = 
REMARK  11 active torsions:
REMARK  status: ('A' for Active; 'I' for Inactive)
REMARK    1  A    between atoms: C_1  and  O_2
REMARK    2  A    between atoms: O_2  and  C_3
REMARK    3  A    between atoms: C_7  and  C_8
REMARK    4  A    between atoms: N_10  and  C_11
REMARK    5  A    between atoms: N_10  and  C_21
REMARK    6  A    between atoms: C_11  and  C_12
REMARK    7  A    between atoms: C_12  and  C_13
REMARK    8  A    between atoms: C_21  and  C_22
REMARK    9  A    between atoms: C_22  and  C_23
REMARK   10  A    between atoms: C_23  and  C_24
REMARK   11  A    between atoms: C_23  and  C_25
REMARK                            x       y       z     vdW  Elec       q    Type
REMARK                         _______ _______ _______ _____ _____    ______ ____
ROOT
ATOM      1  C   UNL     1       6.702   4.469  13.856  0.00  0.00    +0.000 C 
ATOM      2  O   UNL     1       7.638   5.172  13.465  0.00  0.00    +0.000 OA
ATOM      3  N   UNL     1       6.317   4.446  15.215  0.00  0.00    +0.000 N 
ENDROOT
BRANCH   1   8
ATOM      4  C   UNL     1       5.933   1.769  11.301  0.00  0.00    +0.000 A 
ATOM      5  C   UNL     1       4.690   2.199  10.837  0.00  0.00    +0.000 A 
ATOM      6  C   UNL     1       4.064   3.292  11.428  0.00  0.00    +0.000 A 
ATOM      7  C   UNL     1       4.732   4.019  12.413  0.00  0.00    +0.000 A 
ATOM      8  C   UNL     1       6.035   3.661  12.806  0.00  0.00    +0.000 A 
ATOM      9  C   UNL     1       6.588   2.488  12.301  0.00  0.00    +0.000 A 
BRANCH   4  11
ATOM     10  C   UNL     1       6.099  -0.582  11.370  0.00  0.00    +0.000 C 
ATOM     11  O   UNL     1       6.426   0.636  10.708  0.00  0.00    +0.000 OA
ENDBRANCH   4  11
ENDBRANCH   1   8
BRANCH   3  12
ATOM     12  C   UNL     1       5.304   3.584  15.891  0.00  0.00    +0.000 C 
BRANCH  12  13
ATOM     13  C   UNL     1       4.138   4.365  16.504  0.00  0.00    +0.000 C 
BRANCH  13  14
ATOM     14  C   UNL     1       3.385   3.605  17.607  0.00  0.00    +0.000 C 
ATOM     15  O   UNL     1       3.391   2.371  17.651  0.00  0.00    +0.000 OA
ATOM     16  N   UNL     1       2.752   4.387  18.570  0.00  0.00    +0.000 N 
ATOM     17  C   UNL     1       2.078   3.762  19.725  0.00  0.00    +0.000 C 
ATOM     18  C   UNL     1       2.256   4.604  21.012  0.00  0.00    +0.000 C 
ATOM     19  N   UNL     1       1.898   6.026  20.847  0.00  0.00    +0.000 NA
ATOM     20  C   UNL     1       2.598   6.600  19.685  0.00  0.00    +0.000 C 
ATOM     21  C   UNL     1       2.400   5.793  18.394  0.00  0.00    +0.000 C 
ATOM     22  H   UNL     1       2.175   6.538  21.687  0.00  0.00    +0.000 HD
ENDBRANCH  13  14
ENDBRANCH  12  13
ENDBRANCH   3  12
BRANCH   3  23
ATOM     23  C   UNL     1       7.073   5.372  16.078  0.00  0.00    +0.000 C 
BRANCH  23  24
ATOM     24  C   UNL     1       7.596   4.672  17.343  0.00  0.00    +0.000 C 
BRANCH  24  25
ATOM     25  C   UNL     1       7.621   5.565  18.601  0.00  0.00    +0.000 C 
ATOM     26  C   UNL     1       7.866   7.042  18.281  0.00  0.00    +0.000 C 
ATOM     27  C   UNL     1       6.295   5.437  19.361  0.00  0.00    +0.000 C 
ENDBRANCH  24  25
ENDBRANCH  23  24
ENDBRANCH   3  23
TORSDOF 8
ENDMDL
MODEL 5
REMARK VINA RESULT:      -7.6      1.768      2.492
REMARK  Name = 
REMARK  11 active torsions:
REMARK  status: ('A' for Active; 'I' for Inactive)
REMARK    1  A    between atoms: C_1  and  O_2
REMARK    2  A    between atoms: O_2  and  C_3
REMARK    3  A    between atoms: C_7  and  C_8
REMARK    4  A    between atoms: N_10  and  C_11
REMARK    5  A    between atoms: N_10  and  C_21
REMARK    6  A    between atoms: C_11  and  C_12
REMARK    7  A    between atoms: C_12  and  C_13
REMARK    8  A    between atoms: C_21  and  C_22
REMARK    9  A    between atoms: C_22  and  C_23
REMARK   10  A    between atoms: C_23  and  C_24
REMARK   11  A    between atoms: C_23  and  C_25
REMARK                            x       y       z     vdW  Elec       q    Type
REMARK                         _______ _______ _______ _____ _____    ______ ____
ROOT
ATOM      1  C   UNL     1       4.158   4.599  19.015  0.00  0.00    +0.000 C 
ATOM      2  O   UNL     1       4.573   3.689  19.737  0.00  0.00    +0.000 OA
ATOM      3  N   UNL     1       2.987   5.319  19.337  0.00  0.00    +0.000 N 
ENDROOT
BRANCH   1   8
ATOM      4  C   UNL     1       6.730   6.024  16.613  0.00  0.00    +0.000 A 
ATOM      5  C   UNL     1       6.456   5.278  15.468  0.00  0.00    +0.000 A 
ATOM      6  C   UNL     1       5.520   4.249  15.513  0.00  0.00    +0.000 A 
ATOM      7  C   UNL     1       4.782   4.039  16.678  0.00  0.00    +0.000 A 
ATOM      8  C   UNL     1       4.970   4.863  17.801  0.00  0.00    +0.000 A 
ATOM      9  C   UNL     1       6.004   5.796  17.782  0.00  0.00    +0.000 A 
BRANCH   4  11
ATOM     10  C   UNL     1       7.757   7.949  17.509  0.00  0.00    +0.000 C 
ATOM     11  O   UNL     1       7.725   6.958  16.486  0.00  0.00    +0.000 OA
ENDBRANCH   4  11
ENDBRANCH   1   8
BRANCH   3  12
ATOM     12  C   UNL     1       2.272   6.357  18.539  0.00  0.00    +0.000 C 
BRANCH  12  13
ATOM     13  C   UNL     1       2.610   7.794  18.948  0.00  0.00    +0.000 C 
BRANCH  13  14
ATOM     14  C   UNL     1       1.580   8.437  19.888  0.00  0.00    +0.000 C 
ATOM     15  O   UNL     1       1.125   7.821  20.856  0.00  0.00    +0.000 OA
ATOM     16  N   UNL     1       1.241   9.761  19.615  0.00  0.00    +0.000 N 
ATOM     17  C   UNL     1       0.333  10.506  20.507  0.00  0.00    +0.000 C 
ATOM     18  C   UNL     1       0.754  11.991  20.637  0.00  0.00    +0.000 C 
ATOM     19  N   UNL     1       0.959  12.667  19.342  0.00  0.00    +0.000 NA
ATOM     20  C   UNL     1       1.873  11.884  18.494  0.00  0.00    +0.000 C 
ATOM     21  C   UNL     1       1.447  10.418  18.327  0.00  0.00    +0.000 C 
ATOM     22  H   UNL     1       1.369  13.588  19.509  0.00  0.00    +0.000 HD
ENDBRANCH  13  14
ENDBRANCH  12  13
ENDBRANCH   3  12
BRANCH   3  23
ATOM     23  C   UNL     1       2.370   4.935  20.620  0.00  0.00    +0.000 C 
BRANCH  23  24
ATOM     24  C   UNL     1       0.993   4.282  20.416  0.00  0.00    +0.000 C 
BRANCH  24  25
ATOM     25  C   UNL     1       1.000   2.741  20.507  0.00  0.00    +0.000 C 
ATOM     26  C   UNL     1       1.431   2.065  19.203  0.00  0.00    +0.000 C 
ATOM     27  C   UNL     1       1.935   2.288  21.634  0.00  0.00    +0.000 C 
ENDBRANCH  24  25
ENDBRANCH  23  24
ENDBRANCH   3  23
TORSDOF 8
ENDMDL
MODEL 6
REMARK VINA RESULT:      -7.5      2.417      3.166
REMARK  Name = 
REMARK  11 active torsions:
REMARK  status: ('A' for Active; 'I' for Inactive)
REMARK    1  A    between atoms: C_1  and  O_2
REMARK    2  A    between atoms: O_2  and  C_3
REMARK    3  A    between atoms: C_7  and  C_8
REMARK    4  A    between atoms: N_10  and  C_11
REMARK    5  A    between atoms: N_10  and  C_21
REMARK    6  A    between atoms: C_11  and  C_12
REMARK    7  A    between atoms: C_12  and  C_13
REMARK    8  A    between atoms: C_21  and  C_22
REMARK    9  A    between atoms: C_22  and  C_23
REMARK   10  A    between atoms: C_23  and  C_24
REMARK   11  A    between atoms: C_23  and  C_25
REMARK                            x       y       z     vdW  Elec       q    Type
REMARK                         _______ _______ _______ _____ _____    ______ ____
ROOT
ATOM      1  C   UNL     1       4.118   5.057  17.594  0.00  0.00    +0.000 C 
ATOM      2  O   UNL     1       4.099   4.317  16.607  0.00  0.00    +0.000 OA
ATOM      3  N   UNL     1       2.935   5.378  18.296  0.00  0.00    +0.000 N 
ENDROOT
BRANCH   1   8
ATOM      4  C   UNL     1       7.310   7.109  17.702  0.00  0.00    +0.000 A 
ATOM      5  C   UNL     1       7.976   6.495  18.762  0.00  0.00    +0.000 A 
ATOM      6  C   UNL     1       7.345   5.498  19.500  0.00  0.00    +0.000 A 
ATOM      7  C   UNL     1       6.086   5.043  19.108  0.00  0.00    +0.000 A 
ATOM      8  C   UNL     1       5.456   5.578  17.970  0.00  0.00    +0.000 A 
ATOM      9  C   UNL     1       6.042   6.665  17.328  0.00  0.00    +0.000 A 
BRANCH   4  11
ATOM     10  C   UNL     1       8.136   9.310  17.882  0.00  0.00    +0.000 C 
ATOM     11  O   UNL     1       7.986   8.134  17.093  0.00  0.00    +0.000 OA
ENDBRANCH   4  11
ENDBRANCH   1   8
BRANCH   3  12
ATOM     12  C   UNL     1       2.741   6.335  19.424  0.00  0.00    +0.000 C 
BRANCH  12  13
ATOM     13  C   UNL     1       2.230   7.712  18.986  0.00  0.00    +0.000 C 
BRANCH  13  14
ATOM     14  C   UNL     1       1.404   8.443  20.055  0.00  0.00    +0.000 C 
ATOM     15  O   UNL     1       1.054   7.874  21.093  0.00  0.00    +0.000 OA
ATOM     16  N   UNL     1       1.128   9.786  19.806  0.00  0.00    +0.000 N 
ATOM     17  C   UNL     1       0.423  10.609  20.808  0.00  0.00    +0.000 C 
ATOM     18  C   UNL     1       0.968  12.057  20.842  0.00  0.00    +0.000 C 
ATOM     19  N   UNL     1       1.027  12.702  19.516  0.00  0.00    +0.000 NA
ATOM     20  C   UNL     1       1.743  11.842  18.558  0.00  0.00    +0.000 C 
ATOM     21  C   UNL     1       1.187  10.412  18.489  0.00  0.00    +0.000 C 
ATOM     22  H   UNL     1       1.526  13.590  19.600  0.00  0.00    +0.000 HD
ENDBRANCH  13  14
ENDBRANCH  12  13
ENDBRANCH   3  12
BRANCH   3  23
ATOM     23  C   UNL     1       1.726   4.703  17.792  0.00  0.00    +0.000 C 
BRANCH  23  24
ATOM     24  C   UNL     1       1.172   3.692  18.810  0.00  0.00    +0.000 C 
BRANCH  24  25
ATOM     25  C   UNL     1       2.251   3.000  19.669  0.00  0.00    +0.000 C 
ATOM     26  C   UNL     1       1.731   2.553  21.038  0.00  0.00    +0.000 C 
ATOM     27  C   UNL     1       2.808   1.779  18.928  0.00  0.00    +0.000 C 
ENDBRANCH  24  25
ENDBRANCH  23  24
ENDBRANCH   3  23
TORSDOF 8
ENDMDL
MODEL 7
REMARK VINA RESULT:      -7.4      1.462      2.349
REMARK  Name = 
REMARK  11 active torsions:
REMARK  status: ('A' for Active; 'I' for Inactive)
REMARK    1  A    between atoms: C_1  and  O_2
REMARK    2  A    between atoms: O_2  and  C_3
REMARK    3  A    between atoms: C_7  and  C_8
REMARK    4  A    between atoms: N_10  and  C_11
REMARK    5  A    between atoms: N_10  and  C_21
REMARK    6  A    between atoms: C_11  and  C_12
REMARK    7  A    between atoms: C_12  and  C_13
REMARK    8  A    between atoms: C_21  and  C_22
REMARK    9  A    between atoms: C_22  and  C_23
REMARK   10  A    between atoms: C_23  and  C_24
REMARK   11  A    between atoms: C_23  and  C_25
REMARK                            x       y       z     vdW  Elec       q    Type
REMARK                         _______ _______ _______ _____ _____    ______ ____
ROOT
ATOM      1  C   UNL     1       3.679   3.526  17.881  0.00  0.00    +0.000 C 
ATOM      2  O   UNL     1       3.868   2.319  18.053  0.00  0.00    +0.000 OA
ATOM      3  N   UNL     1       2.410   4.110  18.089  0.00  0.00    +0.000 N 
ENDROOT
BRANCH   1   8
ATOM      4  C   UNL     1       6.881   5.565  17.873  0.00  0.00    +0.000 A 
ATOM      5  C   UNL     1       7.089   5.716  16.503  0.00  0.00    +0.000 A 
ATOM      6  C   UNL     1       6.255   5.068  15.595  0.00  0.00    +0.000 A 
ATOM      7  C   UNL     1       5.151   4.356  16.061  0.00  0.00    +0.000 A 
ATOM      8  C   UNL     1       4.868   4.295  17.438  0.00  0.00    +0.000 A 
ATOM      9  C   UNL     1       5.787   4.834  18.334  0.00  0.00    +0.000 A 
BRANCH   4  11
ATOM     10  C   UNL     1       8.152   7.504  18.304  0.00  0.00    +0.000 C 
ATOM     11  O   UNL     1       7.804   6.176  18.682  0.00  0.00    +0.000 OA
ENDBRANCH   4  11
ENDBRANCH   1   8
BRANCH   3  12
ATOM     12  C   UNL     1       1.963   5.508  17.822  0.00  0.00    +0.000 C 
BRANCH  12  13
ATOM     13  C   UNL     1       2.643   6.555  18.709  0.00  0.00    +0.000 C 
BRANCH  13  14
ATOM     14  C   UNL     1       2.244   8.004  18.387  0.00  0.00    +0.000 C 
ATOM     15  O   UNL     1       2.504   8.510  17.291  0.00  0.00    +0.000 OA
ATOM     16  N   UNL     1       1.533   8.680  19.375  0.00  0.00    +0.000 N 
ATOM     17  C   UNL     1       1.020  10.042  19.137  0.00  0.00    +0.000 C 
ATOM     18  C   UNL     1      -0.362  10.256  19.803  0.00  0.00    +0.000 C 
ATOM     19  N   UNL     1      -0.400   9.876  21.229  0.00  0.00    +0.000 NA
ATOM     20  C   UNL     1       0.119   8.510  21.410  0.00  0.00    +0.000 C 
ATOM     21  C   UNL     1       1.505   8.295  20.784  0.00  0.00    +0.000 C 
ATOM     22  H   UNL     1      -1.368   9.909  21.555  0.00  0.00    +0.000 HD
ENDBRANCH  13  14
ENDBRANCH  12  13
ENDBRANCH   3  12
BRANCH   3  23
ATOM     23  C   UNL     1       1.385   3.176  18.589  0.00  0.00    +0.000 C 
BRANCH  23  24
ATOM     24  C   UNL     1       0.669   3.729  19.832  0.00  0.00    +0.000 C 
BRANCH  24  25
ATOM     25  C   UNL     1       1.393   3.438  21.164  0.00  0.00    +0.000 C 
ATOM     26  C   UNL     1       2.113   2.087  21.173  0.00  0.00    +0.000 C 
ATOM     27  C   UNL     1       2.413   4.544  21.459  0.00  0.00    +0.000 C 
ENDBRANCH  24  25
ENDBRANCH  23  24
ENDBRANCH   3  23
TORSDOF 8
ENDMDL
MODEL 8
REMARK VINA RESULT:      -7.3      1.802      2.764
REMARK  Name = 
REMARK  11 active torsions:
REMARK  status: ('A' for Active; 'I' for Inactive)
REMARK    1  A    between atoms: C_1  and  O_2
REMARK    2  A    between atoms: O_2  and  C_3
REMARK    3  A    between atoms: C_7  and  C_8
REMARK    4  A    between atoms: N_10  and  C_11
REMARK    5  A    between atoms: N_10  and  C_21
REMARK    6  A    between atoms: C_11  and  C_12
REMARK    7  A    between atoms: C_12  and  C_13
REMARK    8  A    between atoms: C_21  and  C_22
REMARK    9  A    between atoms: C_22  and  C_23
REMARK   10  A    between atoms: C_23  and  C_24
REMARK   11  A    between atoms: C_23  and  C_25
REMARK                            x       y       z     vdW  Elec       q    Type
REMARK                         _______ _______ _______ _____ _____    ______ ____
ROOT
ATOM      1  C   UNL     1       3.255   4.198  17.372  0.00  0.00    +0.000 C 
ATOM      2  O   UNL     1       2.642   3.323  16.756  0.00  0.00    +0.000 OA
ATOM      3  N   UNL     1       2.621   4.983  18.361  0.00  0.00    +0.000 N 
ENDROOT
BRANCH   1   8
ATOM      4  C   UNL     1       7.028   4.588  17.531  0.00  0.00    +0.000 A 
ATOM      5  C   UNL     1       7.339   4.653  16.173  0.00  0.00    +0.000 A 
ATOM      6  C   UNL     1       6.343   4.462  15.219  0.00  0.00    +0.000 A 
ATOM      7  C   UNL     1       5.018   4.312  15.627  0.00  0.00    +0.000 A 
ATOM      8  C   UNL     1       4.680   4.361  16.992  0.00  0.00    +0.000 A 
ATOM      9  C   UNL     1       5.703   4.416  17.933  0.00  0.00    +0.000 A 
BRANCH   4  11
ATOM     10  C   UNL     1       7.934   5.683  19.413  0.00  0.00    +0.000 C 
ATOM     11  O   UNL     1       8.091   4.707  18.387  0.00  0.00    +0.000 OA
ENDBRANCH   4  11
ENDBRANCH   1   8
BRANCH   3  12
ATOM     12  C   UNL     1       3.154   6.152  19.119  0.00  0.00    +0.000 C 
BRANCH  12  13
ATOM     13  C   UNL     1       2.478   7.480  18.764  0.00  0.00    +0.000 C 
BRANCH  13  14
ATOM     14  C   UNL     1       1.651   8.087  19.908  0.00  0.00    +0.000 C 
ATOM     15  O   UNL     1       1.419   7.449  20.938  0.00  0.00    +0.000 OA
ATOM     16  N   UNL     1       1.235   9.405  19.732  0.00  0.00    +0.000 N 
ATOM     17  C   UNL     1       0.516  10.118  20.805  0.00  0.00    +0.000 C 
ATOM     18  C   UNL     1       0.923  11.611  20.871  0.00  0.00    +0.000 C 
ATOM     19  N   UNL     1       0.842  12.307  19.572  0.00  0.00    +0.000 NA
ATOM     20  C   UNL     1       1.578  11.557  18.541  0.00  0.00    +0.000 C 
ATOM     21  C   UNL     1       1.157  10.083  18.442  0.00  0.00    +0.000 C 
ATOM     22  H   UNL     1       1.259  13.235  19.667  0.00  0.00    +0.000 HD
ENDBRANCH  13  14
ENDBRANCH  12  13
ENDBRANCH   3  12
BRANCH   3  23
ATOM     23  C   UNL     1       1.218   4.612  18.625  0.00  0.00    +0.000 C 
BRANCH  23  24
ATOM     24  C   UNL     1       1.016   4.154  20.079  0.00  0.00    +0.000 C 
BRANCH  24  25
ATOM     25  C   UNL     1       1.884   2.948  20.493  0.00  0.00    +0.000 C 
ATOM     26  C   UNL     1       1.635   2.497  21.934  0.00  0.00    +0.000 C 
ATOM     27  C   UNL     1       1.622   1.766  19.552  0.00  0.00    +0.000 C 
ENDBRANCH  24  25
ENDBRANCH  23  24
ENDBRANCH   3  23
TORSDOF 8
ENDMDL
MODEL 9
REMARK VINA RESULT:      -7.3      3.332      6.226
REMARK  Name = 
REMARK  11 active torsions:
REMARK  status: ('A' for Active; 'I' for Inactive)
REMARK    1  A    between atoms: C_1  and  O_2
REMARK    2  A    between atoms: O_2  and  C_3
REMARK    3  A    between atoms: C_7  and  C_8
REMARK    4  A    between atoms: N_10  and  C_11
REMARK    5  A    between atoms: N_10  and  C_21
REMARK    6  A    between atoms: C_11  and  C_12
REMARK    7  A    between atoms: C_12  and  C_13
REMARK    8  A    between atoms: C_21  and  C_22
REMARK    9  A    between atoms: C_22  and  C_23
REMARK   10  A    between atoms: C_23  and  C_24
REMARK   11  A    between atoms: C_23  and  C_25
REMARK                            x       y       z     vdW  Elec       q    Type
REMARK                         _______ _______ _______ _____ _____    ______ ____
ROOT
ATOM      1  C   UNL     1       7.065   4.807  15.454  0.00  0.00    +0.000 C 
ATOM      2  O   UNL     1       7.962   4.666  14.619  0.00  0.00    +0.000 OA
ATOM      3  N   UNL     1       5.795   4.215  15.278  0.00  0.00    +0.000 N 
ENDROOT
BRANCH   1   8
ATOM      4  C   UNL     1       7.696   7.770  17.743  0.00  0.00    +0.000 A 
ATOM      5  C   UNL     1       8.100   7.117  18.906  0.00  0.00    +0.000 A 
ATOM      6  C   UNL     1       8.061   5.727  18.976  0.00  0.00    +0.000 A 
ATOM      7  C   UNL     1       7.719   4.990  17.843  0.00  0.00    +0.000 A 
ATOM      8  C   UNL     1       7.422   5.638  16.631  0.00  0.00    +0.000 A 
ATOM      9  C   UNL     1       7.334   7.027  16.619  0.00  0.00    +0.000 A 
BRANCH   4  11
ATOM     10  C   UNL     1       8.787   9.713  18.514  0.00  0.00    +0.000 C 
ATOM     11  O   UNL     1       7.694   9.139  17.804  0.00  0.00    +0.000 OA
ENDBRANCH   4  11
ENDBRANCH   1   8
BRANCH   3  12
ATOM     12  C   UNL     1       4.564   4.367  16.106  0.00  0.00    +0.000 C 
BRANCH  12  13
ATOM     13  C   UNL     1       4.589   3.557  17.406  0.00  0.00    +0.000 C 
BRANCH  13  14
ATOM     14  C   UNL     1       4.110   4.337  18.640  0.00  0.00    +0.000 C 
ATOM     15  O   UNL     1       4.649   5.395  18.977  0.00  0.00    +0.000 OA
ATOM     16  N   UNL     1       3.009   3.810  19.311  0.00  0.00    +0.000 N 
ATOM     17  C   UNL     1       2.408   4.526  20.453  0.00  0.00    +0.000 C 
ATOM     18  C   UNL     1       0.866   4.379  20.470  0.00  0.00    +0.000 C 
ATOM     19  N   UNL     1       0.400   2.983  20.365  0.00  0.00    +0.000 NA
ATOM     20  C   UNL     1       1.027   2.318  19.210  0.00  0.00    +0.000 C 
ATOM     21  C   UNL     1       2.558   2.425  19.202  0.00  0.00    +0.000 C 
ATOM     22  H   UNL     1      -0.614   2.980  20.239  0.00  0.00    +0.000 HD
ENDBRANCH  13  14
ENDBRANCH  12  13
ENDBRANCH   3  12
BRANCH   3  23
ATOM     23  C   UNL     1       5.676   3.379  14.070  0.00  0.00    +0.000 C 
BRANCH  23  24
ATOM     24  C   UNL     1       5.015   4.145  12.911  0.00  0.00    +0.000 C 
BRANCH  24  25
ATOM     25  C   UNL     1       5.066   3.413  11.554  0.00  0.00    +0.000 C 
ATOM     26  C   UNL     1       5.770   2.056  11.631  0.00  0.00    +0.000 C 
ATOM     27  C   UNL     1       3.645   3.203  11.018  0.00  0.00    +0.000 C 
ENDBRANCH  24  25
ENDBRANCH  23  24
ENDBRANCH   3  23
TORSDOF 8
ENDMDL
