MODEL 1
REMARK VINA RESULT:      -8.4      0.000      0.000
REMARK  Name = 
REMARK  6 active torsions:
REMARK  status: ('A' for Active; 'I' for Inactive)
REMARK    1  A    between atoms: C_1  and  C_2
REMARK    2  A    between atoms: C_2  and  C_3
REMARK    3  A    between atoms: C_6  and  C_7
REMARK    4  A    between atoms: C_8  and  C_9
REMARK    5  A    between atoms: C_22  and  O_23
REMARK    6  A    between atoms: O_23  and  C_24
REMARK                            x       y       z     vdW  Elec       q    Type
REMARK                         _______ _______ _______ _____ _____    ______ ____
ROOT
ATOM      1  C   UNL     1       3.223   6.593  18.342  0.00  0.00    +0.000 A 
ATOM      2  C   UNL     1       2.851   7.769  17.655  0.00  0.00    +0.000 A 
ATOM      3  C   UNL     1       1.990   8.685  18.274  0.00  0.00    +0.000 A 
ATOM      4  N   UNL     1       1.478   9.872  17.801  0.00  0.00    +0.000 N 
ATOM      5  C   UNL     1       0.682  10.470  18.748  0.00  0.00    +0.000 A 
ATOM      6  C   UNL     1      -0.025  11.670  18.697  0.00  0.00    +0.000 A 
ATOM      7  C   UNL     1      -0.737  11.988  19.844  0.00  0.00    +0.000 A 
ATOM      8  N   UNL     1      -0.786  11.229  20.954  0.00  0.00    +0.000 NA
ATOM      9  C   UNL     1      -0.088  10.075  20.966  0.00  0.00    +0.000 A 
ATOM     10 CL   UNL     1      -0.183   9.133  22.374  0.00  0.00    +0.000 Cl
ATOM     11  C   UNL     1       0.674   9.644  19.875  0.00  0.00    +0.000 A 
ATOM     12  C   UNL     1       1.505   8.509  19.563  0.00  0.00    +0.000 A 
ATOM     13  C   UNL     1       1.894   7.345  20.255  0.00  0.00    +0.000 A 
ATOM     14  C   UNL     1       2.719   6.378  19.644  0.00  0.00    +0.000 A 
ATOM     15  H   UNL     1       1.661  10.246  16.883  0.00  0.00    +0.000 HD
ENDROOT
BRANCH   1  21
ATOM     16  C   UNL     1       3.856   4.332  17.131  0.00  0.00    +0.000 A 
ATOM     17  N   UNL     1       4.907   3.865  16.447  0.00  0.00    +0.000 NA
ATOM     18  O   UNL     1       5.868   4.841  16.511  0.00  0.00    +0.000 OA
ATOM     19  C   UNL     1       5.399   5.913  17.204  0.00  0.00    +0.000 A 
ATOM     20  C   UNL     1       6.350   7.040  17.284  0.00  0.00    +0.000 C 
ATOM     21  C   UNL     1       4.110   5.655  17.639  0.00  0.00    +0.000 A 
BRANCH  16  23
ATOM     22  C   UNL     1       2.779   2.153  17.899  0.00  0.00    +0.000 C 
ATOM     23  C   UNL     1       2.611   3.503  17.210  0.00  0.00    +0.000 C 
ENDBRANCH  16  23
ENDBRANCH   1  21
BRANCH  14  24
ATOM     24  O   UNL     1       3.060   5.211  20.278  0.00  0.00    +0.000 OA
ATOM     25  C   UNL     1       2.021   4.459  20.899  0.00  0.00    +0.000 C 
ENDBRANCH  14  24
TORSDOF 3
ENDMDL
MODEL 2
REMARK VINA RESULT:      -8.3      0.532      2.148
REMARK  Name = 
REMARK  6 active torsions:
REMARK  status: ('A' for Active; 'I' for Inactive)
REMARK    1  A    between atoms: C_1  and  C_2
REMARK    2  A    between atoms: C_2  and  C_3
REMARK    3  A    between atoms: C_6  and  C_7
REMARK    4  A    between atoms: C_8  and  C_9
REMARK    5  A    between atoms: C_22  and  O_23
REMARK    6  A    between atoms: O_23  and  C_24
REMARK                            x       y       z     vdW  Elec       q    Type
REMARK                         _______ _______ _______ _____ _____    ______ ____
ROOT
ATOM      1  C   UNL     1       3.263   6.574  18.241  0.00  0.00    +0.000 A 
ATOM      2  C   UNL     1       2.869   7.753  17.570  0.00  0.00    +0.000 A 
ATOM      3  C   UNL     1       2.018   8.661  18.215  0.00  0.00    +0.000 A 
ATOM      4  N   UNL     1       1.489   9.847  17.762  0.00  0.00    +0.000 N 
ATOM      5  C   UNL     1       0.714  10.437  18.731  0.00  0.00    +0.000 A 
ATOM      6  C   UNL     1       0.000  11.633  18.704  0.00  0.00    +0.000 A 
ATOM      7  C   UNL     1      -0.685  11.941  19.870  0.00  0.00    +0.000 A 
ATOM      8  N   UNL     1      -0.703  11.176  20.976  0.00  0.00    +0.000 NA
ATOM      9  C   UNL     1       0.000  10.025  20.965  0.00  0.00    +0.000 A 
ATOM     10 CL   UNL     1      -0.055   9.075  22.369  0.00  0.00    +0.000 Cl
ATOM     11  C   UNL     1       0.738   9.604  19.853  0.00  0.00    +0.000 A 
ATOM     12  C   UNL     1       1.566   8.475  19.514  0.00  0.00    +0.000 A 
ATOM     13  C   UNL     1       1.978   7.309  20.190  0.00  0.00    +0.000 A 
ATOM     14  C   UNL     1       2.792   6.350  19.553  0.00  0.00    +0.000 A 
ATOM     15  H   UNL     1       1.648  10.228  16.842  0.00  0.00    +0.000 HD
ENDROOT
BRANCH   1  21
ATOM     16  C   UNL     1       5.516   5.772  17.118  0.00  0.00    +0.000 A 
ATOM     17  N   UNL     1       5.971   4.639  16.570  0.00  0.00    +0.000 NA
ATOM     18  O   UNL     1       4.914   3.766  16.567  0.00  0.00    +0.000 OA
ATOM     19  C   UNL     1       3.825   4.348  17.136  0.00  0.00    +0.000 A 
ATOM     20  C   UNL     1       2.646   3.462  17.223  0.00  0.00    +0.000 C 
ATOM     21  C   UNL     1       4.137   5.644  17.511  0.00  0.00    +0.000 A 
BRANCH  16  23
ATOM     22  C   UNL     1       7.648   6.639  18.212  0.00  0.00    +0.000 C 
ATOM     23  C   UNL     1       6.457   6.922  17.304  0.00  0.00    +0.000 C 
ENDBRANCH  16  23
ENDBRANCH   1  21
BRANCH  14  24
ATOM     24  O   UNL     1       3.154   5.180  20.173  0.00  0.00    +0.000 OA
ATOM     25  C   UNL     1       2.194   4.543  21.011  0.00  0.00    +0.000 C 
ENDBRANCH  14  24
TORSDOF 3
ENDMDL
MODEL 3
REMARK VINA RESULT:      -7.4      1.291      2.573
REMARK  Name = 
REMARK  6 active torsions:
REMARK  status: ('A' for Active; 'I' for Inactive)
REMARK    1  A    between atoms: C_1  and  C_2
REMARK    2  A    between atoms: C_2  and  C_3
REMARK    3  A    between atoms: C_6  and  C_7
REMARK    4  A    between atoms: C_8  and  C_9
REMARK    5  A    between atoms: C_22  and  O_23
REMARK    6  A    between atoms: O_23  and  C_24
REMARK                            x       y       z     vdW  Elec       q    Type
REMARK                         _______ _______ _______ _____ _____    ______ ____
ROOT
ATOM      1  C   UNL     1       4.310   6.243  18.021  0.00  0.00    +0.000 A 
ATOM      2  C   UNL     1       3.882   7.444  17.415  0.00  0.00    +0.000 A 
ATOM      3  C   UNL     1       2.853   8.187  18.009  0.00  0.00    +0.000 A 
ATOM      4  N   UNL     1       2.261   9.359  17.597  0.00  0.00    +0.000 N 
ATOM      5  C   UNL     1       1.298   9.759  18.491  0.00  0.00    +0.000 A 
ATOM      6  C   UNL     1       0.464  10.875  18.472  0.00  0.00    +0.000 A 
ATOM      7  C   UNL     1      -0.407  10.983  19.547  0.00  0.00    +0.000 A 
ATOM      8  N   UNL     1      -0.491  10.102  20.560  0.00  0.00    +0.000 NA
ATOM      9  C   UNL     1       0.333   9.034  20.544  0.00  0.00    +0.000 A 
ATOM     10 CL   UNL     1       0.191   7.933  21.827  0.00  0.00    +0.000 Cl
ATOM     11  C   UNL     1       1.260   8.813  19.520  0.00  0.00    +0.000 A 
ATOM     12  C   UNL     1       2.250   7.815  19.202  0.00  0.00    +0.000 A 
ATOM     13  C   UNL     1       2.693   6.628  19.818  0.00  0.00    +0.000 A 
ATOM     14  C   UNL     1       3.691   5.830  19.221  0.00  0.00    +0.000 A 
ATOM     15  H   UNL     1       2.502   9.853  16.752  0.00  0.00    +0.000 HD
ENDROOT
BRANCH   1  21
ATOM     16  C   UNL     1       6.803   5.687  17.343  0.00  0.00    +0.000 A 
ATOM     17  N   UNL     1       7.428   4.700  16.690  0.00  0.00    +0.000 NA
ATOM     18  O   UNL     1       6.443   3.861  16.234  0.00  0.00    +0.000 OA
ATOM     19  C   UNL     1       5.224   4.314  16.630  0.00  0.00    +0.000 A 
ATOM     20  C   UNL     1       4.100   3.444  16.227  0.00  0.00    +0.000 C 
ATOM     21  C   UNL     1       5.376   5.490  17.345  0.00  0.00    +0.000 A 
BRANCH  16  23
ATOM     22  C   UNL     1       7.442   8.153  17.418  0.00  0.00    +0.000 C 
ATOM     23  C   UNL     1       7.617   6.756  18.002  0.00  0.00    +0.000 C 
ENDBRANCH  16  23
ENDBRANCH   1  21
BRANCH  14  24
ATOM     24  O   UNL     1       4.094   4.640  19.773  0.00  0.00    +0.000 OA
ATOM     25  C   UNL     1       3.101   3.649  20.023  0.00  0.00    +0.000 C 
ENDBRANCH  14  24
TORSDOF 3
ENDMDL
MODEL 4
REMARK VINA RESULT:      -7.4      2.905      6.750
REMARK  Name = 
REMARK  6 active torsions:
REMARK  status: ('A' for Active; 'I' for Inactive)
REMARK    1  A    between atoms: C_1  and  C_2
REMARK    2  A    between atoms: C_2  and  C_3
REMARK    3  A    between atoms: C_6  and  C_7
REMARK    4  A    between atoms: C_8  and  C_9
REMARK    5  A    between atoms: C_22  and  O_23
REMARK    6  A    between atoms: O_23  and  C_24
REMARK                            x       y       z     vdW  Elec       q    Type
REMARK                         _______ _______ _______ _____ _____    ______ ____
ROOT
ATOM      1  C   UNL     1       0.992   9.822  19.075  0.00  0.00    +0.000 A 
ATOM      2  C   UNL     1       1.871   9.359  18.071  0.00  0.00    +0.000 A 
ATOM      3  C   UNL     1       2.510   8.123  18.232  0.00  0.00    +0.000 A 
ATOM      4  N   UNL     1       3.412   7.484  17.412  0.00  0.00    +0.000 N 
ATOM      5  C   UNL     1       3.778   6.271  17.942  0.00  0.00    +0.000 A 
ATOM      6  C   UNL     1       4.654   5.305  17.451  0.00  0.00    +0.000 A 
ATOM      7  C   UNL     1       4.797   4.176  18.246  0.00  0.00    +0.000 A 
ATOM      8  N   UNL     1       4.169   3.976  19.418  0.00  0.00    +0.000 NA
ATOM      9  C   UNL     1       3.328   4.933  19.860  0.00  0.00    +0.000 A 
ATOM     10 CL   UNL     1       2.563   4.657  21.349  0.00  0.00    +0.000 Cl
ATOM     11  C   UNL     1       3.092   6.115  19.150  0.00  0.00    +0.000 A 
ATOM     12  C   UNL     1       2.292   7.300  19.328  0.00  0.00    +0.000 A 
ATOM     13  C   UNL     1       1.398   7.753  20.319  0.00  0.00    +0.000 A 
ATOM     14  C   UNL     1       0.776   9.014  20.214  0.00  0.00    +0.000 A 
ATOM     15  H   UNL     1       3.757   7.860  16.543  0.00  0.00    +0.000 HD
ENDROOT
BRANCH   1  21
ATOM     16  C   UNL     1      -0.983  11.479  18.499  0.00  0.00    +0.000 A 
ATOM     17  N   UNL     1      -1.173  12.804  18.535  0.00  0.00    +0.000 NA
ATOM     18  O   UNL     1       0.031  13.352  18.897  0.00  0.00    +0.000 OA
ATOM     19  C   UNL     1       0.945  12.369  19.112  0.00  0.00    +0.000 A 
ATOM     20  C   UNL     1       2.264  12.863  19.557  0.00  0.00    +0.000 C 
ATOM     21  C   UNL     1       0.365  11.135  18.869  0.00  0.00    +0.000 A 
BRANCH  16  23
ATOM     22  C   UNL     1      -2.162  10.062  16.739  0.00  0.00    +0.000 C 
ATOM     23  C   UNL     1      -2.138  10.585  18.171  0.00  0.00    +0.000 C 
ENDBRANCH  16  23
ENDBRANCH   1  21
BRANCH  14  24
ATOM     24  O   UNL     1      -0.050   9.499  21.196  0.00  0.00    +0.000 OA
ATOM     25  C   UNL     1       0.441   9.519  22.533  0.00  0.00    +0.000 C 
ENDBRANCH  14  24
TORSDOF 3
ENDMDL
MODEL 5
REMARK VINA RESULT:      -7.3      2.944      7.051
REMARK  Name = 
REMARK  6 active torsions:
REMARK  status: ('A' for Active; 'I' for Inactive)
REMARK    1  A    between atoms: C_1  and  C_2
REMARK    2  A    between atoms: C_2  and  C_3
REMARK    3  A    between atoms: C_6  and  C_7
REMARK    4  A    between atoms: C_8  and  C_9
REMARK    5  A    between atoms: C_22  and  O_23
REMARK    6  A    between atoms: O_23  and  C_24
REMARK                            x       y       z     vdW  Elec       q    Type
REMARK                         _______ _______ _______ _____ _____    ______ ____
ROOT
ATOM      1  C   UNL     1       0.965   9.850  19.075  0.00  0.00    +0.000 A 
ATOM      2  C   UNL     1       1.843   9.387  18.070  0.00  0.00    +0.000 A 
ATOM      3  C   UNL     1       2.483   8.151  18.231  0.00  0.00    +0.000 A 
ATOM      4  N   UNL     1       3.384   7.511  17.411  0.00  0.00    +0.000 N 
ATOM      5  C   UNL     1       3.750   6.299  17.941  0.00  0.00    +0.000 A 
ATOM      6  C   UNL     1       4.627   5.333  17.450  0.00  0.00    +0.000 A 
ATOM      7  C   UNL     1       4.771   4.205  18.245  0.00  0.00    +0.000 A 
ATOM      8  N   UNL     1       4.144   4.005  19.418  0.00  0.00    +0.000 NA
ATOM      9  C   UNL     1       3.304   4.963  19.861  0.00  0.00    +0.000 A 
ATOM     10 CL   UNL     1       2.540   4.688  21.351  0.00  0.00    +0.000 Cl
ATOM     11  C   UNL     1       3.067   6.144  19.150  0.00  0.00    +0.000 A 
ATOM     12  C   UNL     1       2.266   7.329  19.328  0.00  0.00    +0.000 A 
ATOM     13  C   UNL     1       1.373   7.782  20.319  0.00  0.00    +0.000 A 
ATOM     14  C   UNL     1       0.750   9.043  20.214  0.00  0.00    +0.000 A 
ATOM     15  H   UNL     1       3.728   7.887  16.540  0.00  0.00    +0.000 HD
ENDROOT
BRANCH   1  21
ATOM     16  C   UNL     1       0.884  12.489  18.990  0.00  0.00    +0.000 A 
ATOM     17  N   UNL     1       0.002  13.415  18.594  0.00  0.00    +0.000 NA
ATOM     18  O   UNL     1      -1.132  12.733  18.235  0.00  0.00    +0.000 OA
ATOM     19  C   UNL     1      -0.938  11.395  18.381  0.00  0.00    +0.000 A 
ATOM     20  C   UNL     1      -2.093  10.573  17.968  0.00  0.00    +0.000 C 
ATOM     21  C   UNL     1       0.337  11.163  18.868  0.00  0.00    +0.000 A 
BRANCH  16  23
ATOM     22  C   UNL     1       3.050  13.667  18.345  0.00  0.00    +0.000 C 
ATOM     23  C   UNL     1       2.255  12.920  19.410  0.00  0.00    +0.000 C 
ENDBRANCH  16  23
ENDBRANCH   1  21
BRANCH  14  24
ATOM     24  O   UNL     1      -0.075   9.529  21.197  0.00  0.00    +0.000 OA
ATOM     25  C   UNL     1       0.360   9.420  22.549  0.00  0.00    +0.000 C 
ENDBRANCH  14  24
TORSDOF 3
ENDMDL
MODEL 6
REMARK VINA RESULT:      -7.2      1.784      2.256
REMARK  Name = 
REMARK  6 active torsions:
REMARK  status: ('A' for Active; 'I' for Inactive)
REMARK    1  A    between atoms: C_1  and  C_2
REMARK    2  A    between atoms: C_2  and  C_3
REMARK    3  A    between atoms: C_6  and  C_7
REMARK    4  A    between atoms: C_8  and  C_9
REMARK    5  A    between atoms: C_22  and  O_23
REMARK    6  A    between atoms: O_23  and  C_24
REMARK                            x       y       z     vdW  Elec       q    Type
REMARK                         _______ _______ _______ _____ _____    ______ ____
ROOT
ATOM      1  C   UNL     1       4.795   5.982  17.990  0.00  0.00    +0.000 A 
ATOM      2  C   UNL     1       4.347   7.158  17.351  0.00  0.00    +0.000 A 
ATOM      3  C   UNL     1       3.255   7.857  17.880  0.00  0.00    +0.000 A 
ATOM      4  N   UNL     1       2.633   8.998  17.426  0.00  0.00    +0.000 N 
ATOM      5  C   UNL     1       1.605   9.358  18.263  0.00  0.00    +0.000 A 
ATOM      6  C   UNL     1       0.723  10.435  18.188  0.00  0.00    +0.000 A 
ATOM      7  C   UNL     1      -0.210  10.509  19.212  0.00  0.00    +0.000 A 
ATOM      8  N   UNL     1      -0.310   9.631  20.226  0.00  0.00    +0.000 NA
ATOM      9  C   UNL     1       0.561   8.602  20.265  0.00  0.00    +0.000 A 
ATOM     10 CL   UNL     1       0.398   7.504  21.548  0.00  0.00    +0.000 Cl
ATOM     11  C   UNL     1       1.552   8.418  19.296  0.00  0.00    +0.000 A 
ATOM     12  C   UNL     1       2.603   7.465  19.042  0.00  0.00    +0.000 A 
ATOM     13  C   UNL     1       3.065   6.303  19.691  0.00  0.00    +0.000 A 
ATOM     14  C   UNL     1       4.130   5.548  19.158  0.00  0.00    +0.000 A 
ATOM     15  H   UNL     1       2.898   9.497  16.592  0.00  0.00    +0.000 HD
ENDROOT
BRANCH   1  21
ATOM     16  C   UNL     1       6.056   4.645  16.092  0.00  0.00    +0.000 A 
ATOM     17  N   UNL     1       7.306   4.215  15.882  0.00  0.00    +0.000 NA
ATOM     18  O   UNL     1       8.011   4.523  17.017  0.00  0.00    +0.000 OA
ATOM     19  C   UNL     1       7.207   5.164  17.906  0.00  0.00    +0.000 A 
ATOM     20  C   UNL     1       7.895   5.582  19.145  0.00  0.00    +0.000 C 
ATOM     21  C   UNL     1       5.931   5.274  17.381  0.00  0.00    +0.000 A 
BRANCH  16  23
ATOM     22  C   UNL     1       5.588   3.981  13.676  0.00  0.00    +0.000 C 
ATOM     23  C   UNL     1       5.039   4.491  15.004  0.00  0.00    +0.000 C 
ENDBRANCH  16  23
ENDBRANCH   1  21
BRANCH  14  24
ATOM     24  O   UNL     1       4.555   4.381  19.741  0.00  0.00    +0.000 OA
ATOM     25  C   UNL     1       3.749   3.218  19.574  0.00  0.00    +0.000 C 
ENDBRANCH  14  24
TORSDOF 3
ENDMDL
MODEL 7
REMARK VINA RESULT:      -6.9      2.107      3.503
REMARK  Name = 
REMARK  6 active torsions:
REMARK  status: ('A' for Active; 'I' for Inactive)
REMARK    1  A    between atoms: C_1  and  C_2
REMARK    2  A    between atoms: C_2  and  C_3
REMARK    3  A    between atoms: C_6  and  C_7
REMARK    4  A    between atoms: C_8  and  C_9
REMARK    5  A    between atoms: C_22  and  O_23
REMARK    6  A    between atoms: O_23  and  C_24
REMARK                            x       y       z     vdW  Elec       q    Type
REMARK                         _______ _______ _______ _____ _____    ______ ____
ROOT
ATOM      1  C   UNL     1       2.624   6.017  19.498  0.00  0.00    +0.000 A 
ATOM      2  C   UNL     1       1.969   6.360  20.700  0.00  0.00    +0.000 A 
ATOM      3  C   UNL     1       1.435   7.647  20.851  0.00  0.00    +0.000 A 
ATOM      4  N   UNL     1       0.783   8.211  21.923  0.00  0.00    +0.000 N 
ATOM      5  C   UNL     1       0.406   9.501  21.640  0.00  0.00    +0.000 A 
ATOM      6  C   UNL     1      -0.273  10.430  22.427  0.00  0.00    +0.000 A 
ATOM      7  C   UNL     1      -0.500  11.661  21.827  0.00  0.00    +0.000 A 
ATOM      8  N   UNL     1      -0.110  11.994  20.584  0.00  0.00    +0.000 NA
ATOM      9  C   UNL     1       0.544  11.068  19.853  0.00  0.00    +0.000 A 
ATOM     10 CL   UNL     1       1.036  11.525  18.294  0.00  0.00    +0.000 Cl
ATOM     11  C   UNL     1       0.829   9.789  20.340  0.00  0.00    +0.000 A 
ATOM     12  C   UNL     1       1.487   8.604  19.847  0.00  0.00    +0.000 A 
ATOM     13  C   UNL     1       2.122   8.254  18.640  0.00  0.00    +0.000 A 
ATOM     14  C   UNL     1       2.714   6.984  18.473  0.00  0.00    +0.000 A 
ATOM     15  H   UNL     1       0.609   7.739  22.797  0.00  0.00    +0.000 HD
ENDROOT
BRANCH   1  21
ATOM     16  C   UNL     1       4.555   4.220  19.344  0.00  0.00    +0.000 A 
ATOM     17  N   UNL     1       4.635   2.884  19.379  0.00  0.00    +0.000 NA
ATOM     18  O   UNL     1       3.344   2.426  19.431  0.00  0.00    +0.000 OA
ATOM     19  C   UNL     1       2.478   3.473  19.458  0.00  0.00    +0.000 A 
ATOM     20  C   UNL     1       1.059   3.076  19.565  0.00  0.00    +0.000 C 
ATOM     21  C   UNL     1       3.186   4.662  19.400  0.00  0.00    +0.000 A 
BRANCH  16  23
ATOM     22  C   UNL     1       6.745   4.744  18.151  0.00  0.00    +0.000 C 
ATOM     23  C   UNL     1       5.816   5.026  19.326  0.00  0.00    +0.000 C 
ENDBRANCH  16  23
ENDBRANCH   1  21
BRANCH  14  24
ATOM     24  O   UNL     1       3.389   6.644  17.328  0.00  0.00    +0.000 OA
ATOM     25  C   UNL     1       4.549   7.398  16.987  0.00  0.00    +0.000 C 
ENDBRANCH  14  24
TORSDOF 3
ENDMDL
MODEL 8
REMARK VINA RESULT:      -6.9      2.044      2.859
REMARK  Name = 
REMARK  6 active torsions:
REMARK  status: ('A' for Active; 'I' for Inactive)
REMARK    1  A    between atoms: C_1  and  C_2
REMARK    2  A    between atoms: C_2  and  C_3
REMARK    3  A    between atoms: C_6  and  C_7
REMARK    4  A    between atoms: C_8  and  C_9
REMARK    5  A    between atoms: C_22  and  O_23
REMARK    6  A    between atoms: O_23  and  C_24
REMARK                            x       y       z     vdW  Elec       q    Type
REMARK                         _______ _______ _______ _____ _____    ______ ____
ROOT
ATOM      1  C   UNL     1       2.903   5.992  19.226  0.00  0.00    +0.000 A 
ATOM      2  C   UNL     1       2.205   6.251  20.426  0.00  0.00    +0.000 A 
ATOM      3  C   UNL     1       1.607   7.503  20.619  0.00  0.00    +0.000 A 
ATOM      4  N   UNL     1       0.904   7.989  21.698  0.00  0.00    +0.000 N 
ATOM      5  C   UNL     1       0.472   9.271  21.461  0.00  0.00    +0.000 A 
ATOM      6  C   UNL     1      -0.268  10.131  22.270  0.00  0.00    +0.000 A 
ATOM      7  C   UNL     1      -0.540  11.375  21.718  0.00  0.00    +0.000 A 
ATOM      8  N   UNL     1      -0.140  11.781  20.500  0.00  0.00    +0.000 NA
ATOM      9  C   UNL     1       0.575  10.920  19.746  0.00  0.00    +0.000 A 
ATOM     10 CL   UNL     1       1.079  11.467  18.221  0.00  0.00    +0.000 Cl
ATOM     11  C   UNL     1       0.910   9.635  20.185  0.00  0.00    +0.000 A 
ATOM     12  C   UNL     1       1.635   8.506  19.658  0.00  0.00    +0.000 A 
ATOM     13  C   UNL     1       2.313   8.238  18.453  0.00  0.00    +0.000 A 
ATOM     14  C   UNL     1       2.969   7.007  18.246  0.00  0.00    +0.000 A 
ATOM     15  H   UNL     1       0.734   7.471  22.546  0.00  0.00    +0.000 HD
ENDROOT
BRANCH   1  21
ATOM     16  C   UNL     1       2.959   3.396  18.740  0.00  0.00    +0.000 A 
ATOM     17  N   UNL     1       3.906   2.460  18.602  0.00  0.00    +0.000 NA
ATOM     18  O   UNL     1       5.097   3.081  18.874  0.00  0.00    +0.000 OA
ATOM     19  C   UNL     1       4.887   4.396  19.148  0.00  0.00    +0.000 A 
ATOM     20  C   UNL     1       6.125   5.161  19.405  0.00  0.00    +0.000 C 
ATOM     21  C   UNL     1       3.531   4.671  19.085  0.00  0.00    +0.000 A 
BRANCH  16  23
ATOM     22  C   UNL     1       0.648   2.916  19.701  0.00  0.00    +0.000 C 
ATOM     23  C   UNL     1       1.532   3.036  18.465  0.00  0.00    +0.000 C 
ENDBRANCH  16  23
ENDBRANCH   1  21
BRANCH  14  24
ATOM     24  O   UNL     1       3.686   6.749  17.105  0.00  0.00    +0.000 OA
ATOM     25  C   UNL     1       4.956   7.377  16.957  0.00  0.00    +0.000 C 
ENDBRANCH  14  24
TORSDOF 3
ENDMDL
MODEL 9
REMARK VINA RESULT:      -6.7      1.233      1.349
REMARK  Name = 
REMARK  6 active torsions:
REMARK  status: ('A' for Active; 'I' for Inactive)
REMARK    1  A    between atoms: C_1  and  C_2
REMARK    2  A    between atoms: C_2  and  C_3
REMARK    3  A    between atoms: C_6  and  C_7
REMARK    4  A    between atoms: C_8  and  C_9
REMARK    5  A    between atoms: C_22  and  O_23
REMARK    6  A    between atoms: O_23  and  C_24
REMARK                            x       y       z     vdW  Elec       q    Type
REMARK                         _______ _______ _______ _____ _____    ______ ____
ROOT
ATOM      1  C   UNL     1       2.310   6.479  18.974  0.00  0.00    +0.000 A 
ATOM      2  C   UNL     1       2.305   7.768  18.399  0.00  0.00    +0.000 A 
ATOM      3  C   UNL     1       1.743   8.838  19.108  0.00  0.00    +0.000 A 
ATOM      4  N   UNL     1       1.605  10.159  18.749  0.00  0.00    +0.000 N 
ATOM      5  C   UNL     1       1.011  10.878  19.757  0.00  0.00    +0.000 A 
ATOM      6  C   UNL     1       0.686  12.232  19.822  0.00  0.00    +0.000 A 
ATOM      7  C   UNL     1       0.087  12.641  21.005  0.00  0.00    +0.000 A 
ATOM      8  N   UNL     1      -0.192  11.836  22.045  0.00  0.00    +0.000 NA
ATOM      9  C   UNL     1       0.137  10.532  21.945  0.00  0.00    +0.000 A 
ATOM     10 CL   UNL     1      -0.242   9.538  23.268  0.00  0.00    +0.000 Cl
ATOM     11  C   UNL     1       0.750   9.995  20.809  0.00  0.00    +0.000 A 
ATOM     12  C   UNL     1       1.216   8.698  20.385  0.00  0.00    +0.000 A 
ATOM     13  C   UNL     1       1.241   7.416  20.967  0.00  0.00    +0.000 A 
ATOM     14  C   UNL     1       1.753   6.307  20.261  0.00  0.00    +0.000 A 
ATOM     15  H   UNL     1       1.899  10.542  17.865  0.00  0.00    +0.000 HD
ENDROOT
BRANCH   1  21
ATOM     16  C   UNL     1       2.303   4.161  17.705  0.00  0.00    +0.000 A 
ATOM     17  N   UNL     1       3.147   3.495  16.908  0.00  0.00    +0.000 NA
ATOM     18  O   UNL     1       4.295   4.242  16.860  0.00  0.00    +0.000 OA
ATOM     19  C   UNL     1       4.148   5.374  17.599  0.00  0.00    +0.000 A 
ATOM     20  C   UNL     1       5.323   6.269  17.567  0.00  0.00    +0.000 C 
ATOM     21  C   UNL     1       2.890   5.388  18.178  0.00  0.00    +0.000 A 
BRANCH  16  23
ATOM     22  C   UNL     1       0.856   2.394  18.835  0.00  0.00    +0.000 C 
ATOM     23  C   UNL     1       0.926   3.617  17.928  0.00  0.00    +0.000 C 
ENDBRANCH  16  23
ENDBRANCH   1  21
BRANCH  14  24
ATOM     24  O   UNL     1       1.732   5.040  20.786  0.00  0.00    +0.000 OA
ATOM     25  C   UNL     1       2.958   4.493  21.262  0.00  0.00    +0.000 C 
ENDBRANCH  14  24
TORSDOF 3
ENDMDL
