MODEL 1
REMARK VINA RESULT:      -7.3      0.000      0.000
REMARK  Name = 
REMARK  4 active torsions:
REMARK  status: ('A' for Active; 'I' for Inactive)
REMARK    1  A    between atoms: O_1  and  C_2
REMARK    2  A    between atoms: C_2  and  C_3
REMARK    3  A    between atoms: C_7  and  N_8
REMARK    4  A    between atoms: C_12  and  O_13
REMARK                            x       y       z     vdW  Elec       q    Type
REMARK                         _______ _______ _______ _____ _____    ______ ____
ROOT
ATOM      1  N   UNL     1       3.883   4.451  18.019  0.00  0.00    +0.000 N 
ATOM      2  C   UNL     1       3.955   3.844  16.789  0.00  0.00    +0.000 A 
ATOM      3  N   UNL     1       5.190   3.776  16.335  0.00  0.00    +0.000 NA
ATOM      4  C   UNL     1       5.949   4.341  17.331  0.00  0.00    +0.000 A 
ATOM      5  C   UNL     1       7.318   4.571  17.453  0.00  0.00    +0.000 A 
ATOM      6  N   UNL     1       7.814   5.156  18.557  0.00  0.00    +0.000 NA
ATOM      7  C   UNL     1       6.934   5.492  19.524  0.00  0.00    +0.000 A 
ATOM      8  N   UNL     1       5.592   5.316  19.537  0.00  0.00    +0.000 NA
ATOM      9  C   UNL     1       5.168   4.745  18.398  0.00  0.00    +0.000 A 
ENDROOT
BRANCH   1  14
ATOM     10  C   UNL     1       1.990   2.841  20.038  0.00  0.00    +0.000 C 
ATOM     11  C   UNL     1       1.035   3.072  18.920  0.00  0.00    +0.000 C 
ATOM     12  C   UNL     1       1.447   4.124  18.220  0.00  0.00    +0.000 C 
ATOM     13  F   UNL     1       0.780   4.607  17.161  0.00  0.00    +0.000 F 
ATOM     14  C   UNL     1       2.681   4.711  18.799  0.00  0.00    +0.000 C 
ATOM     15  O   UNL     1       2.793   4.049  20.094  0.00  0.00    +0.000 OA
BRANCH  10  16
ATOM     16  C   UNL     1       1.317   2.591  21.390  0.00  0.00    +0.000 C 
BRANCH  16  17
ATOM     17  O   UNL     1       2.078   3.180  22.440  0.00  0.00    +0.000 OA
ATOM     18  H   UNL     1       2.326   4.075  22.151  0.00  0.00    +0.000 HD
ENDBRANCH  16  17
ENDBRANCH  10  16
ENDBRANCH   1  14
BRANCH   5  19
ATOM     19  O   UNL     1       8.208   4.225  16.469  0.00  0.00    +0.000 OA
ATOM     20  H   UNL     1       8.836   3.624  16.912  0.00  0.00    +0.000 HD
ENDBRANCH   5  19
TORSDOF 4
ENDMDL
MODEL 2
REMARK VINA RESULT:      -7.1      2.287      3.121
REMARK  Name = 
REMARK  4 active torsions:
REMARK  status: ('A' for Active; 'I' for Inactive)
REMARK    1  A    between atoms: O_1  and  C_2
REMARK    2  A    between atoms: C_2  and  C_3
REMARK    3  A    between atoms: C_7  and  N_8
REMARK    4  A    between atoms: C_12  and  O_13
REMARK                            x       y       z     vdW  Elec       q    Type
REMARK                         _______ _______ _______ _____ _____    ______ ____
ROOT
ATOM      1  N   UNL     1       4.945   3.988  18.432  0.00  0.00    +0.000 N 
ATOM      2  C   UNL     1       5.252   4.969  19.343  0.00  0.00    +0.000 A 
ATOM      3  N   UNL     1       6.082   5.868  18.851  0.00  0.00    +0.000 NA
ATOM      4  C   UNL     1       6.297   5.458  17.557  0.00  0.00    +0.000 A 
ATOM      5  C   UNL     1       7.077   5.976  16.525  0.00  0.00    +0.000 A 
ATOM      6  N   UNL     1       7.113   5.367  15.327  0.00  0.00    +0.000 NA
ATOM      7  C   UNL     1       6.360   4.257  15.179  0.00  0.00    +0.000 A 
ATOM      8  N   UNL     1       5.555   3.660  16.088  0.00  0.00    +0.000 NA
ATOM      9  C   UNL     1       5.585   4.310  17.263  0.00  0.00    +0.000 A 
ENDROOT
BRANCH   1  14
ATOM     10  C   UNL     1       1.973   3.435  19.485  0.00  0.00    +0.000 C 
ATOM     11  C   UNL     1       2.755   2.754  20.553  0.00  0.00    +0.000 C 
ATOM     12  C   UNL     1       3.950   2.433  20.067  0.00  0.00    +0.000 C 
ATOM     13  F   UNL     1       4.880   1.778  20.778  0.00  0.00    +0.000 F 
ATOM     14  C   UNL     1       4.081   2.836  18.645  0.00  0.00    +0.000 C 
ATOM     15  O   UNL     1       2.715   3.180  18.264  0.00  0.00    +0.000 OA
BRANCH  10  16
ATOM     16  C   UNL     1       0.536   2.927  19.347  0.00  0.00    +0.000 C 
BRANCH  16  17
ATOM     17  O   UNL     1       0.469   1.886  18.377  0.00  0.00    +0.000 OA
ATOM     18  H   UNL     1       0.456   1.041  18.859  0.00  0.00    +0.000 HD
ENDBRANCH  16  17
ENDBRANCH  10  16
ENDBRANCH   1  14
BRANCH   5  19
ATOM     19  O   UNL     1       7.838   7.107  16.681  0.00  0.00    +0.000 OA
ATOM     20  H   UNL     1       8.335   7.180  15.845  0.00  0.00    +0.000 HD
ENDBRANCH   5  19
TORSDOF 4
ENDMDL
MODEL 3
REMARK VINA RESULT:      -7.0      1.386      1.386
REMARK  Name = 
REMARK  4 active torsions:
REMARK  status: ('A' for Active; 'I' for Inactive)
REMARK    1  A    between atoms: O_1  and  C_2
REMARK    2  A    between atoms: C_2  and  C_3
REMARK    3  A    between atoms: C_7  and  N_8
REMARK    4  A    between atoms: C_12  and  O_13
REMARK                            x       y       z     vdW  Elec       q    Type
REMARK                         _______ _______ _______ _____ _____    ______ ____
ROOT
ATOM      1  N   UNL     1       3.993   4.806  17.556  0.00  0.00    +0.000 N 
ATOM      2  C   UNL     1       4.116   3.659  16.811  0.00  0.00    +0.000 A 
ATOM      3  N   UNL     1       5.215   3.650  16.082  0.00  0.00    +0.000 NA
ATOM      4  C   UNL     1       5.837   4.835  16.393  0.00  0.00    +0.000 A 
ATOM      5  C   UNL     1       7.026   5.415  15.955  0.00  0.00    +0.000 A 
ATOM      6  N   UNL     1       7.414   6.612  16.428  0.00  0.00    +0.000 NA
ATOM      7  C   UNL     1       6.613   7.203  17.340  0.00  0.00    +0.000 A 
ATOM      8  N   UNL     1       5.448   6.747  17.855  0.00  0.00    +0.000 NA
ATOM      9  C   UNL     1       5.115   5.559  17.324  0.00  0.00    +0.000 A 
ENDROOT
BRANCH   1  14
ATOM     10  C   UNL     1       2.641   3.614  20.202  0.00  0.00    +0.000 C 
ATOM     11  C   UNL     1       1.507   3.471  19.247  0.00  0.00    +0.000 C 
ATOM     12  C   UNL     1       1.674   4.339  18.256  0.00  0.00    +0.000 C 
ATOM     13  F   UNL     1       0.801   4.479  17.247  0.00  0.00    +0.000 F 
ATOM     14  C   UNL     1       2.898   5.156  18.450  0.00  0.00    +0.000 C 
ATOM     15  O   UNL     1       3.286   4.859  19.825  0.00  0.00    +0.000 OA
BRANCH  10  16
ATOM     16  C   UNL     1       2.215   3.662  21.671  0.00  0.00    +0.000 C 
BRANCH  16  17
ATOM     17  O   UNL     1       1.502   2.479  22.020  0.00  0.00    +0.000 OA
ATOM     18  H   UNL     1       0.835   2.728  22.683  0.00  0.00    +0.000 HD
ENDBRANCH  16  17
ENDBRANCH  10  16
ENDBRANCH   1  14
BRANCH   5  19
ATOM     19  O   UNL     1       7.837   4.808  15.031  0.00  0.00    +0.000 OA
ATOM     20  H   UNL     1       8.516   4.356  15.566  0.00  0.00    +0.000 HD
ENDBRANCH   5  19
TORSDOF 4
ENDMDL
MODEL 4
REMARK VINA RESULT:      -6.8      1.707      1.840
REMARK  Name = 
REMARK  4 active torsions:
REMARK  status: ('A' for Active; 'I' for Inactive)
REMARK    1  A    between atoms: O_1  and  C_2
REMARK    2  A    between atoms: C_2  and  C_3
REMARK    3  A    between atoms: C_7  and  N_8
REMARK    4  A    between atoms: C_12  and  O_13
REMARK                            x       y       z     vdW  Elec       q    Type
REMARK                         _______ _______ _______ _____ _____    ______ ____
ROOT
ATOM      1  N   UNL     1       4.599   4.540  18.268  0.00  0.00    +0.000 N 
ATOM      2  C   UNL     1       4.174   3.692  17.275  0.00  0.00    +0.000 A 
ATOM      3  N   UNL     1       4.852   3.851  16.155  0.00  0.00    +0.000 NA
ATOM      4  C   UNL     1       5.771   4.828  16.452  0.00  0.00    +0.000 A 
ATOM      5  C   UNL     1       6.766   5.443  15.695  0.00  0.00    +0.000 A 
ATOM      6  N   UNL     1       7.546   6.394  16.239  0.00  0.00    +0.000 NA
ATOM      7  C   UNL     1       7.324   6.706  17.533  0.00  0.00    +0.000 A 
ATOM      8  N   UNL     1       6.406   6.182  18.378  0.00  0.00    +0.000 NA
ATOM      9  C   UNL     1       5.654   5.255  17.762  0.00  0.00    +0.000 A 
ENDROOT
BRANCH   1  14
ATOM     10  C   UNL     1       2.080   3.419  19.895  0.00  0.00    +0.000 C 
ATOM     11  C   UNL     1       1.764   4.874  19.902  0.00  0.00    +0.000 C 
ATOM     12  C   UNL     1       2.891   5.555  19.730  0.00  0.00    +0.000 C 
ATOM     13  F   UNL     1       2.945   6.896  19.720  0.00  0.00    +0.000 F 
ATOM     14  C   UNL     1       4.060   4.648  19.616  0.00  0.00    +0.000 C 
ATOM     15  O   UNL     1       3.524   3.355  20.026  0.00  0.00    +0.000 OA
BRANCH  10  16
ATOM     16  C   UNL     1       1.410   2.632  21.023  0.00  0.00    +0.000 C 
BRANCH  16  17
ATOM     17  O   UNL     1       2.010   2.951  22.275  0.00  0.00    +0.000 OA
ATOM     18  H   UNL     1       1.533   2.451  22.960  0.00  0.00    +0.000 HD
ENDBRANCH  16  17
ENDBRANCH  10  16
ENDBRANCH   1  14
BRANCH   5  19
ATOM     19  O   UNL     1       6.990   5.119  14.381  0.00  0.00    +0.000 OA
ATOM     20  H   UNL     1       7.473   4.273  14.420  0.00  0.00    +0.000 HD
ENDBRANCH   5  19
TORSDOF 4
ENDMDL
MODEL 5
REMARK VINA RESULT:      -6.8      2.278      5.677
REMARK  Name = 
REMARK  4 active torsions:
REMARK  status: ('A' for Active; 'I' for Inactive)
REMARK    1  A    between atoms: O_1  and  C_2
REMARK    2  A    between atoms: C_2  and  C_3
REMARK    3  A    between atoms: C_7  and  N_8
REMARK    4  A    between atoms: C_12  and  O_13
REMARK                            x       y       z     vdW  Elec       q    Type
REMARK                         _______ _______ _______ _____ _____    ______ ____
ROOT
ATOM      1  N   UNL     1       4.002   4.076  18.178  0.00  0.00    +0.000 N 
ATOM      2  C   UNL     1       5.081   3.518  18.821  0.00  0.00    +0.000 A 
ATOM      3  N   UNL     1       4.752   2.986  19.981  0.00  0.00    +0.000 NA
ATOM      4  C   UNL     1       3.397   3.188  20.076  0.00  0.00    +0.000 A 
ATOM      5  C   UNL     1       2.465   2.865  21.060  0.00  0.00    +0.000 A 
ATOM      6  N   UNL     1       1.169   3.186  20.902  0.00  0.00    +0.000 NA
ATOM      7  C   UNL     1       0.825   3.814  19.757  0.00  0.00    +0.000 A 
ATOM      8  N   UNL     1       1.623   4.173  18.725  0.00  0.00    +0.000 NA
ATOM      9  C   UNL     1       2.901   3.839  18.960  0.00  0.00    +0.000 A 
ENDROOT
BRANCH   1  14
ATOM     10  C   UNL     1       6.135   4.799  15.903  0.00  0.00    +0.000 C 
ATOM     11  C   UNL     1       5.787   6.168  16.373  0.00  0.00    +0.000 C 
ATOM     12  C   UNL     1       4.588   6.130  16.944  0.00  0.00    +0.000 C 
ATOM     13  F   UNL     1       3.978   7.215  17.444  0.00  0.00    +0.000 F 
ATOM     14  C   UNL     1       4.008   4.764  16.895  0.00  0.00    +0.000 C 
ATOM     15  O   UNL     1       4.889   4.057  15.973  0.00  0.00    +0.000 OA
BRANCH  10  16
ATOM     16  C   UNL     1       6.698   4.754  14.481  0.00  0.00    +0.000 C 
BRANCH  16  17
ATOM     17  O   UNL     1       7.883   5.540  14.391  0.00  0.00    +0.000 OA
ATOM     18  H   UNL     1       8.418   5.174  13.665  0.00  0.00    +0.000 HD
ENDBRANCH  16  17
ENDBRANCH  10  16
ENDBRANCH   1  14
BRANCH   5  19
ATOM     19  O   UNL     1       2.819   2.223  22.219  0.00  0.00    +0.000 OA
ATOM     20  H   UNL     1       2.351   1.369  22.174  0.00  0.00    +0.000 HD
ENDBRANCH   5  19
TORSDOF 4
ENDMDL
MODEL 6
REMARK VINA RESULT:      -6.8      2.353      2.940
REMARK  Name = 
REMARK  4 active torsions:
REMARK  status: ('A' for Active; 'I' for Inactive)
REMARK    1  A    between atoms: O_1  and  C_2
REMARK    2  A    between atoms: C_2  and  C_3
REMARK    3  A    between atoms: C_7  and  N_8
REMARK    4  A    between atoms: C_12  and  O_13
REMARK                            x       y       z     vdW  Elec       q    Type
REMARK                         _______ _______ _______ _____ _____    ______ ____
ROOT
ATOM      1  N   UNL     1       3.924   4.995  18.525  0.00  0.00    +0.000 N 
ATOM      2  C   UNL     1       4.532   4.127  19.399  0.00  0.00    +0.000 A 
ATOM      3  N   UNL     1       5.776   3.861  19.057  0.00  0.00    +0.000 NA
ATOM      4  C   UNL     1       5.985   4.612  17.925  0.00  0.00    +0.000 A 
ATOM      5  C   UNL     1       7.088   4.763  17.088  0.00  0.00    +0.000 A 
ATOM      6  N   UNL     1       7.026   5.579  16.021  0.00  0.00    +0.000 NA
ATOM      7  C   UNL     1       5.866   6.239  15.817  0.00  0.00    +0.000 A 
ATOM      8  N   UNL     1       4.732   6.191  16.554  0.00  0.00    +0.000 NA
ATOM      9  C   UNL     1       4.861   5.344  17.588  0.00  0.00    +0.000 A 
ENDROOT
BRANCH   1  14
ATOM     10  C   UNL     1       2.169   6.847  20.459  0.00  0.00    +0.000 C 
ATOM     11  C   UNL     1       1.468   5.547  20.643  0.00  0.00    +0.000 C 
ATOM     12  C   UNL     1       1.706   4.781  19.584  0.00  0.00    +0.000 C 
ATOM     13  F   UNL     1       1.188   3.553  19.434  0.00  0.00    +0.000 F 
ATOM     14  C   UNL     1       2.553   5.483  18.588  0.00  0.00    +0.000 C 
ATOM     15  O   UNL     1       2.554   6.864  19.059  0.00  0.00    +0.000 OA
BRANCH  10  16
ATOM     16  C   UNL     1       1.307   8.069  20.784  0.00  0.00    +0.000 C 
BRANCH  16  17
ATOM     17  O   UNL     1       1.701   8.636  22.030  0.00  0.00    +0.000 OA
ATOM     18  H   UNL     1       2.440   8.103  22.371  0.00  0.00    +0.000 HD
ENDBRANCH  16  17
ENDBRANCH  10  16
ENDBRANCH   1  14
BRANCH   5  19
ATOM     19  O   UNL     1       8.265   4.093  17.302  0.00  0.00    +0.000 OA
ATOM     20  H   UNL     1       8.658   4.538  18.076  0.00  0.00    +0.000 HD
ENDBRANCH   5  19
TORSDOF 4
ENDMDL
MODEL 7
REMARK VINA RESULT:      -6.8      2.512      5.790
REMARK  Name = 
REMARK  4 active torsions:
REMARK  status: ('A' for Active; 'I' for Inactive)
REMARK    1  A    between atoms: O_1  and  C_2
REMARK    2  A    between atoms: C_2  and  C_3
REMARK    3  A    between atoms: C_7  and  N_8
REMARK    4  A    between atoms: C_12  and  O_13
REMARK                            x       y       z     vdW  Elec       q    Type
REMARK                         _______ _______ _______ _____ _____    ______ ____
ROOT
ATOM      1  N   UNL     1       3.929   4.640  17.723  0.00  0.00    +0.000 N 
ATOM      2  C   UNL     1       3.591   3.353  17.381  0.00  0.00    +0.000 A 
ATOM      3  N   UNL     1       2.628   2.870  18.140  0.00  0.00    +0.000 NA
ATOM      4  C   UNL     1       2.316   3.903  18.991  0.00  0.00    +0.000 A 
ATOM      5  C   UNL     1       1.391   4.021  20.025  0.00  0.00    +0.000 A 
ATOM      6  N   UNL     1       1.286   5.169  20.718  0.00  0.00    +0.000 NA
ATOM      7  C   UNL     1       2.101   6.182  20.356  0.00  0.00    +0.000 A 
ATOM      8  N   UNL     1       3.029   6.203  19.371  0.00  0.00    +0.000 NA
ATOM      9  C   UNL     1       3.090   5.021  18.737  0.00  0.00    +0.000 A 
ENDROOT
BRANCH   1  14
ATOM     10  C   UNL     1       6.265   4.275  15.564  0.00  0.00    +0.000 C 
ATOM     11  C   UNL     1       7.079   4.565  16.776  0.00  0.00    +0.000 C 
ATOM     12  C   UNL     1       6.324   5.225  17.648  0.00  0.00    +0.000 C 
ATOM     13  F   UNL     1       6.780   5.658  18.833  0.00  0.00    +0.000 F 
ATOM     14  C   UNL     1       4.961   5.465  17.111  0.00  0.00    +0.000 C 
ATOM     15  O   UNL     1       5.088   5.113  15.701  0.00  0.00    +0.000 OA
BRANCH  10  16
ATOM     16  C   UNL     1       6.981   4.581  14.246  0.00  0.00    +0.000 C 
BRANCH  16  17
ATOM     17  O   UNL     1       7.955   5.603  14.437  0.00  0.00    +0.000 OA
ATOM     18  H   UNL     1       7.858   6.236  13.704  0.00  0.00    +0.000 HD
ENDBRANCH  16  17
ENDBRANCH  10  16
ENDBRANCH   1  14
BRANCH   5  19
ATOM     19  O   UNL     1       0.563   2.989  20.386  0.00  0.00    +0.000 OA
ATOM     20  H   UNL     1       0.434   3.107  21.346  0.00  0.00    +0.000 HD
ENDBRANCH   5  19
TORSDOF 4
ENDMDL
MODEL 8
REMARK VINA RESULT:      -6.8      2.462      5.244
REMARK  Name = 
REMARK  4 active torsions:
REMARK  status: ('A' for Active; 'I' for Inactive)
REMARK    1  A    between atoms: O_1  and  C_2
REMARK    2  A    between atoms: C_2  and  C_3
REMARK    3  A    between atoms: C_7  and  N_8
REMARK    4  A    between atoms: C_12  and  O_13
REMARK                            x       y       z     vdW  Elec       q    Type
REMARK                         _______ _______ _______ _____ _____    ______ ____
ROOT
ATOM      1  N   UNL     1       4.024   3.608  17.851  0.00  0.00    +0.000 N 
ATOM      2  C   UNL     1       3.011   3.939  16.984  0.00  0.00    +0.000 A 
ATOM      3  N   UNL     1       1.818   3.734  17.505  0.00  0.00    +0.000 NA
ATOM      4  C   UNL     1       2.076   3.274  18.774  0.00  0.00    +0.000 A 
ATOM      5  C   UNL     1       1.243   2.877  19.817  0.00  0.00    +0.000 A 
ATOM      6  N   UNL     1       1.764   2.458  20.983  0.00  0.00    +0.000 NA
ATOM      7  C   UNL     1       3.110   2.455  21.090  0.00  0.00    +0.000 A 
ATOM      8  N   UNL     1       4.026   2.824  20.166  0.00  0.00    +0.000 NA
ATOM      9  C   UNL     1       3.435   3.211  19.024  0.00  0.00    +0.000 A 
ENDROOT
BRANCH   1  14
ATOM     10  C   UNL     1       6.418   5.639  18.479  0.00  0.00    +0.000 C 
ATOM     11  C   UNL     1       6.384   5.732  16.993  0.00  0.00    +0.000 C 
ATOM     12  C   UNL     1       5.825   4.629  16.510  0.00  0.00    +0.000 C 
ATOM     13  F   UNL     1       5.676   4.395  15.197  0.00  0.00    +0.000 F 
ATOM     14  C   UNL     1       5.455   3.688  17.597  0.00  0.00    +0.000 C 
ATOM     15  O   UNL     1       6.123   4.247  18.768  0.00  0.00    +0.000 OA
BRANCH  10  16
ATOM     16  C   UNL     1       7.761   6.033  19.096  0.00  0.00    +0.000 C 
BRANCH  16  17
ATOM     17  O   UNL     1       7.907   5.446  20.386  0.00  0.00    +0.000 OA
ATOM     18  H   UNL     1       8.088   4.499  20.254  0.00  0.00    +0.000 HD
ENDBRANCH  16  17
ENDBRANCH  10  16
ENDBRANCH   1  14
BRANCH   5  19
ATOM     19  O   UNL     1      -0.124   2.885  19.703  0.00  0.00    +0.000 OA
ATOM     20  H   UNL     1      -0.290   2.639  18.774  0.00  0.00    +0.000 HD
ENDBRANCH   5  19
TORSDOF 4
ENDMDL
MODEL 9
REMARK VINA RESULT:      -6.8      2.640      5.868
REMARK  Name = 
REMARK  4 active torsions:
REMARK  status: ('A' for Active; 'I' for Inactive)
REMARK    1  A    between atoms: O_1  and  C_2
REMARK    2  A    between atoms: C_2  and  C_3
REMARK    3  A    between atoms: C_7  and  N_8
REMARK    4  A    between atoms: C_12  and  O_13
REMARK                            x       y       z     vdW  Elec       q    Type
REMARK                         _______ _______ _______ _____ _____    ______ ____
ROOT
ATOM      1  N   UNL     1       4.749   4.721  18.757  0.00  0.00    +0.000 N 
ATOM      2  C   UNL     1       4.874   3.385  19.053  0.00  0.00    +0.000 A 
ATOM      3  N   UNL     1       3.923   2.959  19.860  0.00  0.00    +0.000 NA
ATOM      4  C   UNL     1       3.136   4.066  20.070  0.00  0.00    +0.000 A 
ATOM      5  C   UNL     1       1.985   4.270  20.828  0.00  0.00    +0.000 A 
ATOM      6  N   UNL     1       1.399   5.480  20.864  0.00  0.00    +0.000 NA
ATOM      7  C   UNL     1       1.968   6.461  20.132  0.00  0.00    +0.000 A 
ATOM      8  N   UNL     1       3.070   6.394  19.350  0.00  0.00    +0.000 NA
ATOM      9  C   UNL     1       3.611   5.165  19.378  0.00  0.00    +0.000 A 
ENDROOT
BRANCH   1  14
ATOM     10  C   UNL     1       6.382   4.344  16.029  0.00  0.00    +0.000 C 
ATOM     11  C   UNL     1       7.512   4.516  16.983  0.00  0.00    +0.000 C 
ATOM     12  C   UNL     1       7.070   5.169  18.053  0.00  0.00    +0.000 C 
ATOM     13  F   UNL     1       7.859   5.506  19.084  0.00  0.00    +0.000 F 
ATOM     14  C   UNL     1       5.634   5.518  17.919  0.00  0.00    +0.000 C 
ATOM     15  O   UNL     1       5.348   5.240  16.516  0.00  0.00    +0.000 OA
BRANCH  10  16
ATOM     16  C   UNL     1       6.735   4.682  14.579  0.00  0.00    +0.000 C 
BRANCH  16  17
ATOM     17  O   UNL     1       7.868   5.544  14.532  0.00  0.00    +0.000 OA
ATOM     18  H   UNL     1       8.411   5.268  13.773  0.00  0.00    +0.000 HD
ENDBRANCH  16  17
ENDBRANCH  10  16
ENDBRANCH   1  14
BRANCH   5  19
ATOM     19  O   UNL     1       1.409   3.268  21.567  0.00  0.00    +0.000 OA
ATOM     20  H   UNL     1       1.853   2.456  21.259  0.00  0.00    +0.000 HD
ENDBRANCH   5  19
TORSDOF 4
ENDMDL
