MODEL 1
REMARK VINA RESULT:      -7.3      0.000      0.000
REMARK  Name = 
REMARK  7 active torsions:
REMARK  status: ('A' for Active; 'I' for Inactive)
REMARK    1  A    between atoms: C_1  and  N_2
REMARK    2  A    between atoms: N_2  and  C_3
REMARK    3  A    between atoms: N_2  and  C_17
REMARK    4  A    between atoms: C_3  and  C_4
REMARK    5  A    between atoms: C_4  and  N_5
REMARK    6  A    between atoms: N_8  and  C_9
REMARK    7  A    between atoms: C_21  and  N_22
REMARK                            x       y       z     vdW  Elec       q    Type
REMARK                         _______ _______ _______ _____ _____    ______ ____
ROOT
ATOM      1  C   UNL     1       5.427   5.247  19.031  0.00  0.00    +0.000 C 
ENDROOT
BRANCH   1   2
ATOM      2  N   UNL     1       6.533   5.867  18.265  0.00  0.00    +0.000 NA
ATOM      3  C   UNL     1       7.396   4.873  17.591  0.00  0.00    +0.000 C 
ATOM      4  C   UNL     1       6.669   4.048  16.514  0.00  0.00    +0.000 C 
ATOM      5  N   UNL     1       6.120   4.948  15.497  0.00  0.00    +0.000 N 
ATOM      6  C   UNL     1       5.344   6.103  15.972  0.00  0.00    +0.000 C 
ATOM      7  C   UNL     1       6.005   6.777  17.210  0.00  0.00    +0.000 C 
BRANCH   5   8
ATOM      8  C   UNL     1       6.317   4.637  14.166  0.00  0.00    +0.000 A 
ATOM      9  C   UNL     1       5.499   3.694  13.518  0.00  0.00    +0.000 A 
ATOM     10  C   UNL     1       5.783   3.226  12.234  0.00  0.00    +0.000 A 
ATOM     11  C   UNL     1       6.892   3.711  11.555  0.00  0.00    +0.000 A 
ATOM     12  C   UNL     1       7.686   4.689  12.147  0.00  0.00    +0.000 A 
ATOM     13  C   UNL     1       7.390   5.157  13.434  0.00  0.00    +0.000 A 
ENDBRANCH   5   8
ENDBRANCH   1   2
BRANCH   1  14
ATOM     14  C   UNL     1       4.322   6.231  19.492  0.00  0.00    +0.000 C 
BRANCH  14  16
ATOM     15  C   UNL     1       2.320   7.000  18.214  0.00  0.00    +0.000 C 
ATOM     16  N   UNL     1       3.012   5.914  18.903  0.00  0.00    +0.000 N 
BRANCH  16  17
ATOM     17  C   UNL     1       2.342   4.729  19.198  0.00  0.00    +0.000 A 
ATOM     18  C   UNL     1       1.723   3.953  18.204  0.00  0.00    +0.000 A 
ATOM     19  C   UNL     1       1.055   2.759  18.498  0.00  0.00    +0.000 A 
ATOM     20  C   UNL     1       0.969   2.314  19.812  0.00  0.00    +0.000 A 
ATOM     21  C   UNL     1       1.505   3.080  20.841  0.00  0.00    +0.000 A 
ATOM     22  C   UNL     1       2.231   4.240  20.515  0.00  0.00    +0.000 A 
BRANCH  21  23
ATOM     23  N   UNL     1       1.531   2.578  22.151  0.00  0.00    +0.000 N 
ATOM     24  H   UNL     1       1.339   1.582  22.201  0.00  0.00    +0.000 HD
ATOM     25  H   UNL     1       0.954   3.110  22.795  0.00  0.00    +0.000 HD
ENDBRANCH  21  23
ENDBRANCH  16  17
ENDBRANCH  14  16
ENDBRANCH   1  14
TORSDOF 6
ENDMDL
MODEL 2
REMARK VINA RESULT:      -7.0      0.848      1.130
REMARK  Name = 
REMARK  7 active torsions:
REMARK  status: ('A' for Active; 'I' for Inactive)
REMARK    1  A    between atoms: C_1  and  N_2
REMARK    2  A    between atoms: N_2  and  C_3
REMARK    3  A    between atoms: N_2  and  C_17
REMARK    4  A    between atoms: C_3  and  C_4
REMARK    5  A    between atoms: C_4  and  N_5
REMARK    6  A    between atoms: N_8  and  C_9
REMARK    7  A    between atoms: C_21  and  N_22
REMARK                            x       y       z     vdW  Elec       q    Type
REMARK                         _______ _______ _______ _____ _____    ______ ____
ROOT
ATOM      1  C   UNL     1       5.172   5.857  19.131  0.00  0.00    +0.000 C 
ENDROOT
BRANCH   1   2
ATOM      2  N   UNL     1       5.785   4.584  18.685  0.00  0.00    +0.000 NA
ATOM      3  C   UNL     1       4.986   3.891  17.650  0.00  0.00    +0.000 C 
ATOM      4  C   UNL     1       4.860   4.677  16.333  0.00  0.00    +0.000 C 
ATOM      5  N   UNL     1       6.195   4.937  15.789  0.00  0.00    +0.000 N 
ATOM      6  C   UNL     1       7.197   5.495  16.710  0.00  0.00    +0.000 C 
ATOM      7  C   UNL     1       7.139   4.818  18.111  0.00  0.00    +0.000 C 
BRANCH   5   8
ATOM      8  C   UNL     1       6.420   4.695  14.448  0.00  0.00    +0.000 A 
ATOM      9  C   UNL     1       5.627   3.774  13.741  0.00  0.00    +0.000 A 
ATOM     10  C   UNL     1       5.941   3.373  12.441  0.00  0.00    +0.000 A 
ATOM     11  C   UNL     1       7.055   3.904  11.807  0.00  0.00    +0.000 A 
ATOM     12  C   UNL     1       7.825   4.863  12.461  0.00  0.00    +0.000 A 
ATOM     13  C   UNL     1       7.499   5.264  13.763  0.00  0.00    +0.000 A 
ENDBRANCH   5   8
ENDBRANCH   1   2
BRANCH   1  14
ATOM     14  C   UNL     1       3.916   6.291  18.333  0.00  0.00    +0.000 C 
BRANCH  14  16
ATOM     15  C   UNL     1       2.219   7.350  19.825  0.00  0.00    +0.000 C 
ATOM     16  N   UNL     1       2.681   6.157  19.120  0.00  0.00    +0.000 N 
BRANCH  16  17
ATOM     17  C   UNL     1       2.118   4.914  19.397  0.00  0.00    +0.000 A 
ATOM     18  C   UNL     1       1.433   4.170  18.421  0.00  0.00    +0.000 A 
ATOM     19  C   UNL     1       0.871   2.919  18.696  0.00  0.00    +0.000 A 
ATOM     20  C   UNL     1       0.963   2.379  19.973  0.00  0.00    +0.000 A 
ATOM     21  C   UNL     1       1.570   3.104  20.991  0.00  0.00    +0.000 A 
ATOM     22  C   UNL     1       2.187   4.328  20.677  0.00  0.00    +0.000 A 
BRANCH  21  23
ATOM     23  N   UNL     1       1.775   2.515  22.249  0.00  0.00    +0.000 N 
ATOM     24  H   UNL     1       1.585   1.518  22.258  0.00  0.00    +0.000 HD
ATOM     25  H   UNL     1       1.297   3.001  23.001  0.00  0.00    +0.000 HD
ENDBRANCH  21  23
ENDBRANCH  16  17
ENDBRANCH  14  16
ENDBRANCH   1  14
TORSDOF 6
ENDMDL
MODEL 3
REMARK VINA RESULT:      -7.0      1.802      3.503
REMARK  Name = 
REMARK  7 active torsions:
REMARK  status: ('A' for Active; 'I' for Inactive)
REMARK    1  A    between atoms: C_1  and  N_2
REMARK    2  A    between atoms: N_2  and  C_3
REMARK    3  A    between atoms: N_2  and  C_17
REMARK    4  A    between atoms: C_3  and  C_4
REMARK    5  A    between atoms: C_4  and  N_5
REMARK    6  A    between atoms: N_8  and  C_9
REMARK    7  A    between atoms: C_21  and  N_22
REMARK                            x       y       z     vdW  Elec       q    Type
REMARK                         _______ _______ _______ _____ _____    ______ ____
ROOT
ATOM      1  C   UNL     1       4.989   5.468  19.161  0.00  0.00    +0.000 C 
ENDROOT
BRANCH   1   2
ATOM      2  N   UNL     1       5.856   4.363  18.689  0.00  0.00    +0.000 NA
ATOM      3  C   UNL     1       5.214   3.530  17.649  0.00  0.00    +0.000 C 
ATOM      4  C   UNL     1       4.907   4.289  16.347  0.00  0.00    +0.000 C 
ATOM      5  N   UNL     1       6.149   4.838  15.797  0.00  0.00    +0.000 N 
ATOM      6  C   UNL     1       7.019   5.584  16.719  0.00  0.00    +0.000 C 
ATOM      7  C   UNL     1       7.122   4.891  18.109  0.00  0.00    +0.000 C 
BRANCH   5   8
ATOM      8  C   UNL     1       6.407   4.669  14.451  0.00  0.00    +0.000 A 
ATOM      9  C   UNL     1       5.692   3.724  13.695  0.00  0.00    +0.000 A 
ATOM     10  C   UNL     1       6.048   3.401  12.384  0.00  0.00    +0.000 A 
ATOM     11  C   UNL     1       7.128   4.039  11.789  0.00  0.00    +0.000 A 
ATOM     12  C   UNL     1       7.818   5.023  12.492  0.00  0.00    +0.000 A 
ATOM     13  C   UNL     1       7.449   5.344  13.805  0.00  0.00    +0.000 A 
ENDBRANCH   5   8
ENDBRANCH   1   2
BRANCH   1  14
ATOM     14  C   UNL     1       3.681   5.016  19.860  0.00  0.00    +0.000 C 
BRANCH  14  16
ATOM     15  C   UNL     1       1.912   4.820  18.110  0.00  0.00    +0.000 C 
ATOM     16  N   UNL     1       2.484   5.580  19.218  0.00  0.00    +0.000 N 
BRANCH  16  17
ATOM     17  C   UNL     1       2.060   6.883  19.470  0.00  0.00    +0.000 A 
ATOM     18  C   UNL     1       1.579   7.282  20.729  0.00  0.00    +0.000 A 
ATOM     19  C   UNL     1       1.159   8.592  20.985  0.00  0.00    +0.000 A 
ATOM     20  C   UNL     1       1.191   9.544  19.973  0.00  0.00    +0.000 A 
ATOM     21  C   UNL     1       1.594   9.184  18.692  0.00  0.00    +0.000 A 
ATOM     22  C   UNL     1       2.076   7.881  18.475  0.00  0.00    +0.000 A 
BRANCH  21  23
ATOM     23  N   UNL     1       1.746  10.165  17.701  0.00  0.00    +0.000 N 
ATOM     24  H   UNL     1       2.440   9.921  17.000  0.00  0.00    +0.000 HD
ATOM     25  H   UNL     1       1.897  11.096  18.077  0.00  0.00    +0.000 HD
ENDBRANCH  21  23
ENDBRANCH  16  17
ENDBRANCH  14  16
ENDBRANCH   1  14
TORSDOF 6
ENDMDL
MODEL 4
REMARK VINA RESULT:      -7.0      1.228      2.018
REMARK  Name = 
REMARK  7 active torsions:
REMARK  status: ('A' for Active; 'I' for Inactive)
REMARK    1  A    between atoms: C_1  and  N_2
REMARK    2  A    between atoms: N_2  and  C_3
REMARK    3  A    between atoms: N_2  and  C_17
REMARK    4  A    between atoms: C_3  and  C_4
REMARK    5  A    between atoms: C_4  and  N_5
REMARK    6  A    between atoms: N_8  and  C_9
REMARK    7  A    between atoms: C_21  and  N_22
REMARK                            x       y       z     vdW  Elec       q    Type
REMARK                         _______ _______ _______ _____ _____    ______ ____
ROOT
ATOM      1  C   UNL     1       5.238   5.808  19.099  0.00  0.00    +0.000 C 
ENDROOT
BRANCH   1   2
ATOM      2  N   UNL     1       5.846   4.517  18.703  0.00  0.00    +0.000 NA
ATOM      3  C   UNL     1       5.080   3.817  17.649  0.00  0.00    +0.000 C 
ATOM      4  C   UNL     1       5.023   4.580  16.313  0.00  0.00    +0.000 C 
ATOM      5  N   UNL     1       6.384   4.806  15.821  0.00  0.00    +0.000 N 
ATOM      6  C   UNL     1       7.357   5.364  16.773  0.00  0.00    +0.000 C 
ATOM      7  C   UNL     1       7.228   4.716  18.182  0.00  0.00    +0.000 C 
BRANCH   5   8
ATOM      8  C   UNL     1       6.660   4.534  14.496  0.00  0.00    +0.000 A 
ATOM      9  C   UNL     1       7.612   5.289  13.789  0.00  0.00    +0.000 A 
ATOM     10  C   UNL     1       7.784   5.161  12.410  0.00  0.00    +0.000 A 
ATOM     11  C   UNL     1       7.012   4.250  11.703  0.00  0.00    +0.000 A 
ATOM     12  C   UNL     1       6.103   3.445  12.385  0.00  0.00    +0.000 A 
ATOM     13  C   UNL     1       5.941   3.577  13.770  0.00  0.00    +0.000 A 
ENDBRANCH   5   8
ENDBRANCH   1   2
BRANCH   1  14
ATOM     14  C   UNL     1       3.945   6.182  18.330  0.00  0.00    +0.000 C 
BRANCH  14  16
ATOM     15  C   UNL     1       2.237   7.403  19.679  0.00  0.00    +0.000 C 
ATOM     16  N   UNL     1       2.751   6.127  19.188  0.00  0.00    +0.000 N 
BRANCH  16  17
ATOM     17  C   UNL     1       2.282   4.928  19.717  0.00  0.00    +0.000 A 
ATOM     18  C   UNL     1       2.341   4.645  21.093  0.00  0.00    +0.000 A 
ATOM     19  C   UNL     1       1.865   3.443  21.627  0.00  0.00    +0.000 A 
ATOM     20  C   UNL     1       1.329   2.472  20.789  0.00  0.00    +0.000 A 
ATOM     21  C   UNL     1       1.310   2.674  19.414  0.00  0.00    +0.000 A 
ATOM     22  C   UNL     1       1.731   3.917  18.906  0.00  0.00    +0.000 A 
BRANCH  21  23
ATOM     23  N   UNL     1       0.660   1.755  18.576  0.00  0.00    +0.000 N 
ATOM     24  H   UNL     1       1.232   0.947  18.351  0.00  0.00    +0.000 HD
ATOM     25  H   UNL     1       0.260   2.181  17.747  0.00  0.00    +0.000 HD
ENDBRANCH  21  23
ENDBRANCH  16  17
ENDBRANCH  14  16
ENDBRANCH   1  14
TORSDOF 6
ENDMDL
MODEL 5
REMARK VINA RESULT:      -6.9      1.286      1.395
REMARK  Name = 
REMARK  7 active torsions:
REMARK  status: ('A' for Active; 'I' for Inactive)
REMARK    1  A    between atoms: C_1  and  N_2
REMARK    2  A    between atoms: N_2  and  C_3
REMARK    3  A    between atoms: N_2  and  C_17
REMARK    4  A    between atoms: C_3  and  C_4
REMARK    5  A    between atoms: C_4  and  N_5
REMARK    6  A    between atoms: N_8  and  C_9
REMARK    7  A    between atoms: C_21  and  N_22
REMARK                            x       y       z     vdW  Elec       q    Type
REMARK                         _______ _______ _______ _____ _____    ______ ____
ROOT
ATOM      1  C   UNL     1       5.611   5.183  19.204  0.00  0.00    +0.000 C 
ENDROOT
BRANCH   1   2
ATOM      2  N   UNL     1       6.659   5.898  18.439  0.00  0.00    +0.000 NA
ATOM      3  C   UNL     1       7.581   4.985  17.730  0.00  0.00    +0.000 C 
ATOM      4  C   UNL     1       6.900   4.134  16.643  0.00  0.00    +0.000 C 
ATOM      5  N   UNL     1       6.273   5.016  15.654  0.00  0.00    +0.000 N 
ATOM      6  C   UNL     1       5.423   6.101  16.167  0.00  0.00    +0.000 C 
ATOM      7  C   UNL     1       6.052   6.792  17.413  0.00  0.00    +0.000 C 
BRANCH   5   8
ATOM      8  C   UNL     1       6.472   4.751  14.314  0.00  0.00    +0.000 A 
ATOM      9  C   UNL     1       5.683   3.799  13.644  0.00  0.00    +0.000 A 
ATOM     10  C   UNL     1       5.976   3.378  12.345  0.00  0.00    +0.000 A 
ATOM     11  C   UNL     1       7.063   3.921  11.675  0.00  0.00    +0.000 A 
ATOM     12  C   UNL     1       7.826   4.909  12.291  0.00  0.00    +0.000 A 
ATOM     13  C   UNL     1       7.522   5.329  13.592  0.00  0.00    +0.000 A 
ENDBRANCH   5   8
ENDBRANCH   1   2
BRANCH   1  14
ATOM     14  C   UNL     1       4.352   6.026  19.528  0.00  0.00    +0.000 C 
BRANCH  14  16
ATOM     15  C   UNL     1       2.377   6.666  18.142  0.00  0.00    +0.000 C 
ATOM     16  N   UNL     1       3.182   5.605  18.743  0.00  0.00    +0.000 N 
BRANCH  16  17
ATOM     17  C   UNL     1       2.709   4.296  18.774  0.00  0.00    +0.000 A 
ATOM     18  C   UNL     1       1.366   3.992  19.057  0.00  0.00    +0.000 A 
ATOM     19  C   UNL     1       0.889   2.678  19.083  0.00  0.00    +0.000 A 
ATOM     20  C   UNL     1       1.754   1.617  18.844  0.00  0.00    +0.000 A 
ATOM     21  C   UNL     1       3.106   1.859  18.627  0.00  0.00    +0.000 A 
ATOM     22  C   UNL     1       3.550   3.190  18.538  0.00  0.00    +0.000 A 
BRANCH  21  23
ATOM     23  N   UNL     1       3.959   0.806  18.264  0.00  0.00    +0.000 N 
ATOM     24  H   UNL     1       4.717   1.098  17.655  0.00  0.00    +0.000 HD
ATOM     25  H   UNL     1       3.466  -0.002  17.897  0.00  0.00    +0.000 HD
ENDBRANCH  21  23
ENDBRANCH  16  17
ENDBRANCH  14  16
ENDBRANCH   1  14
TORSDOF 6
ENDMDL
MODEL 6
REMARK VINA RESULT:      -6.9      1.847      3.698
REMARK  Name = 
REMARK  7 active torsions:
REMARK  status: ('A' for Active; 'I' for Inactive)
REMARK    1  A    between atoms: C_1  and  N_2
REMARK    2  A    between atoms: N_2  and  C_3
REMARK    3  A    between atoms: N_2  and  C_17
REMARK    4  A    between atoms: C_3  and  C_4
REMARK    5  A    between atoms: C_4  and  N_5
REMARK    6  A    between atoms: N_8  and  C_9
REMARK    7  A    between atoms: C_21  and  N_22
REMARK                            x       y       z     vdW  Elec       q    Type
REMARK                         _______ _______ _______ _____ _____    ______ ____
ROOT
ATOM      1  C   UNL     1       5.002   5.598  19.012  0.00  0.00    +0.000 C 
ENDROOT
BRANCH   1   2
ATOM      2  N   UNL     1       5.834   4.430  18.640  0.00  0.00    +0.000 NA
ATOM      3  C   UNL     1       5.215   3.594  17.588  0.00  0.00    +0.000 C 
ATOM      4  C   UNL     1       5.040   4.318  16.241  0.00  0.00    +0.000 C 
ATOM      5  N   UNL     1       6.346   4.775  15.759  0.00  0.00    +0.000 N 
ATOM      6  C   UNL     1       7.193   5.508  16.712  0.00  0.00    +0.000 C 
ATOM      7  C   UNL     1       7.164   4.865  18.129  0.00  0.00    +0.000 C 
BRANCH   5   8
ATOM      8  C   UNL     1       6.682   4.540  14.441  0.00  0.00    +0.000 A 
ATOM      9  C   UNL     1       7.618   5.355  13.780  0.00  0.00    +0.000 A 
ATOM     10  C   UNL     1       7.843   5.259  12.406  0.00  0.00    +0.000 A 
ATOM     11  C   UNL     1       7.144   4.323  11.658  0.00  0.00    +0.000 A 
ATOM     12  C   UNL     1       6.254   3.461  12.295  0.00  0.00    +0.000 A 
ATOM     13  C   UNL     1       6.038   3.561  13.675  0.00  0.00    +0.000 A 
ENDBRANCH   5   8
ENDBRANCH   1   2
BRANCH   1  14
ATOM     14  C   UNL     1       3.754   5.263  19.867  0.00  0.00    +0.000 C 
BRANCH  14  16
ATOM     15  C   UNL     1       1.939   4.934  18.185  0.00  0.00    +0.000 C 
ATOM     16  N   UNL     1       2.510   5.752  19.252  0.00  0.00    +0.000 N 
BRANCH  16  17
ATOM     17  C   UNL     1       2.032   7.039  19.484  0.00  0.00    +0.000 A 
ATOM     18  C   UNL     1       1.465   7.416  20.713  0.00  0.00    +0.000 A 
ATOM     19  C   UNL     1       0.990   8.711  20.949  0.00  0.00    +0.000 A 
ATOM     20  C   UNL     1       1.053   9.670  19.945  0.00  0.00    +0.000 A 
ATOM     21  C   UNL     1       1.542   9.329  18.689  0.00  0.00    +0.000 A 
ATOM     22  C   UNL     1       2.076   8.042  18.496  0.00  0.00    +0.000 A 
BRANCH  21  23
ATOM     23  N   UNL     1       1.722  10.321  17.712  0.00  0.00    +0.000 N 
ATOM     24  H   UNL     1       2.298  11.094  18.030  0.00  0.00    +0.000 HD
ATOM     25  H   UNL     1       0.852  10.638  17.298  0.00  0.00    +0.000 HD
ENDBRANCH  21  23
ENDBRANCH  16  17
ENDBRANCH  14  16
ENDBRANCH   1  14
TORSDOF 6
ENDMDL
MODEL 7
REMARK VINA RESULT:      -6.8      4.268      8.186
REMARK  Name = 
REMARK  7 active torsions:
REMARK  status: ('A' for Active; 'I' for Inactive)
REMARK    1  A    between atoms: C_1  and  N_2
REMARK    2  A    between atoms: N_2  and  C_3
REMARK    3  A    between atoms: N_2  and  C_17
REMARK    4  A    between atoms: C_3  and  C_4
REMARK    5  A    between atoms: C_4  and  N_5
REMARK    6  A    between atoms: N_8  and  C_9
REMARK    7  A    between atoms: C_21  and  N_22
REMARK                            x       y       z     vdW  Elec       q    Type
REMARK                         _______ _______ _______ _____ _____    ______ ____
ROOT
ATOM      1  C   UNL     1       7.659   7.283  17.542  0.00  0.00    +0.000 C 
ENDROOT
BRANCH   1   2
ATOM      2  N   UNL     1       7.738   5.812  17.699  0.00  0.00    +0.000 NA
ATOM      3  C   UNL     1       7.115   5.332  18.951  0.00  0.00    +0.000 C 
ATOM      4  C   UNL     1       5.600   5.593  19.032  0.00  0.00    +0.000 C 
ATOM      5  N   UNL     1       4.931   4.940  17.904  0.00  0.00    +0.000 N 
ATOM      6  C   UNL     1       5.495   5.172  16.565  0.00  0.00    +0.000 C 
ATOM      7  C   UNL     1       7.051   5.120  16.573  0.00  0.00    +0.000 C 
BRANCH   5   8
ATOM      8  C   UNL     1       3.795   4.196  18.151  0.00  0.00    +0.000 A 
ATOM      9  C   UNL     1       3.806   2.797  18.009  0.00  0.00    +0.000 A 
ATOM     10  C   UNL     1       2.637   2.037  18.074  0.00  0.00    +0.000 A 
ATOM     11  C   UNL     1       1.421   2.665  18.304  0.00  0.00    +0.000 A 
ATOM     12  C   UNL     1       1.386   4.042  18.508  0.00  0.00    +0.000 A 
ATOM     13  C   UNL     1       2.565   4.796  18.447  0.00  0.00    +0.000 A 
ENDBRANCH   5   8
ENDBRANCH   1   2
BRANCH   1  14
ATOM     14  C   UNL     1       8.499   8.093  18.562  0.00  0.00    +0.000 C 
BRANCH  14  16
ATOM     15  C   UNL     1       7.381   9.997  17.399  0.00  0.00    +0.000 C 
ATOM     16  N   UNL     1       8.407   9.543  18.334  0.00  0.00    +0.000 N 
BRANCH  16  17
ATOM     17  C   UNL     1       9.395  10.420  18.774  0.00  0.00    +0.000 A 
ATOM     18  C   UNL     1       9.495  10.820  20.118  0.00  0.00    +0.000 A 
ATOM     19  C   UNL     1      10.490  11.696  20.562  0.00  0.00    +0.000 A 
ATOM     20  C   UNL     1      11.412  12.218  19.663  0.00  0.00    +0.000 A 
ATOM     21  C   UNL     1      11.316  11.908  18.311  0.00  0.00    +0.000 A 
ATOM     22  C   UNL     1      10.350  10.972  17.898  0.00  0.00    +0.000 A 
BRANCH  21  23
ATOM     23  N   UNL     1      12.314  12.331  17.420  0.00  0.00    +0.000 N 
ATOM     24  H   UNL     1      13.248  12.058  17.709  0.00  0.00    +0.000 HD
ATOM     25  H   UNL     1      12.257  13.318  17.194  0.00  0.00    +0.000 HD
ENDBRANCH  21  23
ENDBRANCH  16  17
ENDBRANCH  14  16
ENDBRANCH   1  14
TORSDOF 6
ENDMDL
MODEL 8
REMARK VINA RESULT:      -6.8      1.877      3.720
REMARK  Name = 
REMARK  7 active torsions:
REMARK  status: ('A' for Active; 'I' for Inactive)
REMARK    1  A    between atoms: C_1  and  N_2
REMARK    2  A    between atoms: N_2  and  C_3
REMARK    3  A    between atoms: N_2  and  C_17
REMARK    4  A    between atoms: C_3  and  C_4
REMARK    5  A    between atoms: C_4  and  N_5
REMARK    6  A    between atoms: N_8  and  C_9
REMARK    7  A    between atoms: C_21  and  N_22
REMARK                            x       y       z     vdW  Elec       q    Type
REMARK                         _______ _______ _______ _____ _____    ______ ____
ROOT
ATOM      1  C   UNL     1       4.695   5.024  19.057  0.00  0.00    +0.000 C 
ENDROOT
BRANCH   1   2
ATOM      2  N   UNL     1       5.788   5.841  18.481  0.00  0.00    +0.000 NA
ATOM      3  C   UNL     1       6.923   5.026  17.995  0.00  0.00    +0.000 C 
ATOM      4  C   UNL     1       6.560   4.089  16.830  0.00  0.00    +0.000 C 
ATOM      5  N   UNL     1       6.046   4.879  15.708  0.00  0.00    +0.000 N 
ATOM      6  C   UNL     1       5.002   5.870  16.010  0.00  0.00    +0.000 C 
ATOM      7  C   UNL     1       5.299   6.646  17.327  0.00  0.00    +0.000 C 
BRANCH   5   8
ATOM      8  C   UNL     1       6.528   4.619  14.441  0.00  0.00    +0.000 A 
ATOM      9  C   UNL     1       7.566   5.392  13.893  0.00  0.00    +0.000 A 
ATOM     10  C   UNL     1       7.951   5.274  12.556  0.00  0.00    +0.000 A 
ATOM     11  C   UNL     1       7.312   4.356  11.735  0.00  0.00    +0.000 A 
ATOM     12  C   UNL     1       6.321   3.534  12.266  0.00  0.00    +0.000 A 
ATOM     13  C   UNL     1       5.946   3.655  13.610  0.00  0.00    +0.000 A 
ENDBRANCH   5   8
ENDBRANCH   1   2
BRANCH   1  14
ATOM     14  C   UNL     1       3.265   5.515  18.715  0.00  0.00    +0.000 C 
BRANCH  14  16
ATOM     15  C   UNL     1       2.224   5.048  20.935  0.00  0.00    +0.000 C 
ATOM     16  N   UNL     1       2.552   6.023  19.897  0.00  0.00    +0.000 N 
BRANCH  16  17
ATOM     17  C   UNL     1       1.990   7.296  19.925  0.00  0.00    +0.000 A 
ATOM     18  C   UNL     1       1.335   7.799  21.062  0.00  0.00    +0.000 A 
ATOM     19  C   UNL     1       0.775   9.081  21.093  0.00  0.00    +0.000 A 
ATOM     20  C   UNL     1       0.838   9.897  19.970  0.00  0.00    +0.000 A 
ATOM     21  C   UNL     1       1.414   9.421  18.798  0.00  0.00    +0.000 A 
ATOM     22  C   UNL     1       2.031   8.157  18.810  0.00  0.00    +0.000 A 
BRANCH  21  23
ATOM     23  N   UNL     1       1.591  10.280  17.702  0.00  0.00    +0.000 N 
ATOM     24  H   UNL     1       0.732  10.734  17.408  0.00  0.00    +0.000 HD
ATOM     25  H   UNL     1       2.078   9.844  16.926  0.00  0.00    +0.000 HD
ENDBRANCH  21  23
ENDBRANCH  16  17
ENDBRANCH  14  16
ENDBRANCH   1  14
TORSDOF 6
ENDMDL
MODEL 9
REMARK VINA RESULT:      -6.8      1.743      3.373
REMARK  Name = 
REMARK  7 active torsions:
REMARK  status: ('A' for Active; 'I' for Inactive)
REMARK    1  A    between atoms: C_1  and  N_2
REMARK    2  A    between atoms: N_2  and  C_3
REMARK    3  A    between atoms: N_2  and  C_17
REMARK    4  A    between atoms: C_3  and  C_4
REMARK    5  A    between atoms: C_4  and  N_5
REMARK    6  A    between atoms: N_8  and  C_9
REMARK    7  A    between atoms: C_21  and  N_22
REMARK                            x       y       z     vdW  Elec       q    Type
REMARK                         _______ _______ _______ _____ _____    ______ ____
ROOT
ATOM      1  C   UNL     1       5.307   5.444  19.091  0.00  0.00    +0.000 C 
ENDROOT
BRANCH   1   2
ATOM      2  N   UNL     1       6.297   6.229  18.318  0.00  0.00    +0.000 NA
ATOM      3  C   UNL     1       7.398   5.400  17.781  0.00  0.00    +0.000 C 
ATOM      4  C   UNL     1       6.940   4.345  16.758  0.00  0.00    +0.000 C 
ATOM      5  N   UNL     1       6.274   5.010  15.636  0.00  0.00    +0.000 N 
ATOM      6  C   UNL     1       5.235   5.999  15.963  0.00  0.00    +0.000 C 
ATOM      7  C   UNL     1       5.652   6.905  17.158  0.00  0.00    +0.000 C 
BRANCH   5   8
ATOM      8  C   UNL     1       6.619   4.641  14.351  0.00  0.00    +0.000 A 
ATOM      9  C   UNL     1       7.619   5.334  13.646  0.00  0.00    +0.000 A 
ATOM     10  C   UNL     1       7.863   5.105  12.291  0.00  0.00    +0.000 A 
ATOM     11  C   UNL     1       7.118   4.154  11.609  0.00  0.00    +0.000 A 
ATOM     12  C   UNL     1       6.162   3.409  12.295  0.00  0.00    +0.000 A 
ATOM     13  C   UNL     1       5.927   3.641  13.656  0.00  0.00    +0.000 A 
ENDBRANCH   5   8
ENDBRANCH   1   2
BRANCH   1  14
ATOM     14  C   UNL     1       3.851   5.533  18.565  0.00  0.00    +0.000 C 
BRANCH  14  16
ATOM     15  C   UNL     1       2.475   5.087  20.598  0.00  0.00    +0.000 C 
ATOM     16  N   UNL     1       2.920   6.040  19.585  0.00  0.00    +0.000 N 
BRANCH  16  17
ATOM     17  C   UNL     1       2.292   7.276  19.456  0.00  0.00    +0.000 A 
ATOM     18  C   UNL     1       2.322   8.009  18.258  0.00  0.00    +0.000 A 
ATOM     19  C   UNL     1       1.686   9.247  18.126  0.00  0.00    +0.000 A 
ATOM     20  C   UNL     1       1.012   9.804  19.206  0.00  0.00    +0.000 A 
ATOM     21  C   UNL     1       1.010   9.151  20.434  0.00  0.00    +0.000 A 
ATOM     22  C   UNL     1       1.597   7.876  20.525  0.00  0.00    +0.000 A 
BRANCH  21  23
ATOM     23  N   UNL     1       0.230   9.645  21.491  0.00  0.00    +0.000 N 
ATOM     24  H   UNL     1      -0.767   9.593  21.309  0.00  0.00    +0.000 HD
ATOM     25  H   UNL     1       0.514  10.569  21.801  0.00  0.00    +0.000 HD
ENDBRANCH  21  23
ENDBRANCH  16  17
ENDBRANCH  14  16
ENDBRANCH   1  14
TORSDOF 6
ENDMDL
