MODEL 1
REMARK VINA RESULT:      -7.5      0.000      0.000
REMARK  Name = 
REMARK  6 active torsions:
REMARK  status: ('A' for Active; 'I' for Inactive)
REMARK    1  A    between atoms: C_5  and  C_6
REMARK    2  A    between atoms: C_6  and  N_7
REMARK    3  A    between atoms: C_8  and  C_9
REMARK    4  A    between atoms: N_23  and  C_24
REMARK    5  A    between atoms: C_24  and  C_25
REMARK    6  A    between atoms: C_25  and  N_26
REMARK                            x       y       z     vdW  Elec       q    Type
REMARK                         _______ _______ _______ _____ _____    ______ ____
ROOT
ATOM      1  C   UNL     1       3.984   6.229  19.274  0.00  0.00    +0.000 C 
ENDROOT
BRANCH   1   2
ATOM      2  N   UNL     1       3.658   4.870  18.875  0.00  0.00    +0.000 N 
ATOM      3  C   UNL     1       4.254   4.069  17.908  0.00  0.00    +0.000 A 
ATOM      4  N   UNL     1       3.797   2.829  18.034  0.00  0.00    +0.000 NA
ATOM      5  C   UNL     1       2.902   2.823  19.061  0.00  0.00    +0.000 A 
ATOM      6  C   UNL     1       2.175   1.752  19.600  0.00  0.00    +0.000 A 
ATOM      7  C   UNL     1       1.311   1.994  20.673  0.00  0.00    +0.000 A 
ATOM      8  C   UNL     1       1.161   3.282  21.184  0.00  0.00    +0.000 A 
ATOM      9  C   UNL     1       1.879   4.360  20.652  0.00  0.00    +0.000 A 
ATOM     10  C   UNL     1       2.759   4.094  19.593  0.00  0.00    +0.000 A 
BRANCH   3  11
ATOM     11  C   UNL     1       5.208   4.415  16.831  0.00  0.00    +0.000 A 
ATOM     12  C   UNL     1       6.512   4.887  17.014  0.00  0.00    +0.000 A 
ATOM     13  C   UNL     1       7.344   5.166  15.918  0.00  0.00    +0.000 A 
ATOM     14  C   UNL     1       6.891   4.949  14.620  0.00  0.00    +0.000 A 
ATOM     15 CL   UNL     1       7.918   5.287  13.284  0.00  0.00    +0.000 Cl
ATOM     16  C   UNL     1       5.614   4.448  14.407  0.00  0.00    +0.000 A 
ATOM     17  C   UNL     1       4.787   4.187  15.503  0.00  0.00    +0.000 A 
ENDBRANCH   3  11
ENDBRANCH   1   2
BRANCH   1  22
ATOM     18  S   UNL     1       0.442   9.925  18.277  0.00  0.00    +0.000 S 
ATOM     19  C   UNL     1       1.707   8.856  18.245  0.00  0.00    +0.000 A 
ATOM     20  N   UNL     1       2.541   8.699  17.154  0.00  0.00    +0.000 N 
ATOM     21  N   UNL     1       3.454   7.723  17.389  0.00  0.00    +0.000 NA
ATOM     22  C   UNL     1       3.179   7.301  18.597  0.00  0.00    +0.000 A 
ATOM     23  N   UNL     1       2.154   7.960  19.196  0.00  0.00    +0.000 N 
ATOM     24  H   UNL     1       2.453   9.160  16.255  0.00  0.00    +0.000 HD
BRANCH  23  25
ATOM     25  C   UNL     1       1.431   7.621  20.422  0.00  0.00    +0.000 C 
BRANCH  25  26
ATOM     26  C   UNL     1       1.621   8.575  21.621  0.00  0.00    +0.000 C 
BRANCH  26  27
ATOM     27  N   UNL     1       0.571   9.594  21.789  0.00  0.00    +0.000 NA
ATOM     28  C   UNL     1      -0.034   9.574  23.137  0.00  0.00    +0.000 C 
ATOM     29  C   UNL     1      -1.170  10.600  23.253  0.00  0.00    +0.000 C 
ATOM     30  O   UNL     1      -0.684  11.921  22.980  0.00  0.00    +0.000 OA
ATOM     31  C   UNL     1      -0.131  11.983  21.658  0.00  0.00    +0.000 C 
ATOM     32  C   UNL     1       1.017  10.971  21.485  0.00  0.00    +0.000 C 
ENDBRANCH  26  27
ENDBRANCH  25  26
ENDBRANCH  23  25
ENDBRANCH   1  22
TORSDOF 6
ENDMDL
MODEL 2
REMARK VINA RESULT:      -7.0      4.480      8.749
REMARK  Name = 
REMARK  6 active torsions:
REMARK  status: ('A' for Active; 'I' for Inactive)
REMARK    1  A    between atoms: C_5  and  C_6
REMARK    2  A    between atoms: C_6  and  N_7
REMARK    3  A    between atoms: C_8  and  C_9
REMARK    4  A    between atoms: N_23  and  C_24
REMARK    5  A    between atoms: C_24  and  C_25
REMARK    6  A    between atoms: C_25  and  N_26
REMARK                            x       y       z     vdW  Elec       q    Type
REMARK                         _______ _______ _______ _____ _____    ______ ____
ROOT
ATOM      1  C   UNL     1       1.410  10.010  18.285  0.00  0.00    +0.000 C 
ENDROOT
BRANCH   1   2
ATOM      2  N   UNL     1       0.356  10.975  18.543  0.00  0.00    +0.000 N 
ATOM      3  C   UNL     1       0.456  12.314  18.903  0.00  0.00    +0.000 A 
ATOM      4  N   UNL     1      -0.742  12.876  18.810  0.00  0.00    +0.000 NA
ATOM      5  C   UNL     1      -1.619  11.913  18.411  0.00  0.00    +0.000 A 
ATOM      6  C   UNL     1      -2.991  12.016  18.141  0.00  0.00    +0.000 A 
ATOM      7  C   UNL     1      -3.687  10.874  17.732  0.00  0.00    +0.000 A 
ATOM      8  C   UNL     1      -3.031   9.651  17.612  0.00  0.00    +0.000 A 
ATOM      9  C   UNL     1      -1.662   9.534  17.881  0.00  0.00    +0.000 A 
ATOM     10  C   UNL     1      -0.976  10.695  18.267  0.00  0.00    +0.000 A 
BRANCH   3  11
ATOM     11  C   UNL     1       1.620  13.096  19.375  0.00  0.00    +0.000 A 
ATOM     12  C   UNL     1       1.996  13.278  20.710  0.00  0.00    +0.000 A 
ATOM     13  C   UNL     1       3.135  14.025  21.049  0.00  0.00    +0.000 A 
ATOM     14  C   UNL     1       3.934  14.577  20.052  0.00  0.00    +0.000 A 
ATOM     15 CL   UNL     1       5.331  15.485  20.474  0.00  0.00    +0.000 Cl
ATOM     16  C   UNL     1       3.607  14.384  18.717  0.00  0.00    +0.000 A 
ATOM     17  C   UNL     1       2.462  13.652  18.389  0.00  0.00    +0.000 A 
ENDBRANCH   3  11
ENDBRANCH   1   2
BRANCH   1  22
ATOM     18  S   UNL     1       2.461   5.462  20.613  0.00  0.00    +0.000 S 
ATOM     19  C   UNL     1       2.020   7.013  20.233  0.00  0.00    +0.000 A 
ATOM     20  N   UNL     1       1.443   7.881  21.140  0.00  0.00    +0.000 N 
ATOM     21  N   UNL     1       1.141   9.062  20.543  0.00  0.00    +0.000 NA
ATOM     22  C   UNL     1       1.530   8.911  19.302  0.00  0.00    +0.000 A 
ATOM     23  N   UNL     1       2.103   7.707  19.042  0.00  0.00    +0.000 N 
ATOM     24  H   UNL     1       1.179   7.670  22.096  0.00  0.00    +0.000 HD
BRANCH  23  25
ATOM     25  C   UNL     1       2.438   7.106  17.752  0.00  0.00    +0.000 C 
BRANCH  25  26
ATOM     26  C   UNL     1       3.896   7.277  17.270  0.00  0.00    +0.000 C 
BRANCH  26  27
ATOM     27  N   UNL     1       4.666   6.029  17.134  0.00  0.00    +0.000 NA
ATOM     28  C   UNL     1       5.381   5.935  15.844  0.00  0.00    +0.000 C 
ATOM     29  C   UNL     1       6.115   4.594  15.710  0.00  0.00    +0.000 C 
ATOM     30  O   UNL     1       7.057   4.427  16.777  0.00  0.00    +0.000 OA
ATOM     31  C   UNL     1       6.384   4.468  18.043  0.00  0.00    +0.000 C 
ATOM     32  C   UNL     1       5.629   5.796  18.232  0.00  0.00    +0.000 C 
ENDBRANCH  26  27
ENDBRANCH  25  26
ENDBRANCH  23  25
ENDBRANCH   1  22
TORSDOF 6
ENDMDL
MODEL 3
REMARK VINA RESULT:      -7.0      7.434     10.208
REMARK  Name = 
REMARK  6 active torsions:
REMARK  status: ('A' for Active; 'I' for Inactive)
REMARK    1  A    between atoms: C_5  and  C_6
REMARK    2  A    between atoms: C_6  and  N_7
REMARK    3  A    between atoms: C_8  and  C_9
REMARK    4  A    between atoms: N_23  and  C_24
REMARK    5  A    between atoms: C_24  and  C_25
REMARK    6  A    between atoms: C_25  and  N_26
REMARK                            x       y       z     vdW  Elec       q    Type
REMARK                         _______ _______ _______ _____ _____    ______ ____
ROOT
ATOM      1  C   UNL     1       1.901  15.173  19.885  0.00  0.00    +0.000 C 
ENDROOT
BRANCH   1   2
ATOM      2  N   UNL     1       2.099  16.215  18.893  0.00  0.00    +0.000 N 
ATOM      3  C   UNL     1       3.230  16.512  18.142  0.00  0.00    +0.000 A 
ATOM      4  N   UNL     1       2.904  17.385  17.197  0.00  0.00    +0.000 NA
ATOM      5  C   UNL     1       1.578  17.668  17.339  0.00  0.00    +0.000 A 
ATOM      6  C   UNL     1       0.760  18.505  16.567  0.00  0.00    +0.000 A 
ATOM      7  C   UNL     1      -0.590  18.631  16.907  0.00  0.00    +0.000 A 
ATOM      8  C   UNL     1      -1.109  17.949  18.006  0.00  0.00    +0.000 A 
ATOM      9  C   UNL     1      -0.303  17.112  18.786  0.00  0.00    +0.000 A 
ATOM     10  C   UNL     1       1.044  16.980  18.416  0.00  0.00    +0.000 A 
BRANCH   3  11
ATOM     11  C   UNL     1       4.628  16.050  18.289  0.00  0.00    +0.000 A 
ATOM     12  C   UNL     1       5.169  14.890  17.724  0.00  0.00    +0.000 A 
ATOM     13  C   UNL     1       6.520  14.553  17.910  0.00  0.00    +0.000 A 
ATOM     14  C   UNL     1       7.357  15.390  18.643  0.00  0.00    +0.000 A 
ATOM     15 CL   UNL     1       9.010  14.974  18.861  0.00  0.00    +0.000 Cl
ATOM     16  C   UNL     1       6.857  16.565  19.187  0.00  0.00    +0.000 A 
ATOM     17  C   UNL     1       5.508  16.885  19.009  0.00  0.00    +0.000 A 
ENDBRANCH   3  11
ENDBRANCH   1   2
BRANCH   1  22
ATOM     18  S   UNL     1      -0.810  10.916  18.567  0.00  0.00    +0.000 S 
ATOM     19  C   UNL     1       0.332  12.098  18.776  0.00  0.00    +0.000 A 
ATOM     20  N   UNL     1       1.629  11.990  18.312  0.00  0.00    +0.000 N 
ATOM     21  N   UNL     1       2.355  13.080  18.668  0.00  0.00    +0.000 NA
ATOM     22  C   UNL     1       1.513  13.832  19.331  0.00  0.00    +0.000 A 
ATOM     23  N   UNL     1       0.257  13.321  19.412  0.00  0.00    +0.000 N 
ATOM     24  H   UNL     1       2.043  11.185  17.853  0.00  0.00    +0.000 HD
BRANCH  23  25
ATOM     25  C   UNL     1      -0.862  13.755  20.249  0.00  0.00    +0.000 C 
BRANCH  25  26
ATOM     26  C   UNL     1      -0.882  13.226  21.700  0.00  0.00    +0.000 C 
BRANCH  26  27
ATOM     27  N   UNL     1      -2.195  13.262  22.366  0.00  0.00    +0.000 NA
ATOM     28  C   UNL     1      -3.321  13.292  21.409  0.00  0.00    +0.000 C 
ATOM     29  C   UNL     1      -4.668  13.400  22.138  0.00  0.00    +0.000 C 
ATOM     30  O   UNL     1      -4.846  12.293  23.031  0.00  0.00    +0.000 OA
ATOM     31  C   UNL     1      -3.791  12.265  24.002  0.00  0.00    +0.000 C 
ATOM     32  C   UNL     1      -2.412  12.157  23.325  0.00  0.00    +0.000 C 
ENDBRANCH  26  27
ENDBRANCH  25  26
ENDBRANCH  23  25
ENDBRANCH   1  22
TORSDOF 6
ENDMDL
MODEL 4
REMARK VINA RESULT:      -6.9      4.446      8.596
REMARK  Name = 
REMARK  6 active torsions:
REMARK  status: ('A' for Active; 'I' for Inactive)
REMARK    1  A    between atoms: C_5  and  C_6
REMARK    2  A    between atoms: C_6  and  N_7
REMARK    3  A    between atoms: C_8  and  C_9
REMARK    4  A    between atoms: N_23  and  C_24
REMARK    5  A    between atoms: C_24  and  C_25
REMARK    6  A    between atoms: C_25  and  N_26
REMARK                            x       y       z     vdW  Elec       q    Type
REMARK                         _______ _______ _______ _____ _____    ______ ____
ROOT
ATOM      1  C   UNL     1       1.556   9.978  18.300  0.00  0.00    +0.000 C 
ENDROOT
BRANCH   1   2
ATOM      2  N   UNL     1       0.524  10.977  18.517  0.00  0.00    +0.000 N 
ATOM      3  C   UNL     1       0.655  12.331  18.803  0.00  0.00    +0.000 A 
ATOM      4  N   UNL     1      -0.533  12.912  18.692  0.00  0.00    +0.000 NA
ATOM      5  C   UNL     1      -1.434  11.947  18.355  0.00  0.00    +0.000 A 
ATOM      6  C   UNL     1      -2.806  12.063  18.094  0.00  0.00    +0.000 A 
ATOM      7  C   UNL     1      -3.529  10.915  17.754  0.00  0.00    +0.000 A 
ATOM      8  C   UNL     1      -2.899   9.674  17.694  0.00  0.00    +0.000 A 
ATOM      9  C   UNL     1      -1.529   9.544  17.954  0.00  0.00    +0.000 A 
ATOM     10  C   UNL     1      -0.816  10.710  18.270  0.00  0.00    +0.000 A 
BRANCH   3  11
ATOM     11  C   UNL     1       1.839  13.113  19.220  0.00  0.00    +0.000 A 
ATOM     12  C   UNL     1       2.728  13.771  18.363  0.00  0.00    +0.000 A 
ATOM     13  C   UNL     1       3.813  14.506  18.867  0.00  0.00    +0.000 A 
ATOM     14  C   UNL     1       4.009  14.615  20.241  0.00  0.00    +0.000 A 
ATOM     15 CL   UNL     1       5.337  15.522  20.849  0.00  0.00    +0.000 Cl
ATOM     16  C   UNL     1       3.125  14.002  21.117  0.00  0.00    +0.000 A 
ATOM     17  C   UNL     1       2.056  13.260  20.607  0.00  0.00    +0.000 A 
ENDBRANCH   3  11
ENDBRANCH   1   2
BRANCH   1  22
ATOM     18  S   UNL     1       2.325   5.384  20.649  0.00  0.00    +0.000 S 
ATOM     19  C   UNL     1       1.971   6.956  20.260  0.00  0.00    +0.000 A 
ATOM     20  N   UNL     1       1.419   7.852  21.154  0.00  0.00    +0.000 N 
ATOM     21  N   UNL     1       1.190   9.047  20.551  0.00  0.00    +0.000 NA
ATOM     22  C   UNL     1       1.598   8.875  19.319  0.00  0.00    +0.000 A 
ATOM     23  N   UNL     1       2.115   7.644  19.071  0.00  0.00    +0.000 N 
ATOM     24  H   UNL     1       1.123   7.655  22.104  0.00  0.00    +0.000 HD
BRANCH  23  25
ATOM     25  C   UNL     1       2.448   7.025  17.788  0.00  0.00    +0.000 C 
BRANCH  25  26
ATOM     26  C   UNL     1       3.894   7.225  17.282  0.00  0.00    +0.000 C 
BRANCH  26  27
ATOM     27  N   UNL     1       4.919   6.419  17.969  0.00  0.00    +0.000 NA
ATOM     28  C   UNL     1       4.654   4.967  17.887  0.00  0.00    +0.000 C 
ATOM     29  C   UNL     1       5.703   4.165  18.670  0.00  0.00    +0.000 C 
ATOM     30  O   UNL     1       7.018   4.429  18.165  0.00  0.00    +0.000 OA
ATOM     31  C   UNL     1       7.321   5.826  18.274  0.00  0.00    +0.000 C 
ATOM     32  C   UNL     1       6.298   6.681  17.503  0.00  0.00    +0.000 C 
ENDBRANCH  26  27
ENDBRANCH  25  26
ENDBRANCH  23  25
ENDBRANCH   1  22
TORSDOF 6
ENDMDL
MODEL 5
REMARK VINA RESULT:      -6.9      4.675      7.973
REMARK  Name = 
REMARK  6 active torsions:
REMARK  status: ('A' for Active; 'I' for Inactive)
REMARK    1  A    between atoms: C_5  and  C_6
REMARK    2  A    between atoms: C_6  and  N_7
REMARK    3  A    between atoms: C_8  and  C_9
REMARK    4  A    between atoms: N_23  and  C_24
REMARK    5  A    between atoms: C_24  and  C_25
REMARK    6  A    between atoms: C_25  and  N_26
REMARK                            x       y       z     vdW  Elec       q    Type
REMARK                         _______ _______ _______ _____ _____    ______ ____
ROOT
ATOM      1  C   UNL     1      -1.223  11.276  19.996  0.00  0.00    +0.000 C 
ENDROOT
BRANCH   1   2
ATOM      2  N   UNL     1       0.038  11.876  19.595  0.00  0.00    +0.000 N 
ATOM      3  C   UNL     1       1.191  11.264  19.115  0.00  0.00    +0.000 A 
ATOM      4  N   UNL     1       2.015  12.197  18.656  0.00  0.00    +0.000 NA
ATOM      5  C   UNL     1       1.416  13.406  18.848  0.00  0.00    +0.000 A 
ATOM      6  C   UNL     1       1.869  14.687  18.503  0.00  0.00    +0.000 A 
ATOM      7  C   UNL     1       1.063  15.791  18.800  0.00  0.00    +0.000 A 
ATOM      8  C   UNL     1      -0.161  15.620  19.444  0.00  0.00    +0.000 A 
ATOM      9  C   UNL     1      -0.623  14.347  19.795  0.00  0.00    +0.000 A 
ATOM     10  C   UNL     1       0.188  13.250  19.469  0.00  0.00    +0.000 A 
BRANCH   3  11
ATOM     11  C   UNL     1       1.585   9.838  19.101  0.00  0.00    +0.000 A 
ATOM     12  C   UNL     1       1.455   8.943  20.168  0.00  0.00    +0.000 A 
ATOM     13  C   UNL     1       1.844   7.600  20.041  0.00  0.00    +0.000 A 
ATOM     14  C   UNL     1       2.343   7.125  18.832  0.00  0.00    +0.000 A 
ATOM     15 CL   UNL     1       2.810   5.478  18.683  0.00  0.00    +0.000 Cl
ATOM     16  C   UNL     1       2.452   7.980  17.744  0.00  0.00    +0.000 A 
ATOM     17  C   UNL     1       2.077   9.320  17.884  0.00  0.00    +0.000 A 
ENDBRANCH   3  11
ENDBRANCH   1   2
BRANCH   1  22
ATOM     18  S   UNL     1      -5.374  11.836  16.887  0.00  0.00    +0.000 S 
ATOM     19  C   UNL     1      -3.948  11.396  17.608  0.00  0.00    +0.000 A 
ATOM     20  N   UNL     1      -3.142  10.378  17.134  0.00  0.00    +0.000 N 
ATOM     21  N   UNL     1      -2.069  10.204  17.947  0.00  0.00    +0.000 NA
ATOM     22  C   UNL     1      -2.223  11.099  18.889  0.00  0.00    +0.000 A 
ATOM     23  N   UNL     1      -3.321  11.883  18.737  0.00  0.00    +0.000 N 
ATOM     24  H   UNL     1      -3.341   9.763  16.352  0.00  0.00    +0.000 HD
BRANCH  23  25
ATOM     25  C   UNL     1      -3.929  12.812  19.690  0.00  0.00    +0.000 C 
BRANCH  25  26
ATOM     26  C   UNL     1      -5.183  12.308  20.437  0.00  0.00    +0.000 C 
BRANCH  26  27
ATOM     27  N   UNL     1      -5.069  12.269  21.906  0.00  0.00    +0.000 NA
ATOM     28  C   UNL     1      -3.712  12.609  22.382  0.00  0.00    +0.000 C 
ATOM     29  C   UNL     1      -3.612  12.491  23.910  0.00  0.00    +0.000 C 
ATOM     30  O   UNL     1      -4.560  13.360  24.544  0.00  0.00    +0.000 OA
ATOM     31  C   UNL     1      -5.892  13.024  24.134  0.00  0.00    +0.000 C 
ATOM     32  C   UNL     1      -6.050  13.126  22.606  0.00  0.00    +0.000 C 
ENDBRANCH  26  27
ENDBRANCH  25  26
ENDBRANCH  23  25
ENDBRANCH   1  22
TORSDOF 6
ENDMDL
MODEL 6
REMARK VINA RESULT:      -6.9      7.225     10.022
REMARK  Name = 
REMARK  6 active torsions:
REMARK  status: ('A' for Active; 'I' for Inactive)
REMARK    1  A    between atoms: C_5  and  C_6
REMARK    2  A    between atoms: C_6  and  N_7
REMARK    3  A    between atoms: C_8  and  C_9
REMARK    4  A    between atoms: N_23  and  C_24
REMARK    5  A    between atoms: C_24  and  C_25
REMARK    6  A    between atoms: C_25  and  N_26
REMARK                            x       y       z     vdW  Elec       q    Type
REMARK                         _______ _______ _______ _____ _____    ______ ____
ROOT
ATOM      1  C   UNL     1       2.157  14.933  19.910  0.00  0.00    +0.000 C 
ENDROOT
BRANCH   1   2
ATOM      2  N   UNL     1       2.342  16.023  18.967  0.00  0.00    +0.000 N 
ATOM      3  C   UNL     1       3.488  16.408  18.281  0.00  0.00    +0.000 A 
ATOM      4  N   UNL     1       3.158  17.300  17.356  0.00  0.00    +0.000 NA
ATOM      5  C   UNL     1       1.814  17.508  17.446  0.00  0.00    +0.000 A 
ATOM      6  C   UNL     1       0.988  18.332  16.669  0.00  0.00    +0.000 A 
ATOM      7  C   UNL     1      -0.381  18.373  16.950  0.00  0.00    +0.000 A 
ATOM      8  C   UNL     1      -0.912  17.622  17.998  0.00  0.00    +0.000 A 
ATOM      9  C   UNL     1      -0.097  16.798  18.783  0.00  0.00    +0.000 A 
ATOM     10  C   UNL     1       1.270  16.751  18.470  0.00  0.00    +0.000 A 
BRANCH   3  11
ATOM     11  C   UNL     1       4.901  16.013  18.476  0.00  0.00    +0.000 A 
ATOM     12  C   UNL     1       5.790  16.582  19.393  0.00  0.00    +0.000 A 
ATOM     13  C   UNL     1       7.110  16.117  19.511  0.00  0.00    +0.000 A 
ATOM     14  C   UNL     1       7.550  15.053  18.730  0.00  0.00    +0.000 A 
ATOM     15 CL   UNL     1       9.165  14.484  18.884  0.00  0.00    +0.000 Cl
ATOM     16  C   UNL     1       6.681  14.445  17.834  0.00  0.00    +0.000 A 
ATOM     17  C   UNL     1       5.374  14.925  17.713  0.00  0.00    +0.000 A 
ENDBRANCH   3  11
ENDBRANCH   1   2
BRANCH   1  22
ATOM     18  S   UNL     1      -0.485  10.589  18.744  0.00  0.00    +0.000 S 
ATOM     19  C   UNL     1       0.586  11.851  18.823  0.00  0.00    +0.000 A 
ATOM     20  N   UNL     1       1.730  11.925  18.053  0.00  0.00    +0.000 N 
ATOM     21  N   UNL     1       2.442  13.039  18.362  0.00  0.00    +0.000 NA
ATOM     22  C   UNL     1       1.740  13.627  19.298  0.00  0.00    +0.000 A 
ATOM     23  N   UNL     1       0.584  12.986  19.611  0.00  0.00    +0.000 N 
ATOM     24  H   UNL     1       2.072  11.220  17.409  0.00  0.00    +0.000 HD
BRANCH  23  25
ATOM     25  C   UNL     1      -0.319  13.213  20.739  0.00  0.00    +0.000 C 
BRANCH  25  26
ATOM     26  C   UNL     1      -1.666  13.895  20.417  0.00  0.00    +0.000 C 
BRANCH  26  27
ATOM     27  N   UNL     1      -2.718  13.726  21.434  0.00  0.00    +0.000 NA
ATOM     28  C   UNL     1      -3.853  12.909  20.953  0.00  0.00    +0.000 C 
ATOM     29  C   UNL     1      -4.958  12.812  22.013  0.00  0.00    +0.000 C 
ATOM     30  O   UNL     1      -4.447  12.233  23.221  0.00  0.00    +0.000 OA
ATOM     31  C   UNL     1      -3.372  13.030  23.737  0.00  0.00    +0.000 C 
ATOM     32  C   UNL     1      -2.231  13.162  22.711  0.00  0.00    +0.000 C 
ENDBRANCH  26  27
ENDBRANCH  25  26
ENDBRANCH  23  25
ENDBRANCH   1  22
TORSDOF 6
ENDMDL
MODEL 7
REMARK VINA RESULT:      -6.8      7.167      9.984
REMARK  Name = 
REMARK  6 active torsions:
REMARK  status: ('A' for Active; 'I' for Inactive)
REMARK    1  A    between atoms: C_5  and  C_6
REMARK    2  A    between atoms: C_6  and  N_7
REMARK    3  A    between atoms: C_8  and  C_9
REMARK    4  A    between atoms: N_23  and  C_24
REMARK    5  A    between atoms: C_24  and  C_25
REMARK    6  A    between atoms: C_25  and  N_26
REMARK                            x       y       z     vdW  Elec       q    Type
REMARK                         _______ _______ _______ _____ _____    ______ ____
ROOT
ATOM      1  C   UNL     1       1.910  14.882  19.927  0.00  0.00    +0.000 C 
ENDROOT
BRANCH   1   2
ATOM      2  N   UNL     1       2.185  15.957  18.989  0.00  0.00    +0.000 N 
ATOM      3  C   UNL     1       3.367  16.267  18.327  0.00  0.00    +0.000 A 
ATOM      4  N   UNL     1       3.113  17.178  17.396  0.00  0.00    +0.000 NA
ATOM      5  C   UNL     1       1.784  17.472  17.459  0.00  0.00    +0.000 A 
ATOM      6  C   UNL     1       1.028  18.347  16.667  0.00  0.00    +0.000 A 
ATOM      7  C   UNL     1      -0.341  18.477  16.921  0.00  0.00    +0.000 A 
ATOM      8  C   UNL     1      -0.939  17.762  17.957  0.00  0.00    +0.000 A 
ATOM      9  C   UNL     1      -0.195  16.888  18.757  0.00  0.00    +0.000 A 
ATOM     10  C   UNL     1       1.172  16.752  18.472  0.00  0.00    +0.000 A 
BRANCH   3  11
ATOM     11  C   UNL     1       4.747  15.782  18.549  0.00  0.00    +0.000 A 
ATOM     12  C   UNL     1       5.445  14.895  17.723  0.00  0.00    +0.000 A 
ATOM     13  C   UNL     1       6.764  14.513  18.017  0.00  0.00    +0.000 A 
ATOM     14  C   UNL     1       7.415  15.039  19.129  0.00  0.00    +0.000 A 
ATOM     15 CL   UNL     1       9.032  14.573  19.478  0.00  0.00    +0.000 Cl
ATOM     16  C   UNL     1       6.761  15.949  19.948  0.00  0.00    +0.000 A 
ATOM     17  C   UNL     1       5.443  16.311  19.657  0.00  0.00    +0.000 A 
ENDBRANCH   3  11
ENDBRANCH   1   2
BRANCH   1  22
ATOM     18  S   UNL     1      -0.526  10.464  18.602  0.00  0.00    +0.000 S 
ATOM     19  C   UNL     1       0.505  11.752  18.753  0.00  0.00    +0.000 A 
ATOM     20  N   UNL     1       1.707  11.845  18.078  0.00  0.00    +0.000 N 
ATOM     21  N   UNL     1       2.365  12.979  18.431  0.00  0.00    +0.000 NA
ATOM     22  C   UNL     1       1.576  13.560  19.299  0.00  0.00    +0.000 A 
ATOM     23  N   UNL     1       0.413  12.895  19.524  0.00  0.00    +0.000 N 
ATOM     24  H   UNL     1       2.117  11.142  17.473  0.00  0.00    +0.000 HD
BRANCH  23  25
ATOM     25  C   UNL     1      -0.585  13.111  20.571  0.00  0.00    +0.000 C 
BRANCH  25  26
ATOM     26  C   UNL     1      -0.344  12.384  21.913  0.00  0.00    +0.000 C 
BRANCH  26  27
ATOM     27  N   UNL     1      -1.269  12.746  23.001  0.00  0.00    +0.000 NA
ATOM     28  C   UNL     1      -1.321  14.202  23.246  0.00  0.00    +0.000 C 
ATOM     29  C   UNL     1      -2.241  14.535  24.430  0.00  0.00    +0.000 C 
ATOM     30  O   UNL     1      -3.570  14.056  24.184  0.00  0.00    +0.000 OA
ATOM     31  C   UNL     1      -3.556  12.635  23.987  0.00  0.00    +0.000 C 
ATOM     32  C   UNL     1      -2.646  12.243  22.808  0.00  0.00    +0.000 C 
ENDBRANCH  26  27
ENDBRANCH  25  26
ENDBRANCH  23  25
ENDBRANCH   1  22
TORSDOF 6
ENDMDL
MODEL 8
REMARK VINA RESULT:      -6.8      6.949      9.631
REMARK  Name = 
REMARK  6 active torsions:
REMARK  status: ('A' for Active; 'I' for Inactive)
REMARK    1  A    between atoms: C_5  and  C_6
REMARK    2  A    between atoms: C_6  and  N_7
REMARK    3  A    between atoms: C_8  and  C_9
REMARK    4  A    between atoms: N_23  and  C_24
REMARK    5  A    between atoms: C_24  and  C_25
REMARK    6  A    between atoms: C_25  and  N_26
REMARK                            x       y       z     vdW  Elec       q    Type
REMARK                         _______ _______ _______ _____ _____    ______ ____
ROOT
ATOM      1  C   UNL     1      -2.242  12.874  20.479  0.00  0.00    +0.000 C 
ENDROOT
BRANCH   1   2
ATOM      2  N   UNL     1      -3.669  12.643  20.336  0.00  0.00    +0.000 N 
ATOM      3  C   UNL     1      -4.350  11.908  19.372  0.00  0.00    +0.000 A 
ATOM      4  N   UNL     1      -5.614  11.769  19.749  0.00  0.00    +0.000 NA
ATOM      5  C   UNL     1      -5.763  12.419  20.937  0.00  0.00    +0.000 A 
ATOM      6  C   UNL     1      -6.899  12.534  21.751  0.00  0.00    +0.000 A 
ATOM      7  C   UNL     1      -6.804  13.256  22.945  0.00  0.00    +0.000 A 
ATOM      8  C   UNL     1      -5.605  13.866  23.309  0.00  0.00    +0.000 A 
ATOM      9  C   UNL     1      -4.465  13.761  22.504  0.00  0.00    +0.000 A 
ATOM     10  C   UNL     1      -4.573  13.013  21.322  0.00  0.00    +0.000 A 
BRANCH   3  11
ATOM     11  C   UNL     1      -3.884  11.357  18.080  0.00  0.00    +0.000 A 
ATOM     12  C   UNL     1      -2.838  10.444  17.910  0.00  0.00    +0.000 A 
ATOM     13  C   UNL     1      -2.490   9.967  16.636  0.00  0.00    +0.000 A 
ATOM     14  C   UNL     1      -3.204  10.377  15.514  0.00  0.00    +0.000 A 
ATOM     15 CL   UNL     1      -2.775   9.784  13.959  0.00  0.00    +0.000 Cl
ATOM     16  C   UNL     1      -4.269  11.256  15.655  0.00  0.00    +0.000 A 
ATOM     17  C   UNL     1      -4.599  11.737  16.925  0.00  0.00    +0.000 A 
ENDBRANCH   3  11
ENDBRANCH   1   2
BRANCH   1  22
ATOM     18  S   UNL     1       1.109   9.238  22.140  0.00  0.00    +0.000 S 
ATOM     19  C   UNL     1      -0.078  10.384  21.983  0.00  0.00    +0.000 A 
ATOM     20  N   UNL     1      -0.951  10.717  23.001  0.00  0.00    +0.000 N 
ATOM     21  N   UNL     1      -1.845  11.645  22.577  0.00  0.00    +0.000 NA
ATOM     22  C   UNL     1      -1.518  11.870  21.329  0.00  0.00    +0.000 A 
ATOM     23  N   UNL     1      -0.435  11.168  20.904  0.00  0.00    +0.000 N 
ATOM     24  H   UNL     1      -1.008  10.281  23.915  0.00  0.00    +0.000 HD
BRANCH  23  25
ATOM     25  C   UNL     1       0.070  10.989  19.543  0.00  0.00    +0.000 C 
BRANCH  25  26
ATOM     26  C   UNL     1       1.370  11.741  19.186  0.00  0.00    +0.000 C 
BRANCH  26  27
ATOM     27  N   UNL     1       1.403  13.162  19.573  0.00  0.00    +0.000 NA
ATOM     28  C   UNL     1       2.778  13.682  19.728  0.00  0.00    +0.000 C 
ATOM     29  C   UNL     1       2.772  15.143  20.197  0.00  0.00    +0.000 C 
ATOM     30  O   UNL     1       2.065  15.969  19.263  0.00  0.00    +0.000 OA
ATOM     31  C   UNL     1       0.711  15.516  19.127  0.00  0.00    +0.000 C 
ATOM     32  C   UNL     1       0.657  14.050  18.656  0.00  0.00    +0.000 C 
ENDBRANCH  26  27
ENDBRANCH  25  26
ENDBRANCH  23  25
ENDBRANCH   1  22
TORSDOF 6
ENDMDL
MODEL 9
REMARK VINA RESULT:      -6.8      6.119      9.586
REMARK  Name = 
REMARK  6 active torsions:
REMARK  status: ('A' for Active; 'I' for Inactive)
REMARK    1  A    between atoms: C_5  and  C_6
REMARK    2  A    between atoms: C_6  and  N_7
REMARK    3  A    between atoms: C_8  and  C_9
REMARK    4  A    between atoms: N_23  and  C_24
REMARK    5  A    between atoms: C_24  and  C_25
REMARK    6  A    between atoms: C_25  and  N_26
REMARK                            x       y       z     vdW  Elec       q    Type
REMARK                         _______ _______ _______ _____ _____    ______ ____
ROOT
ATOM      1  C   UNL     1      -1.298  12.173  19.133  0.00  0.00    +0.000 C 
ENDROOT
BRANCH   1   2
ATOM      2  N   UNL     1      -0.562  11.362  20.087  0.00  0.00    +0.000 N 
ATOM      3  C   UNL     1      -0.677  11.310  21.472  0.00  0.00    +0.000 A 
ATOM      4  N   UNL     1       0.017  10.273  21.923  0.00  0.00    +0.000 NA
ATOM      5  C   UNL     1       0.592   9.663  20.849  0.00  0.00    +0.000 A 
ATOM      6  C   UNL     1       1.392   8.513  20.801  0.00  0.00    +0.000 A 
ATOM      7  C   UNL     1       1.866   8.069  19.563  0.00  0.00    +0.000 A 
ATOM      8  C   UNL     1       1.563   8.771  18.397  0.00  0.00    +0.000 A 
ATOM      9  C   UNL     1       0.768   9.923  18.431  0.00  0.00    +0.000 A 
ATOM     10  C   UNL     1       0.283  10.339  19.680  0.00  0.00    +0.000 A 
BRANCH   3  11
ATOM     11  C   UNL     1      -1.375  12.215  22.411  0.00  0.00    +0.000 A 
ATOM     12  C   UNL     1      -2.492  11.885  23.186  0.00  0.00    +0.000 A 
ATOM     13  C   UNL     1      -3.068  12.817  24.064  0.00  0.00    +0.000 A 
ATOM     14  C   UNL     1      -2.515  14.086  24.201  0.00  0.00    +0.000 A 
ATOM     15 CL   UNL     1      -3.221  15.219  25.284  0.00  0.00    +0.000 Cl
ATOM     16  C   UNL     1      -1.386  14.432  23.471  0.00  0.00    +0.000 A 
ATOM     17  C   UNL     1      -0.828  13.503  22.588  0.00  0.00    +0.000 A 
ENDBRANCH   3  11
ENDBRANCH   1   2
BRANCH   1  22
ATOM     18  S   UNL     1      -6.341  11.134  18.301  0.00  0.00    +0.000 S 
ATOM     19  C   UNL     1      -4.685  11.193  18.290  0.00  0.00    +0.000 A 
ATOM     20  N   UNL     1      -3.901  10.339  17.539  0.00  0.00    +0.000 N 
ATOM     21  N   UNL     1      -2.584  10.581  17.763  0.00  0.00    +0.000 NA
ATOM     22  C   UNL     1      -2.574  11.562  18.629  0.00  0.00    +0.000 A 
ATOM     23  N   UNL     1      -3.809  12.011  18.974  0.00  0.00    +0.000 N 
ATOM     24  H   UNL     1      -4.225   9.567  16.966  0.00  0.00    +0.000 HD
BRANCH  23  25
ATOM     25  C   UNL     1      -4.190  12.914  20.061  0.00  0.00    +0.000 C 
BRANCH  25  26
ATOM     26  C   UNL     1      -5.330  12.434  20.986  0.00  0.00    +0.000 C 
BRANCH  26  27
ATOM     27  N   UNL     1      -6.023  13.497  21.735  0.00  0.00    +0.000 NA
ATOM     28  C   UNL     1      -6.449  13.062  23.082  0.00  0.00    +0.000 C 
ATOM     29  C   UNL     1      -7.226  14.171  23.805  0.00  0.00    +0.000 C 
ATOM     30  O   UNL     1      -6.421  15.351  23.930  0.00  0.00    +0.000 OA
ATOM     31  C   UNL     1      -6.030  15.823  22.633  0.00  0.00    +0.000 C 
ATOM     32  C   UNL     1      -5.243  14.747  21.861  0.00  0.00    +0.000 C 
ENDBRANCH  26  27
ENDBRANCH  25  26
ENDBRANCH  23  25
ENDBRANCH   1  22
TORSDOF 6
ENDMDL
