MODEL 1
REMARK VINA RESULT:      -8.4      0.000      0.000
REMARK  Name = 
REMARK  8 active torsions:
REMARK  status: ('A' for Active; 'I' for Inactive)
REMARK    1  A    between atoms: C_2  and  C_3
REMARK    2  A    between atoms: C_3  and  N_4
REMARK    3  A    between atoms: C_10  and  C_11
REMARK    4  A    between atoms: N_16  and  S_17
REMARK    5  A    between atoms: S_17  and  C_20
REMARK    6  A    between atoms: C_23  and  C_24
REMARK    7  A    between atoms: C_24  and  C_25
REMARK    8  A    between atoms: C_24  and  C_26
REMARK                            x       y       z     vdW  Elec       q    Type
REMARK                         _______ _______ _______ _____ _____    ______ ____
ROOT
ATOM      1  C   UNL     1       2.016   9.671  18.139  0.00  0.00    +0.000 C 
ATOM      2  O   UNL     1       2.243  10.449  17.213  0.00  0.00    +0.000 OA
ATOM      3  N   UNL     1       1.234  10.026  19.231  0.00  0.00    +0.000 N 
ATOM      4  C   UNL     1       0.459  11.270  19.153  0.00  0.00    +0.000 C 
ATOM      5  C   UNL     1      -0.983  11.050  19.645  0.00  0.00    +0.000 C 
ATOM      6  N   UNL     1      -1.033  10.392  20.997  0.00  0.00    +0.000 NA
ATOM      7  C   UNL     1      -0.230   9.128  20.994  0.00  0.00    +0.000 C 
ATOM      8  C   UNL     1       1.221   9.405  20.570  0.00  0.00    +0.000 C 
ENDROOT
BRANCH   1  15
ATOM      9  N   UNL     1       5.402   4.915  16.754  0.00  0.00    +0.000 N 
ATOM     10  C   UNL     1       4.215   4.512  17.295  0.00  0.00    +0.000 C 
ATOM     11  O   UNL     1       3.767   3.392  17.460  0.00  0.00    +0.000 OA
ATOM     12  C   UNL     1       3.491   5.722  17.641  0.00  0.00    +0.000 A 
ATOM     13  C   UNL     1       2.217   5.856  18.139  0.00  0.00    +0.000 A 
ATOM     14  C   UNL     1       1.731   7.156  18.260  0.00  0.00    +0.000 A 
ATOM     15  C   UNL     1       2.547   8.284  18.006  0.00  0.00    +0.000 A 
ATOM     16  C   UNL     1       3.842   8.108  17.491  0.00  0.00    +0.000 A 
ATOM     17  C   UNL     1       4.278   6.808  17.304  0.00  0.00    +0.000 A 
ATOM     18  C   UNL     1       5.511   6.285  16.715  0.00  0.00    +0.000 C 
ATOM     19  O   UNL     1       6.397   7.000  16.283  0.00  0.00    +0.000 OA
BRANCH   9  20
ATOM     20  C   UNL     1       6.389   3.971  16.265  0.00  0.00    +0.000 C 
BRANCH  20  22
ATOM     21  C   UNL     1       5.715   3.913  13.845  0.00  0.00    +0.000 C 
ATOM     22  C   UNL     1       6.595   4.239  14.802  0.00  0.00    +0.000 C 
ENDBRANCH  20  22
ENDBRANCH   9  20
ENDBRANCH   1  15
BRANCH   6  23
ATOM     23  S   UNL     1      -0.742  11.401  22.343  0.00  0.00    +0.000 S 
ATOM     24  O   UNL     1      -0.396  10.550  23.463  0.00  0.00    +0.000 OA
ATOM     25  O   UNL     1       0.135  12.471  21.933  0.00  0.00    +0.000 OA
BRANCH  23  26
ATOM     26  C   UNL     1      -2.344  12.082  22.663  0.00  0.00    +0.000 A 
ATOM     27  C   UNL     1      -3.065  12.630  21.604  0.00  0.00    +0.000 A 
ATOM     28  C   UNL     1      -4.352  13.118  21.831  0.00  0.00    +0.000 A 
ATOM     29  C   UNL     1      -4.932  13.045  23.110  0.00  0.00    +0.000 A 
ATOM     30  C   UNL     1      -4.175  12.512  24.167  0.00  0.00    +0.000 A 
ATOM     31  C   UNL     1      -2.884  12.029  23.948  0.00  0.00    +0.000 A 
BRANCH  29  32
ATOM     32  C   UNL     1      -6.370  13.492  23.306  0.00  0.00    +0.000 C 
ATOM     33  C   UNL     1      -6.512  15.005  23.111  0.00  0.00    +0.000 C 
ATOM     34  C   UNL     1      -7.345  12.741  22.399  0.00  0.00    +0.000 C 
ENDBRANCH  29  32
ENDBRANCH  23  26
ENDBRANCH   6  23
TORSDOF 6
ENDMDL
MODEL 2
REMARK VINA RESULT:      -8.2      1.710      2.685
REMARK  Name = 
REMARK  8 active torsions:
REMARK  status: ('A' for Active; 'I' for Inactive)
REMARK    1  A    between atoms: C_2  and  C_3
REMARK    2  A    between atoms: C_3  and  N_4
REMARK    3  A    between atoms: C_10  and  C_11
REMARK    4  A    between atoms: N_16  and  S_17
REMARK    5  A    between atoms: S_17  and  C_20
REMARK    6  A    between atoms: C_23  and  C_24
REMARK    7  A    between atoms: C_24  and  C_25
REMARK    8  A    between atoms: C_24  and  C_26
REMARK                            x       y       z     vdW  Elec       q    Type
REMARK                         _______ _______ _______ _____ _____    ______ ____
ROOT
ATOM      1  C   UNL     1       1.989   9.889  18.216  0.00  0.00    +0.000 C 
ATOM      2  O   UNL     1       2.313  10.603  17.268  0.00  0.00    +0.000 OA
ATOM      3  N   UNL     1       1.153  10.338  19.230  0.00  0.00    +0.000 N 
ATOM      4  C   UNL     1       0.442  11.606  19.032  0.00  0.00    +0.000 C 
ATOM      5  C   UNL     1      -1.038  11.473  19.434  0.00  0.00    +0.000 C 
ATOM      6  N   UNL     1      -1.209  10.895  20.812  0.00  0.00    +0.000 NA
ATOM      7  C   UNL     1      -0.466   9.601  20.933  0.00  0.00    +0.000 C 
ATOM      8  C   UNL     1       1.022   9.793  20.596  0.00  0.00    +0.000 C 
ENDROOT
BRANCH   1  15
ATOM      9  N   UNL     1       2.920   4.109  19.532  0.00  0.00    +0.000 N 
ATOM     10  C   UNL     1       3.752   4.508  18.526  0.00  0.00    +0.000 C 
ATOM     11  O   UNL     1       4.636   3.899  17.951  0.00  0.00    +0.000 OA
ATOM     12  C   UNL     1       3.421   5.893  18.246  0.00  0.00    +0.000 A 
ATOM     13  C   UNL     1       4.027   6.769  17.376  0.00  0.00    +0.000 A 
ATOM     14  C   UNL     1       3.574   8.086  17.404  0.00  0.00    +0.000 A 
ATOM     15  C   UNL     1       2.465   8.476  18.194  0.00  0.00    +0.000 A 
ATOM     16  C   UNL     1       1.876   7.555  19.076  0.00  0.00    +0.000 A 
ATOM     17  C   UNL     1       2.393   6.272  19.089  0.00  0.00    +0.000 A 
ATOM     18  C   UNL     1       2.078   5.119  19.933  0.00  0.00    +0.000 C 
ATOM     19  O   UNL     1       1.231   5.147  20.808  0.00  0.00    +0.000 OA
BRANCH   9  20
ATOM     20  C   UNL     1       2.975   2.774  20.098  0.00  0.00    +0.000 C 
BRANCH  20  22
ATOM     21  C   UNL     1       0.894   2.238  18.797  0.00  0.00    +0.000 C 
ATOM     22  C   UNL     1       2.100   1.886  19.262  0.00  0.00    +0.000 C 
ENDBRANCH  20  22
ENDBRANCH   9  20
ENDBRANCH   1  15
BRANCH   6  23
ATOM     23  S   UNL     1      -0.964  11.966  22.120  0.00  0.00    +0.000 S 
ATOM     24  O   UNL     1      -0.383  11.205  23.207  0.00  0.00    +0.000 OA
ATOM     25  O   UNL     1      -0.312  13.154  21.624  0.00  0.00    +0.000 OA
BRANCH  23  26
ATOM     26  C   UNL     1      -2.619  12.386  22.585  0.00  0.00    +0.000 A 
ATOM     27  C   UNL     1      -3.517  12.774  21.592  0.00  0.00    +0.000 A 
ATOM     28  C   UNL     1      -4.840  13.053  21.937  0.00  0.00    +0.000 A 
ATOM     29  C   UNL     1      -5.276  12.929  23.267  0.00  0.00    +0.000 A 
ATOM     30  C   UNL     1      -4.346  12.561  24.254  0.00  0.00    +0.000 A 
ATOM     31  C   UNL     1      -3.019  12.288  23.917  0.00  0.00    +0.000 A 
BRANCH  29  32
ATOM     32  C   UNL     1      -6.744  13.142  23.597  0.00  0.00    +0.000 C 
ATOM     33  C   UNL     1      -7.164  14.594  23.346  0.00  0.00    +0.000 C 
ATOM     34  C   UNL     1      -7.659  12.179  22.839  0.00  0.00    +0.000 C 
ENDBRANCH  29  32
ENDBRANCH  23  26
ENDBRANCH   6  23
TORSDOF 6
ENDMDL
MODEL 3
REMARK VINA RESULT:      -8.1      1.674      2.824
REMARK  Name = 
REMARK  8 active torsions:
REMARK  status: ('A' for Active; 'I' for Inactive)
REMARK    1  A    between atoms: C_2  and  C_3
REMARK    2  A    between atoms: C_3  and  N_4
REMARK    3  A    between atoms: C_10  and  C_11
REMARK    4  A    between atoms: N_16  and  S_17
REMARK    5  A    between atoms: S_17  and  C_20
REMARK    6  A    between atoms: C_23  and  C_24
REMARK    7  A    between atoms: C_24  and  C_25
REMARK    8  A    between atoms: C_24  and  C_26
REMARK                            x       y       z     vdW  Elec       q    Type
REMARK                         _______ _______ _______ _____ _____    ______ ____
ROOT
ATOM      1  C   UNL     1       2.038   9.842  18.255  0.00  0.00    +0.000 C 
ATOM      2  O   UNL     1       2.335  10.589  17.324  0.00  0.00    +0.000 OA
ATOM      3  N   UNL     1       1.213  10.248  19.296  0.00  0.00    +0.000 N 
ATOM      4  C   UNL     1       0.480  11.510  19.148  0.00  0.00    +0.000 C 
ATOM      5  C   UNL     1      -0.991  11.343  19.571  0.00  0.00    +0.000 C 
ATOM      6  N   UNL     1      -1.129  10.722  20.934  0.00  0.00    +0.000 NA
ATOM      7  C   UNL     1      -0.365   9.436  21.003  0.00  0.00    +0.000 C 
ATOM      8  C   UNL     1       1.113   9.661  20.648  0.00  0.00    +0.000 C 
ENDROOT
BRANCH   1  15
ATOM      9  N   UNL     1       3.111   4.051  19.406  0.00  0.00    +0.000 N 
ATOM     10  C   UNL     1       3.896   4.485  18.376  0.00  0.00    +0.000 C 
ATOM     11  O   UNL     1       4.765   3.904  17.753  0.00  0.00    +0.000 OA
ATOM     12  C   UNL     1       3.532   5.871  18.140  0.00  0.00    +0.000 A 
ATOM     13  C   UNL     1       4.089   6.775  17.267  0.00  0.00    +0.000 A 
ATOM     14  C   UNL     1       3.617   8.083  17.342  0.00  0.00    +0.000 A 
ATOM     15  C   UNL     1       2.535   8.438  18.183  0.00  0.00    +0.000 A 
ATOM     16  C   UNL     1       1.996   7.489  19.068  0.00  0.00    +0.000 A 
ATOM     17  C   UNL     1       2.533   6.214  19.032  0.00  0.00    +0.000 A 
ATOM     18  C   UNL     1       2.270   5.039  19.862  0.00  0.00    +0.000 C 
ATOM     19  O   UNL     1       1.459   5.035  20.771  0.00  0.00    +0.000 OA
BRANCH   9  20
ATOM     20  C   UNL     1       3.209   2.706  19.940  0.00  0.00    +0.000 C 
BRANCH  20  22
ATOM     21  C   UNL     1       1.036   2.061  18.856  0.00  0.00    +0.000 C 
ATOM     22  C   UNL     1       2.330   1.818  19.108  0.00  0.00    +0.000 C 
ENDBRANCH  20  22
ENDBRANCH   9  20
ENDBRANCH   1  15
BRANCH   6  23
ATOM     23  S   UNL     1      -0.878  11.757  22.268  0.00  0.00    +0.000 S 
ATOM     24  O   UNL     1      -0.582  10.927  23.418  0.00  0.00    +0.000 OA
ATOM     25  O   UNL     1       0.025  12.809  21.869  0.00  0.00    +0.000 OA
BRANCH  23  26
ATOM     26  C   UNL     1      -2.483  12.460  22.515  0.00  0.00    +0.000 A 
ATOM     27  C   UNL     1      -3.163  12.182  23.700  0.00  0.00    +0.000 A 
ATOM     28  C   UNL     1      -4.404  12.775  23.932  0.00  0.00    +0.000 A 
ATOM     29  C   UNL     1      -4.963  13.661  22.995  0.00  0.00    +0.000 A 
ATOM     30  C   UNL     1      -4.271  13.905  21.797  0.00  0.00    +0.000 A 
ATOM     31  C   UNL     1      -3.032  13.309  21.554  0.00  0.00    +0.000 A 
BRANCH  29  32
ATOM     32  C   UNL     1      -6.268  14.368  23.319  0.00  0.00    +0.000 C 
ATOM     33  C   UNL     1      -7.186  13.479  24.163  0.00  0.00    +0.000 C 
ATOM     34  C   UNL     1      -6.047  15.717  24.006  0.00  0.00    +0.000 C 
ENDBRANCH  29  32
ENDBRANCH  23  26
ENDBRANCH   6  23
TORSDOF 6
ENDMDL
MODEL 4
REMARK VINA RESULT:      -8.0      0.989      1.431
REMARK  Name = 
REMARK  8 active torsions:
REMARK  status: ('A' for Active; 'I' for Inactive)
REMARK    1  A    between atoms: C_2  and  C_3
REMARK    2  A    between atoms: C_3  and  N_4
REMARK    3  A    between atoms: C_10  and  C_11
REMARK    4  A    between atoms: N_16  and  S_17
REMARK    5  A    between atoms: S_17  and  C_20
REMARK    6  A    between atoms: C_23  and  C_24
REMARK    7  A    between atoms: C_24  and  C_25
REMARK    8  A    between atoms: C_24  and  C_26
REMARK                            x       y       z     vdW  Elec       q    Type
REMARK                         _______ _______ _______ _____ _____    ______ ____
ROOT
ATOM      1  C   UNL     1       1.789   9.945  18.344  0.00  0.00    +0.000 C 
ATOM      2  O   UNL     1       1.943  10.592  17.309  0.00  0.00    +0.000 OA
ATOM      3  N   UNL     1       1.000  10.401  19.392  0.00  0.00    +0.000 N 
ATOM      4  C   UNL     1       0.134  11.561  19.154  0.00  0.00    +0.000 C 
ATOM      5  C   UNL     1      -1.280  11.313  19.711  0.00  0.00    +0.000 C 
ATOM      6  N   UNL     1      -1.260  10.860  21.145  0.00  0.00    +0.000 NA
ATOM      7  C   UNL     1      -0.365   9.670  21.306  0.00  0.00    +0.000 C 
ATOM      8  C   UNL     1       1.054   9.984  20.807  0.00  0.00    +0.000 C 
ENDROOT
BRANCH   1  15
ATOM      9  N   UNL     1       4.916   4.995  17.028  0.00  0.00    +0.000 N 
ATOM     10  C   UNL     1       4.177   4.805  18.161  0.00  0.00    +0.000 C 
ATOM     11  O   UNL     1       4.037   3.809  18.848  0.00  0.00    +0.000 OA
ATOM     12  C   UNL     1       3.500   6.061  18.425  0.00  0.00    +0.000 A 
ATOM     13  C   UNL     1       2.579   6.360  19.401  0.00  0.00    +0.000 A 
ATOM     14  C   UNL     1       1.997   7.624  19.339  0.00  0.00    +0.000 A 
ATOM     15  C   UNL     1       2.420   8.595  18.400  0.00  0.00    +0.000 A 
ATOM     16  C   UNL     1       3.358   8.251  17.413  0.00  0.00    +0.000 A 
ATOM     17  C   UNL     1       3.867   6.965  17.445  0.00  0.00    +0.000 A 
ATOM     18  C   UNL     1       4.773   6.269  16.531  0.00  0.00    +0.000 C 
ATOM     19  O   UNL     1       5.246   6.791  15.537  0.00  0.00    +0.000 OA
BRANCH   9  20
ATOM     20  C   UNL     1       5.718   3.938  16.441  0.00  0.00    +0.000 C 
BRANCH  20  22
ATOM     21  C   UNL     1       7.616   4.816  17.834  0.00  0.00    +0.000 C 
ATOM     22  C   UNL     1       7.161   4.260  16.703  0.00  0.00    +0.000 C 
ENDBRANCH  20  22
ENDBRANCH   9  20
ENDBRANCH   1  15
BRANCH   6  23
ATOM     23  S   UNL     1      -1.024  12.075  22.321  0.00  0.00    +0.000 S 
ATOM     24  O   UNL     1      -0.564  11.429  23.534  0.00  0.00    +0.000 OA
ATOM     25  O   UNL     1      -0.265  13.149  21.726  0.00  0.00    +0.000 OA
BRANCH  23  26
ATOM     26  C   UNL     1      -2.673  12.649  22.614  0.00  0.00    +0.000 A 
ATOM     27  C   UNL     1      -3.349  12.198  23.746  0.00  0.00    +0.000 A 
ATOM     28  C   UNL     1      -4.627  12.686  24.020  0.00  0.00    +0.000 A 
ATOM     29  C   UNL     1      -5.227  13.638  23.178  0.00  0.00    +0.000 A 
ATOM     30  C   UNL     1      -4.536  14.058  22.029  0.00  0.00    +0.000 A 
ATOM     31  C   UNL     1      -3.260  13.567  21.745  0.00  0.00    +0.000 A 
BRANCH  29  32
ATOM     32  C   UNL     1      -6.577  14.225  23.554  0.00  0.00    +0.000 C 
ATOM     33  C   UNL     1      -7.222  14.942  22.364  0.00  0.00    +0.000 C 
ATOM     34  C   UNL     1      -7.530  13.178  24.131  0.00  0.00    +0.000 C 
ENDBRANCH  29  32
ENDBRANCH  23  26
ENDBRANCH   6  23
TORSDOF 6
ENDMDL
MODEL 5
REMARK VINA RESULT:      -7.8      1.618      2.784
REMARK  Name = 
REMARK  8 active torsions:
REMARK  status: ('A' for Active; 'I' for Inactive)
REMARK    1  A    between atoms: C_2  and  C_3
REMARK    2  A    between atoms: C_3  and  N_4
REMARK    3  A    between atoms: C_10  and  C_11
REMARK    4  A    between atoms: N_16  and  S_17
REMARK    5  A    between atoms: S_17  and  C_20
REMARK    6  A    between atoms: C_23  and  C_24
REMARK    7  A    between atoms: C_24  and  C_25
REMARK    8  A    between atoms: C_24  and  C_26
REMARK                            x       y       z     vdW  Elec       q    Type
REMARK                         _______ _______ _______ _____ _____    ______ ____
ROOT
ATOM      1  C   UNL     1       2.036   9.546  18.074  0.00  0.00    +0.000 C 
ATOM      2  O   UNL     1       2.256  10.292  17.120  0.00  0.00    +0.000 OA
ATOM      3  N   UNL     1       1.272   9.942  19.164  0.00  0.00    +0.000 N 
ATOM      4  C   UNL     1       0.505  11.189  19.056  0.00  0.00    +0.000 C 
ATOM      5  C   UNL     1      -0.932  10.994  19.574  0.00  0.00    +0.000 C 
ATOM      6  N   UNL     1      -0.968  10.381  20.947  0.00  0.00    +0.000 NA
ATOM      7  C   UNL     1      -0.174   9.112  20.975  0.00  0.00    +0.000 C 
ATOM      8  C   UNL     1       1.273   9.364  20.522  0.00  0.00    +0.000 C 
ENDROOT
BRANCH   1  15
ATOM      9  N   UNL     1       2.861   3.648  18.812  0.00  0.00    +0.000 N 
ATOM     10  C   UNL     1       3.881   4.183  18.079  0.00  0.00    +0.000 C 
ATOM     11  O   UNL     1       4.893   3.663  17.646  0.00  0.00    +0.000 OA
ATOM     12  C   UNL     1       3.571   5.592  17.913  0.00  0.00    +0.000 A 
ATOM     13  C   UNL     1       4.323   6.580  17.322  0.00  0.00    +0.000 A 
ATOM     14  C   UNL     1       3.827   7.878  17.417  0.00  0.00    +0.000 A 
ATOM     15  C   UNL     1       2.557   8.152  17.978  0.00  0.00    +0.000 A 
ATOM     16  C   UNL     1       1.820   7.117  18.579  0.00  0.00    +0.000 A 
ATOM     17  C   UNL     1       2.367   5.847  18.543  0.00  0.00    +0.000 A 
ATOM     18  C   UNL     1       1.914   4.590  19.138  0.00  0.00    +0.000 C 
ATOM     19  O   UNL     1       0.893   4.496  19.795  0.00  0.00    +0.000 OA
BRANCH   9  20
ATOM     20  C   UNL     1       2.837   2.250  19.199  0.00  0.00    +0.000 C 
BRANCH  20  22
ATOM     21  C   UNL     1       2.598   2.509  21.686  0.00  0.00    +0.000 C 
ATOM     22  C   UNL     1       3.324   2.159  20.616  0.00  0.00    +0.000 C 
ENDBRANCH  20  22
ENDBRANCH   9  20
ENDBRANCH   1  15
BRANCH   6  23
ATOM     23  S   UNL     1      -0.652  11.431  22.256  0.00  0.00    +0.000 S 
ATOM     24  O   UNL     1      -0.378  10.613  23.420  0.00  0.00    +0.000 OA
ATOM     25  O   UNL     1       0.292  12.433  21.823  0.00  0.00    +0.000 OA
BRANCH  23  26
ATOM     26  C   UNL     1      -2.221  12.211  22.508  0.00  0.00    +0.000 A 
ATOM     27  C   UNL     1      -2.765  12.973  21.475  0.00  0.00    +0.000 A 
ATOM     28  C   UNL     1      -4.027  13.546  21.639  0.00  0.00    +0.000 A 
ATOM     29  C   UNL     1      -4.757  13.347  22.823  0.00  0.00    +0.000 A 
ATOM     30  C   UNL     1      -4.176  12.596  23.859  0.00  0.00    +0.000 A 
ATOM     31  C   UNL     1      -2.911  12.027  23.705  0.00  0.00    +0.000 A 
BRANCH  29  32
ATOM     32  C   UNL     1      -6.168  13.899  22.934  0.00  0.00    +0.000 C 
ATOM     33  C   UNL     1      -6.915  13.784  21.601  0.00  0.00    +0.000 C 
ATOM     34  C   UNL     1      -6.968  13.238  24.057  0.00  0.00    +0.000 C 
ENDBRANCH  29  32
ENDBRANCH  23  26
ENDBRANCH   6  23
TORSDOF 6
ENDMDL
MODEL 6
REMARK VINA RESULT:      -7.8      2.480     11.342
REMARK  Name = 
REMARK  8 active torsions:
REMARK  status: ('A' for Active; 'I' for Inactive)
REMARK    1  A    between atoms: C_2  and  C_3
REMARK    2  A    between atoms: C_3  and  N_4
REMARK    3  A    between atoms: C_10  and  C_11
REMARK    4  A    between atoms: N_16  and  S_17
REMARK    5  A    between atoms: S_17  and  C_20
REMARK    6  A    between atoms: C_23  and  C_24
REMARK    7  A    between atoms: C_24  and  C_25
REMARK    8  A    between atoms: C_24  and  C_26
REMARK                            x       y       z     vdW  Elec       q    Type
REMARK                         _______ _______ _______ _____ _____    ______ ____
ROOT
ATOM      1  C   UNL     1       1.975   8.759  18.247  0.00  0.00    +0.000 C 
ATOM      2  O   UNL     1       2.102   9.484  17.260  0.00  0.00    +0.000 OA
ATOM      3  N   UNL     1       2.635   7.543  18.362  0.00  0.00    +0.000 N 
ATOM      4  C   UNL     1       3.700   7.238  17.399  0.00  0.00    +0.000 C 
ATOM      5  C   UNL     1       4.942   6.676  18.114  0.00  0.00    +0.000 C 
ATOM      6  N   UNL     1       4.608   5.529  19.027  0.00  0.00    +0.000 NA
ATOM      7  C   UNL     1       3.525   5.919  19.984  0.00  0.00    +0.000 C 
ATOM      8  C   UNL     1       2.277   6.402  19.228  0.00  0.00    +0.000 C 
ENDROOT
BRANCH   1  15
ATOM      9  N   UNL     1      -1.575  12.173  21.675  0.00  0.00    +0.000 N 
ATOM     10  C   UNL     1      -1.110  11.105  22.387  0.00  0.00    +0.000 C 
ATOM     11  O   UNL     1      -1.263  10.817  23.560  0.00  0.00    +0.000 OA
ATOM     12  C   UNL     1      -0.308  10.317  21.468  0.00  0.00    +0.000 A 
ATOM     13  C   UNL     1       0.442   9.192  21.718  0.00  0.00    +0.000 A 
ATOM     14  C   UNL     1       1.216   8.714  20.664  0.00  0.00    +0.000 A 
ATOM     15  C   UNL     1       1.141   9.279  19.368  0.00  0.00    +0.000 A 
ATOM     16  C   UNL     1       0.370  10.433  19.152  0.00  0.00    +0.000 A 
ATOM     17  C   UNL     1      -0.331  10.938  20.233  0.00  0.00    +0.000 A 
ATOM     18  C   UNL     1      -1.140  12.149  20.370  0.00  0.00    +0.000 C 
ATOM     19  O   UNL     1      -1.323  12.934  19.458  0.00  0.00    +0.000 OA
BRANCH   9  20
ATOM     20  C   UNL     1      -2.404  13.201  22.275  0.00  0.00    +0.000 C 
BRANCH  20  22
ATOM     21  C   UNL     1      -4.638  12.705  21.239  0.00  0.00    +0.000 C 
ATOM     22  C   UNL     1      -3.817  12.695  22.298  0.00  0.00    +0.000 C 
ENDBRANCH  20  22
ENDBRANCH   9  20
ENDBRANCH   1  15
BRANCH   6  23
ATOM     23  S   UNL     1       4.368   4.011  18.282  0.00  0.00    +0.000 S 
ATOM     24  O   UNL     1       5.061   3.017  19.076  0.00  0.00    +0.000 OA
ATOM     25  O   UNL     1       2.964   3.864  17.982  0.00  0.00    +0.000 OA
BRANCH  23  26
ATOM     26  C   UNL     1       5.251   4.190  16.758  0.00  0.00    +0.000 A 
ATOM     27  C   UNL     1       6.636   4.343  16.799  0.00  0.00    +0.000 A 
ATOM     28  C   UNL     1       7.351   4.427  15.604  0.00  0.00    +0.000 A 
ATOM     29  C   UNL     1       6.692   4.340  14.366  0.00  0.00    +0.000 A 
ATOM     30  C   UNL     1       5.293   4.211  14.351  0.00  0.00    +0.000 A 
ATOM     31  C   UNL     1       4.570   4.134  15.543  0.00  0.00    +0.000 A 
BRANCH  29  32
ATOM     32  C   UNL     1       7.506   4.335  13.084  0.00  0.00    +0.000 C 
ATOM     33  C   UNL     1       6.693   3.775  11.912  0.00  0.00    +0.000 C 
ATOM     34  C   UNL     1       8.063   5.716  12.738  0.00  0.00    +0.000 C 
ENDBRANCH  29  32
ENDBRANCH  23  26
ENDBRANCH   6  23
TORSDOF 6
ENDMDL
MODEL 7
REMARK VINA RESULT:      -7.7      2.405     11.341
REMARK  Name = 
REMARK  8 active torsions:
REMARK  status: ('A' for Active; 'I' for Inactive)
REMARK    1  A    between atoms: C_2  and  C_3
REMARK    2  A    between atoms: C_3  and  N_4
REMARK    3  A    between atoms: C_10  and  C_11
REMARK    4  A    between atoms: N_16  and  S_17
REMARK    5  A    between atoms: S_17  and  C_20
REMARK    6  A    between atoms: C_23  and  C_24
REMARK    7  A    between atoms: C_24  and  C_25
REMARK    8  A    between atoms: C_24  and  C_26
REMARK                            x       y       z     vdW  Elec       q    Type
REMARK                         _______ _______ _______ _____ _____    ______ ____
ROOT
ATOM      1  C   UNL     1       2.050   8.642  18.218  0.00  0.00    +0.000 C 
ATOM      2  O   UNL     1       2.154   9.359  17.224  0.00  0.00    +0.000 OA
ATOM      3  N   UNL     1       2.727   7.435  18.336  0.00  0.00    +0.000 N 
ATOM      4  C   UNL     1       3.782   7.134  17.362  0.00  0.00    +0.000 C 
ATOM      5  C   UNL     1       5.041   6.595  18.066  0.00  0.00    +0.000 C 
ATOM      6  N   UNL     1       4.733   5.452  18.995  0.00  0.00    +0.000 NA
ATOM      7  C   UNL     1       3.658   5.838  19.962  0.00  0.00    +0.000 C 
ATOM      8  C   UNL     1       2.394   6.298  19.218  0.00  0.00    +0.000 C 
ENDROOT
BRANCH   1  15
ATOM      9  N   UNL     1      -1.607  11.977  21.611  0.00  0.00    +0.000 N 
ATOM     10  C   UNL     1      -1.036  10.987  22.358  0.00  0.00    +0.000 C 
ATOM     11  O   UNL     1      -1.121  10.755  23.550  0.00  0.00    +0.000 OA
ATOM     12  C   UNL     1      -0.215  10.209  21.448  0.00  0.00    +0.000 A 
ATOM     13  C   UNL     1       0.626   9.157  21.725  0.00  0.00    +0.000 A 
ATOM     14  C   UNL     1       1.392   8.678  20.665  0.00  0.00    +0.000 A 
ATOM     15  C   UNL     1       1.224   9.163  19.346  0.00  0.00    +0.000 A 
ATOM     16  C   UNL     1       0.361  10.244  19.102  0.00  0.00    +0.000 A 
ATOM     17  C   UNL     1      -0.333  10.756  20.184  0.00  0.00    +0.000 A 
ATOM     18  C   UNL     1      -1.224  11.911  20.292  0.00  0.00    +0.000 C 
ATOM     19  O   UNL     1      -1.501  12.628  19.348  0.00  0.00    +0.000 OA
BRANCH   9  20
ATOM     20  C   UNL     1      -2.487  12.974  22.191  0.00  0.00    +0.000 C 
BRANCH  20  22
ATOM     21  C   UNL     1      -4.986  13.152  22.377  0.00  0.00    +0.000 C 
ATOM     22  C   UNL     1      -3.894  12.624  21.806  0.00  0.00    +0.000 C 
ENDBRANCH  20  22
ENDBRANCH   9  20
ENDBRANCH   1  15
BRANCH   6  23
ATOM     23  S   UNL     1       4.503   3.925  18.267  0.00  0.00    +0.000 S 
ATOM     24  O   UNL     1       5.275   2.958  19.021  0.00  0.00    +0.000 OA
ATOM     25  O   UNL     1       3.090   3.729  18.050  0.00  0.00    +0.000 OA
BRANCH  23  26
ATOM     26  C   UNL     1       5.289   4.128  16.694  0.00  0.00    +0.000 A 
ATOM     27  C   UNL     1       4.515   4.023  15.539  0.00  0.00    +0.000 A 
ATOM     28  C   UNL     1       5.110   4.238  14.295  0.00  0.00    +0.000 A 
ATOM     29  C   UNL     1       6.471   4.576  14.200  0.00  0.00    +0.000 A 
ATOM     30  C   UNL     1       7.235   4.650  15.377  0.00  0.00    +0.000 A 
ATOM     31  C   UNL     1       6.648   4.429  16.624  0.00  0.00    +0.000 A 
BRANCH  29  32
ATOM     32  C   UNL     1       7.068   4.901  12.841  0.00  0.00    +0.000 C 
ATOM     33  C   UNL     1       8.460   5.525  12.981  0.00  0.00    +0.000 C 
ATOM     34  C   UNL     1       7.116   3.684  11.916  0.00  0.00    +0.000 C 
ENDBRANCH  29  32
ENDBRANCH  23  26
ENDBRANCH   6  23
TORSDOF 6
ENDMDL
MODEL 8
REMARK VINA RESULT:      -7.7      1.966      2.418
REMARK  Name = 
REMARK  8 active torsions:
REMARK  status: ('A' for Active; 'I' for Inactive)
REMARK    1  A    between atoms: C_2  and  C_3
REMARK    2  A    between atoms: C_3  and  N_4
REMARK    3  A    between atoms: C_10  and  C_11
REMARK    4  A    between atoms: N_16  and  S_17
REMARK    5  A    between atoms: S_17  and  C_20
REMARK    6  A    between atoms: C_23  and  C_24
REMARK    7  A    between atoms: C_24  and  C_25
REMARK    8  A    between atoms: C_24  and  C_26
REMARK                            x       y       z     vdW  Elec       q    Type
REMARK                         _______ _______ _______ _____ _____    ______ ____
ROOT
ATOM      1  C   UNL     1       1.531   9.587  18.610  0.00  0.00    +0.000 C 
ATOM      2  O   UNL     1       1.862   9.847  17.454  0.00  0.00    +0.000 OA
ATOM      3  N   UNL     1       0.762  10.455  19.374  0.00  0.00    +0.000 N 
ATOM      4  C   UNL     1       0.123  11.591  18.700  0.00  0.00    +0.000 C 
ATOM      5  C   UNL     1      -1.346  11.732  19.137  0.00  0.00    +0.000 C 
ATOM      6  N   UNL     1      -1.500  11.754  20.633  0.00  0.00    +0.000 NA
ATOM      7  C   UNL     1      -0.833  10.562  21.246  0.00  0.00    +0.000 C 
ATOM      8  C   UNL     1       0.650  10.501  20.845  0.00  0.00    +0.000 C 
ENDROOT
BRANCH   1  15
ATOM      9  N   UNL     1       3.761   4.044  19.172  0.00  0.00    +0.000 N 
ATOM     10  C   UNL     1       2.996   4.361  20.257  0.00  0.00    +0.000 C 
ATOM     11  O   UNL     1       2.682   3.687  21.221  0.00  0.00    +0.000 OA
ATOM     12  C   UNL     1       2.545   5.727  20.055  0.00  0.00    +0.000 A 
ATOM     13  C   UNL     1       1.685   6.477  20.822  0.00  0.00    +0.000 A 
ATOM     14  C   UNL     1       1.330   7.725  20.317  0.00  0.00    +0.000 A 
ATOM     15  C   UNL     1       1.919   8.248  19.141  0.00  0.00    +0.000 A 
ATOM     16  C   UNL     1       2.788   7.450  18.379  0.00  0.00    +0.000 A 
ATOM     17  C   UNL     1       3.067   6.182  18.859  0.00  0.00    +0.000 A 
ATOM     18  C   UNL     1       3.843   5.086  18.279  0.00  0.00    +0.000 C 
ATOM     19  O   UNL     1       4.404   5.166  17.201  0.00  0.00    +0.000 OA
BRANCH   9  20
ATOM     20  C   UNL     1       4.371   2.738  19.011  0.00  0.00    +0.000 C 
BRANCH  20  22
ATOM     21  C   UNL     1       2.334   2.261  17.620  0.00  0.00    +0.000 C 
ATOM     22  C   UNL     1       3.356   1.834  18.374  0.00  0.00    +0.000 C 
ENDBRANCH  20  22
ENDBRANCH   9  20
ENDBRANCH   1  15
BRANCH   6  23
ATOM     23  S   UNL     1      -1.141  13.232  21.410  0.00  0.00    +0.000 S 
ATOM     24  O   UNL     1      -0.190  12.952  22.467  0.00  0.00    +0.000 OA
ATOM     25  O   UNL     1      -0.850  14.222  20.402  0.00  0.00    +0.000 OA
BRANCH  23  26
ATOM     26  C   UNL     1      -2.683  13.646  22.174  0.00  0.00    +0.000 A 
ATOM     27  C   UNL     1      -3.195  14.931  21.999  0.00  0.00    +0.000 A 
ATOM     28  C   UNL     1      -4.437  15.254  22.547  0.00  0.00    +0.000 A 
ATOM     29  C   UNL     1      -5.180  14.293  23.255  0.00  0.00    +0.000 A 
ATOM     30  C   UNL     1      -4.631  13.013  23.440  0.00  0.00    +0.000 A 
ATOM     31  C   UNL     1      -3.386  12.686  22.901  0.00  0.00    +0.000 A 
BRANCH  29  32
ATOM     32  C   UNL     1      -6.571  14.643  23.755  0.00  0.00    +0.000 C 
ATOM     33  C   UNL     1      -7.361  15.420  22.697  0.00  0.00    +0.000 C 
ATOM     34  C   UNL     1      -7.355  13.412  24.213  0.00  0.00    +0.000 C 
ENDBRANCH  29  32
ENDBRANCH  23  26
ENDBRANCH   6  23
TORSDOF 6
ENDMDL
MODEL 9
REMARK VINA RESULT:      -7.7      4.864      7.952
REMARK  Name = 
REMARK  8 active torsions:
REMARK  status: ('A' for Active; 'I' for Inactive)
REMARK    1  A    between atoms: C_2  and  C_3
REMARK    2  A    between atoms: C_3  and  N_4
REMARK    3  A    between atoms: C_10  and  C_11
REMARK    4  A    between atoms: N_16  and  S_17
REMARK    5  A    between atoms: S_17  and  C_20
REMARK    6  A    between atoms: C_23  and  C_24
REMARK    7  A    between atoms: C_24  and  C_25
REMARK    8  A    between atoms: C_24  and  C_26
REMARK                            x       y       z     vdW  Elec       q    Type
REMARK                         _______ _______ _______ _____ _____    ______ ____
ROOT
ATOM      1  C   UNL     1       0.238  11.923  18.958  0.00  0.00    +0.000 C 
ATOM      2  O   UNL     1      -0.946  12.014  18.636  0.00  0.00    +0.000 OA
ATOM      3  N   UNL     1       1.065  13.035  19.059  0.00  0.00    +0.000 N 
ATOM      4  C   UNL     1       0.447  14.365  19.024  0.00  0.00    +0.000 C 
ATOM      5  C   UNL     1       1.019  15.265  20.134  0.00  0.00    +0.000 C 
ATOM      6  N   UNL     1       2.523  15.299  20.126  0.00  0.00    +0.000 NA
ATOM      7  C   UNL     1       3.079  13.909  20.174  0.00  0.00    +0.000 C 
ATOM      8  C   UNL     1       2.541  13.067  19.006  0.00  0.00    +0.000 C 
ENDROOT
BRANCH   1  15
ATOM      9  N   UNL     1       2.772   6.487  18.794  0.00  0.00    +0.000 N 
ATOM     10  C   UNL     1       2.104   6.665  19.971  0.00  0.00    +0.000 C 
ATOM     11  O   UNL     1       1.919   5.892  20.893  0.00  0.00    +0.000 OA
ATOM     12  C   UNL     1       1.571   8.015  19.939  0.00  0.00    +0.000 A 
ATOM     13  C   UNL     1       0.757   8.646  20.850  0.00  0.00    +0.000 A 
ATOM     14  C   UNL     1       0.295   9.911  20.498  0.00  0.00    +0.000 A 
ATOM     15  C   UNL     1       0.740  10.568  19.325  0.00  0.00    +0.000 A 
ATOM     16  C   UNL     1       1.566   9.888  18.414  0.00  0.00    +0.000 A 
ATOM     17  C   UNL     1       1.951   8.602  18.746  0.00  0.00    +0.000 A 
ATOM     18  C   UNL     1       2.717   7.606  17.997  0.00  0.00    +0.000 C 
ATOM     19  O   UNL     1       3.163   7.811  16.883  0.00  0.00    +0.000 OA
BRANCH   9  20
ATOM     20  C   UNL     1       3.425   5.235  18.456  0.00  0.00    +0.000 C 
BRANCH  20  22
ATOM     21  C   UNL     1       2.633   3.095  17.406  0.00  0.00    +0.000 C 
ATOM     22  C   UNL     1       2.423   4.374  17.743  0.00  0.00    +0.000 C 
ENDBRANCH  20  22
ENDBRANCH   9  20
ENDBRANCH   1  15
BRANCH   6  23
ATOM     23  S   UNL     1       3.253  16.303  18.953  0.00  0.00    +0.000 S 
ATOM     24  O   UNL     1       2.658  15.985  17.671  0.00  0.00    +0.000 OA
ATOM     25  O   UNL     1       3.255  17.659  19.447  0.00  0.00    +0.000 OA
BRANCH  23  26
ATOM     26  C   UNL     1       4.921  15.712  18.930  0.00  0.00    +0.000 A 
ATOM     27  C   UNL     1       5.354  14.966  17.834  0.00  0.00    +0.000 A 
ATOM     28  C   UNL     1       6.682  14.543  17.775  0.00  0.00    +0.000 A 
ATOM     29  C   UNL     1       7.587  14.877  18.797  0.00  0.00    +0.000 A 
ATOM     30  C   UNL     1       7.121  15.608  19.903  0.00  0.00    +0.000 A 
ATOM     31  C   UNL     1       5.792  16.028  19.972  0.00  0.00    +0.000 A 
BRANCH  29  32
ATOM     32  C   UNL     1       9.049  14.488  18.658  0.00  0.00    +0.000 C 
ATOM     33  C   UNL     1       9.209  13.229  17.800  0.00  0.00    +0.000 C 
ATOM     34  C   UNL     1       9.907  15.627  18.106  0.00  0.00    +0.000 C 
ENDBRANCH  29  32
ENDBRANCH  23  26
ENDBRANCH   6  23
TORSDOF 6
ENDMDL
