MODEL 1
REMARK VINA RESULT:      -5.5      0.000      0.000
REMARK  Name = 
REMARK  7 active torsions:
REMARK  status: ('A' for Active; 'I' for Inactive)
REMARK    1  A    between atoms: C_1  and  C_2
REMARK    2  A    between atoms: C_2  and  N_3
REMARK    3  A    between atoms: N_3  and  C_4
REMARK    4  A    between atoms: N_3  and  C_7
REMARK    5  A    between atoms: C_4  and  C_5
REMARK    6  A    between atoms: C_7  and  C_8
REMARK    7  A    between atoms: C_11  and  C_12
REMARK                            x       y       z     vdW  Elec       q    Type
REMARK                         _______ _______ _______ _____ _____    ______ ____
ROOT
ATOM      1  C   UNL     1       4.969   5.665  16.206  0.00  0.00    +0.000 C 
ENDROOT
BRANCH   1   2
ATOM      2  C   UNL     1       3.934   5.222  17.216  0.00  0.00    +0.000 A 
ATOM      3  C   UNL     1       3.402   6.136  18.136  0.00  0.00    +0.000 A 
ATOM      4  C   UNL     1       2.455   5.726  19.075  0.00  0.00    +0.000 A 
ATOM      5  C   UNL     1       2.019   4.396  19.107  0.00  0.00    +0.000 A 
ATOM      6  C   UNL     1       1.013   3.939  20.117  0.00  0.00    +0.000 C 
ATOM      7  C   UNL     1       2.542   3.486  18.180  0.00  0.00    +0.000 A 
ATOM      8  C   UNL     1       3.489   3.895  17.241  0.00  0.00    +0.000 A 
ENDBRANCH   1   2
BRANCH   1   9
ATOM      9  N   UNL     1       6.361   5.325  16.589  0.00  0.00    +0.000 NA
BRANCH   9  11
ATOM     10  C   UNL     1       6.123   3.991  14.440  0.00  0.00    +0.000 C 
ATOM     11  C   UNL     1       7.044   4.684  15.440  0.00  0.00    +0.000 C 
ENDBRANCH   9  11
BRANCH   9  12
ATOM     12  C   UNL     1       7.088   6.527  17.060  0.00  0.00    +0.000 C 
BRANCH  12  13
ATOM     13  C   UNL     1       7.715   6.388  18.459  0.00  0.00    +0.000 C 
ATOM     14 CL   UNL     1       6.660   5.427  19.530  0.00  0.00    +0.000 Cl
ENDBRANCH  12  13
ENDBRANCH   9  12
ENDBRANCH   1   9
TORSDOF 5
ENDMDL
MODEL 2
REMARK VINA RESULT:      -5.4      0.817      1.547
REMARK  Name = 
REMARK  7 active torsions:
REMARK  status: ('A' for Active; 'I' for Inactive)
REMARK    1  A    between atoms: C_1  and  C_2
REMARK    2  A    between atoms: C_2  and  N_3
REMARK    3  A    between atoms: N_3  and  C_4
REMARK    4  A    between atoms: N_3  and  C_7
REMARK    5  A    between atoms: C_4  and  C_5
REMARK    6  A    between atoms: C_7  and  C_8
REMARK    7  A    between atoms: C_11  and  C_12
REMARK                            x       y       z     vdW  Elec       q    Type
REMARK                         _______ _______ _______ _____ _____    ______ ____
ROOT
ATOM      1  C   UNL     1       4.965   5.360  16.212  0.00  0.00    +0.000 C 
ENDROOT
BRANCH   1   2
ATOM      2  C   UNL     1       3.916   4.961  17.227  0.00  0.00    +0.000 A 
ATOM      3  C   UNL     1       3.314   3.697  17.168  0.00  0.00    +0.000 A 
ATOM      4  C   UNL     1       2.339   3.333  18.096  0.00  0.00    +0.000 A 
ATOM      5  C   UNL     1       1.952   4.225  19.104  0.00  0.00    +0.000 A 
ATOM      6  C   UNL     1       0.897   3.852  20.099  0.00  0.00    +0.000 C 
ATOM      7  C   UNL     1       2.562   5.484  19.169  0.00  0.00    +0.000 A 
ATOM      8  C   UNL     1       3.536   5.849  18.241  0.00  0.00    +0.000 A 
ENDBRANCH   1   2
BRANCH   1   9
ATOM      9  N   UNL     1       6.094   4.404  16.114  0.00  0.00    +0.000 NA
BRANCH   9  11
ATOM     10  C   UNL     1       6.035   3.847  13.636  0.00  0.00    +0.000 C 
ATOM     11  C   UNL     1       6.746   4.548  14.790  0.00  0.00    +0.000 C 
ENDBRANCH   9  11
BRANCH   9  12
ATOM     12  C   UNL     1       7.055   4.604  17.225  0.00  0.00    +0.000 C 
BRANCH  12  13
ATOM     13  C   UNL     1       7.381   6.076  17.531  0.00  0.00    +0.000 C 
ATOM     14 CL   UNL     1       8.057   6.245  19.173  0.00  0.00    +0.000 Cl
ENDBRANCH  12  13
ENDBRANCH   9  12
ENDBRANCH   1   9
TORSDOF 5
ENDMDL
MODEL 3
REMARK VINA RESULT:      -5.4      1.811      1.989
REMARK  Name = 
REMARK  7 active torsions:
REMARK  status: ('A' for Active; 'I' for Inactive)
REMARK    1  A    between atoms: C_1  and  C_2
REMARK    2  A    between atoms: C_2  and  N_3
REMARK    3  A    between atoms: N_3  and  C_4
REMARK    4  A    between atoms: N_3  and  C_7
REMARK    5  A    between atoms: C_4  and  C_5
REMARK    6  A    between atoms: C_7  and  C_8
REMARK    7  A    between atoms: C_11  and  C_12
REMARK                            x       y       z     vdW  Elec       q    Type
REMARK                         _______ _______ _______ _____ _____    ______ ____
ROOT
ATOM      1  C   UNL     1       5.093   5.361  18.221  0.00  0.00    +0.000 C 
ENDROOT
BRANCH   1   2
ATOM      2  C   UNL     1       4.125   4.664  19.152  0.00  0.00    +0.000 A 
ATOM      3  C   UNL     1       3.087   5.380  19.764  0.00  0.00    +0.000 A 
ATOM      4  C   UNL     1       2.201   4.741  20.631  0.00  0.00    +0.000 A 
ATOM      5  C   UNL     1       2.333   3.372  20.896  0.00  0.00    +0.000 A 
ATOM      6  C   UNL     1       1.397   2.676  21.835  0.00  0.00    +0.000 C 
ATOM      7  C   UNL     1       3.363   2.655  20.275  0.00  0.00    +0.000 A 
ATOM      8  C   UNL     1       4.250   3.294  19.409  0.00  0.00    +0.000 A 
ENDBRANCH   1   2
BRANCH   1   9
ATOM      9  N   UNL     1       6.018   4.438  17.521  0.00  0.00    +0.000 NA
BRANCH   9  11
ATOM     10  C   UNL     1       5.845   5.351  15.157  0.00  0.00    +0.000 C 
ATOM     11  C   UNL     1       5.540   4.220  16.135  0.00  0.00    +0.000 C 
ENDBRANCH   9  11
BRANCH   9  12
ATOM     12  C   UNL     1       7.406   4.957  17.549  0.00  0.00    +0.000 C 
BRANCH  12  13
ATOM     13  C   UNL     1       7.627   6.136  18.513  0.00  0.00    +0.000 C 
ATOM     14 CL   UNL     1       7.742   7.673  17.616  0.00  0.00    +0.000 Cl
ENDBRANCH  12  13
ENDBRANCH   9  12
ENDBRANCH   1   9
TORSDOF 5
ENDMDL
MODEL 4
REMARK VINA RESULT:      -5.3      1.731      2.107
REMARK  Name = 
REMARK  7 active torsions:
REMARK  status: ('A' for Active; 'I' for Inactive)
REMARK    1  A    between atoms: C_1  and  C_2
REMARK    2  A    between atoms: C_2  and  N_3
REMARK    3  A    between atoms: N_3  and  C_4
REMARK    4  A    between atoms: N_3  and  C_7
REMARK    5  A    between atoms: C_4  and  C_5
REMARK    6  A    between atoms: C_7  and  C_8
REMARK    7  A    between atoms: C_11  and  C_12
REMARK                            x       y       z     vdW  Elec       q    Type
REMARK                         _______ _______ _______ _____ _____    ______ ____
ROOT
ATOM      1  C   UNL     1       4.543   4.078  16.596  0.00  0.00    +0.000 C 
ENDROOT
BRANCH   1   2
ATOM      2  C   UNL     1       3.685   3.744  17.796  0.00  0.00    +0.000 A 
ATOM      3  C   UNL     1       2.314   4.035  17.793  0.00  0.00    +0.000 A 
ATOM      4  C   UNL     1       1.524   3.736  18.903  0.00  0.00    +0.000 A 
ATOM      5  C   UNL     1       2.090   3.136  20.034  0.00  0.00    +0.000 A 
ATOM      6  C   UNL     1       1.257   2.822  21.238  0.00  0.00    +0.000 C 
ATOM      7  C   UNL     1       3.458   2.834  20.032  0.00  0.00    +0.000 A 
ATOM      8  C   UNL     1       4.248   3.133  18.923  0.00  0.00    +0.000 A 
ENDBRANCH   1   2
BRANCH   1   9
ATOM      9  N   UNL     1       5.899   4.564  16.948  0.00  0.00    +0.000 NA
BRANCH   9  11
ATOM     10  C   UNL     1       6.135   3.984  14.486  0.00  0.00    +0.000 C 
ATOM     11  C   UNL     1       6.816   4.333  15.806  0.00  0.00    +0.000 C 
ENDBRANCH   9  11
BRANCH   9  12
ATOM     12  C   UNL     1       5.863   5.992  17.345  0.00  0.00    +0.000 C 
BRANCH  12  13
ATOM     13  C   UNL     1       4.861   6.850  16.553  0.00  0.00    +0.000 C 
ATOM     14 CL   UNL     1       3.549   7.430  17.614  0.00  0.00    +0.000 Cl
ENDBRANCH  12  13
ENDBRANCH   9  12
ENDBRANCH   1   9
TORSDOF 5
ENDMDL
MODEL 5
REMARK VINA RESULT:      -5.3      1.364      1.823
REMARK  Name = 
REMARK  7 active torsions:
REMARK  status: ('A' for Active; 'I' for Inactive)
REMARK    1  A    between atoms: C_1  and  C_2
REMARK    2  A    between atoms: C_2  and  N_3
REMARK    3  A    between atoms: N_3  and  C_4
REMARK    4  A    between atoms: N_3  and  C_7
REMARK    5  A    between atoms: C_4  and  C_5
REMARK    6  A    between atoms: C_7  and  C_8
REMARK    7  A    between atoms: C_11  and  C_12
REMARK                            x       y       z     vdW  Elec       q    Type
REMARK                         _______ _______ _______ _____ _____    ______ ____
ROOT
ATOM      1  C   UNL     1       4.548   4.160  16.315  0.00  0.00    +0.000 C 
ENDROOT
BRANCH   1   2
ATOM      2  C   UNL     1       3.693   3.883  17.531  0.00  0.00    +0.000 A 
ATOM      3  C   UNL     1       4.026   2.847  18.414  0.00  0.00    +0.000 A 
ATOM      4  C   UNL     1       3.231   2.585  19.530  0.00  0.00    +0.000 A 
ATOM      5  C   UNL     1       2.092   3.357  19.786  0.00  0.00    +0.000 A 
ATOM      6  C   UNL     1       1.223   3.078  20.972  0.00  0.00    +0.000 C 
ATOM      7  C   UNL     1       1.766   4.400  18.910  0.00  0.00    +0.000 A 
ATOM      8  C   UNL     1       2.559   4.663  17.794  0.00  0.00    +0.000 A 
ENDBRANCH   1   2
BRANCH   1   9
ATOM      9  N   UNL     1       5.935   4.572  16.641  0.00  0.00    +0.000 NA
BRANCH   9  11
ATOM     10  C   UNL     1       6.023   4.114  14.144  0.00  0.00    +0.000 C 
ATOM     11  C   UNL     1       6.764   4.523  15.413  0.00  0.00    +0.000 C 
ENDBRANCH   9  11
BRANCH   9  12
ATOM     12  C   UNL     1       5.954   5.916  17.265  0.00  0.00    +0.000 C 
BRANCH  12  13
ATOM     13  C   UNL     1       7.192   6.198  18.135  0.00  0.00    +0.000 C 
ATOM     14 CL   UNL     1       7.888   7.794  17.744  0.00  0.00    +0.000 Cl
ENDBRANCH  12  13
ENDBRANCH   9  12
ENDBRANCH   1   9
TORSDOF 5
ENDMDL
MODEL 6
REMARK VINA RESULT:      -5.3      2.394      3.062
REMARK  Name = 
REMARK  7 active torsions:
REMARK  status: ('A' for Active; 'I' for Inactive)
REMARK    1  A    between atoms: C_1  and  C_2
REMARK    2  A    between atoms: C_2  and  N_3
REMARK    3  A    between atoms: N_3  and  C_4
REMARK    4  A    between atoms: N_3  and  C_7
REMARK    5  A    between atoms: C_4  and  C_5
REMARK    6  A    between atoms: C_7  and  C_8
REMARK    7  A    between atoms: C_11  and  C_12
REMARK                            x       y       z     vdW  Elec       q    Type
REMARK                         _______ _______ _______ _____ _____    ______ ____
ROOT
ATOM      1  C   UNL     1       5.194   3.767  16.694  0.00  0.00    +0.000 C 
ENDROOT
BRANCH   1   2
ATOM      2  C   UNL     1       4.070   3.664  17.700  0.00  0.00    +0.000 A 
ATOM      3  C   UNL     1       4.343   3.376  19.044  0.00  0.00    +0.000 A 
ATOM      4  C   UNL     1       3.306   3.271  19.971  0.00  0.00    +0.000 A 
ATOM      5  C   UNL     1       1.976   3.457  19.571  0.00  0.00    +0.000 A 
ATOM      6  C   UNL     1       0.852   3.333  20.551  0.00  0.00    +0.000 C 
ATOM      7  C   UNL     1       1.705   3.756  18.230  0.00  0.00    +0.000 A 
ATOM      8  C   UNL     1       2.742   3.862  17.303  0.00  0.00    +0.000 A 
ENDBRANCH   1   2
BRANCH   1   9
ATOM      9  N   UNL     1       5.481   5.155  16.258  0.00  0.00    +0.000 NA
BRANCH   9  11
ATOM     10  C   UNL     1       7.566   4.669  17.625  0.00  0.00    +0.000 C 
ATOM     11  C   UNL     1       6.595   5.705  17.066  0.00  0.00    +0.000 C 
ENDBRANCH   9  11
BRANCH   9  12
ATOM     12  C   UNL     1       5.779   5.203  14.807  0.00  0.00    +0.000 C 
BRANCH  12  13
ATOM     13  C   UNL     1       6.289   3.877  14.215  0.00  0.00    +0.000 C 
ATOM     14 CL   UNL     1       5.542   3.566  12.625  0.00  0.00    +0.000 Cl
ENDBRANCH  12  13
ENDBRANCH   9  12
ENDBRANCH   1   9
TORSDOF 5
ENDMDL
MODEL 7
REMARK VINA RESULT:      -5.3      1.039      1.222
REMARK  Name = 
REMARK  7 active torsions:
REMARK  status: ('A' for Active; 'I' for Inactive)
REMARK    1  A    between atoms: C_1  and  C_2
REMARK    2  A    between atoms: C_2  and  N_3
REMARK    3  A    between atoms: N_3  and  C_4
REMARK    4  A    between atoms: N_3  and  C_7
REMARK    5  A    between atoms: C_4  and  C_5
REMARK    6  A    between atoms: C_7  and  C_8
REMARK    7  A    between atoms: C_11  and  C_12
REMARK                            x       y       z     vdW  Elec       q    Type
REMARK                         _______ _______ _______ _____ _____    ______ ____
ROOT
ATOM      1  C   UNL     1       4.615   5.581  16.846  0.00  0.00    +0.000 C 
ENDROOT
BRANCH   1   2
ATOM      2  C   UNL     1       3.675   4.984  17.870  0.00  0.00    +0.000 A 
ATOM      3  C   UNL     1       3.779   5.338  19.222  0.00  0.00    +0.000 A 
ATOM      4  C   UNL     1       2.920   4.780  20.168  0.00  0.00    +0.000 A 
ATOM      5  C   UNL     1       1.938   3.861  19.779  0.00  0.00    +0.000 A 
ATOM      6  C   UNL     1       1.018   3.244  20.786  0.00  0.00    +0.000 C 
ATOM      7  C   UNL     1       1.827   3.516  18.426  0.00  0.00    +0.000 A 
ATOM      8  C   UNL     1       2.686   4.074  17.479  0.00  0.00    +0.000 A 
ENDBRANCH   1   2
BRANCH   1   9
ATOM      9  N   UNL     1       5.524   4.591  16.220  0.00  0.00    +0.000 NA
BRANCH   9  11
ATOM     10  C   UNL     1       6.507   4.047  13.942  0.00  0.00    +0.000 C 
ATOM     11  C   UNL     1       5.348   4.624  14.748  0.00  0.00    +0.000 C 
ENDBRANCH   9  11
BRANCH   9  12
ATOM     12  C   UNL     1       6.931   4.842  16.611  0.00  0.00    +0.000 C 
BRANCH  12  13
ATOM     13  C   UNL     1       7.193   6.245  17.188  0.00  0.00    +0.000 C 
ATOM     14 CL   UNL     1       7.866   6.135  18.836  0.00  0.00    +0.000 Cl
ENDBRANCH  12  13
ENDBRANCH   9  12
ENDBRANCH   1   9
TORSDOF 5
ENDMDL
MODEL 8
REMARK VINA RESULT:      -5.3      1.729      2.245
REMARK  Name = 
REMARK  7 active torsions:
REMARK  status: ('A' for Active; 'I' for Inactive)
REMARK    1  A    between atoms: C_1  and  C_2
REMARK    2  A    between atoms: C_2  and  N_3
REMARK    3  A    between atoms: N_3  and  C_4
REMARK    4  A    between atoms: N_3  and  C_7
REMARK    5  A    between atoms: C_4  and  C_5
REMARK    6  A    between atoms: C_7  and  C_8
REMARK    7  A    between atoms: C_11  and  C_12
REMARK                            x       y       z     vdW  Elec       q    Type
REMARK                         _______ _______ _______ _____ _____    ______ ____
ROOT
ATOM      1  C   UNL     1       4.538   3.994  16.686  0.00  0.00    +0.000 C 
ENDROOT
BRANCH   1   2
ATOM      2  C   UNL     1       3.699   3.687  17.907  0.00  0.00    +0.000 A 
ATOM      3  C   UNL     1       4.265   3.040  19.014  0.00  0.00    +0.000 A 
ATOM      4  C   UNL     1       3.490   2.748  20.136  0.00  0.00    +0.000 A 
ATOM      5  C   UNL     1       2.136   3.103  20.174  0.00  0.00    +0.000 A 
ATOM      6  C   UNL     1       1.288   2.784  21.366  0.00  0.00    +0.000 C 
ATOM      7  C   UNL     1       1.574   3.761  19.072  0.00  0.00    +0.000 A 
ATOM      8  C   UNL     1       2.348   4.053  17.950  0.00  0.00    +0.000 A 
ENDBRANCH   1   2
BRANCH   1   9
ATOM      9  N   UNL     1       5.882   4.533  17.004  0.00  0.00    +0.000 NA
BRANCH   9  11
ATOM     10  C   UNL     1       6.046   4.011  14.524  0.00  0.00    +0.000 C 
ATOM     11  C   UNL     1       6.757   4.408  15.814  0.00  0.00    +0.000 C 
ENDBRANCH   9  11
BRANCH   9  12
ATOM     12  C   UNL     1       5.791   5.935  17.475  0.00  0.00    +0.000 C 
BRANCH  12  13
ATOM     13  C   UNL     1       4.878   6.837  16.625  0.00  0.00    +0.000 C 
ATOM     14 CL   UNL     1       3.529   7.472  17.604  0.00  0.00    +0.000 Cl
ENDBRANCH  12  13
ENDBRANCH   9  12
ENDBRANCH   1   9
TORSDOF 5
ENDMDL
MODEL 9
REMARK VINA RESULT:      -5.3      1.092      1.623
REMARK  Name = 
REMARK  7 active torsions:
REMARK  status: ('A' for Active; 'I' for Inactive)
REMARK    1  A    between atoms: C_1  and  C_2
REMARK    2  A    between atoms: C_2  and  N_3
REMARK    3  A    between atoms: N_3  and  C_4
REMARK    4  A    between atoms: N_3  and  C_7
REMARK    5  A    between atoms: C_4  and  C_5
REMARK    6  A    between atoms: C_7  and  C_8
REMARK    7  A    between atoms: C_11  and  C_12
REMARK                            x       y       z     vdW  Elec       q    Type
REMARK                         _______ _______ _______ _____ _____    ______ ____
ROOT
ATOM      1  C   UNL     1       4.090   6.490  17.268  0.00  0.00    +0.000 C 
ENDROOT
BRANCH   1   2
ATOM      2  C   UNL     1       3.305   5.590  18.196  0.00  0.00    +0.000 A 
ATOM      3  C   UNL     1       2.287   4.766  17.696  0.00  0.00    +0.000 A 
ATOM      4  C   UNL     1       1.556   3.944  18.553  0.00  0.00    +0.000 A 
ATOM      5  C   UNL     1       1.833   3.927  19.926  0.00  0.00    +0.000 A 
ATOM      6  C   UNL     1       1.047   3.059  20.859  0.00  0.00    +0.000 C 
ATOM      7  C   UNL     1       2.857   4.742  20.423  0.00  0.00    +0.000 A 
ATOM      8  C   UNL     1       3.588   5.564  19.567  0.00  0.00    +0.000 A 
ENDBRANCH   1   2
BRANCH   1   9
ATOM      9  N   UNL     1       5.500   6.073  17.083  0.00  0.00    +0.000 NA
BRANCH   9  11
ATOM     10  C   UNL     1       5.840   3.965  15.706  0.00  0.00    +0.000 C 
ATOM     11  C   UNL     1       5.666   5.481  15.734  0.00  0.00    +0.000 C 
ENDBRANCH   9  11
BRANCH   9  12
ATOM     12  C   UNL     1       6.422   7.213  17.300  0.00  0.00    +0.000 C 
BRANCH  12  13
ATOM     13  C   UNL     1       7.756   6.838  17.969  0.00  0.00    +0.000 C 
ATOM     14 CL   UNL     1       7.485   5.725  19.337  0.00  0.00    +0.000 Cl
ENDBRANCH  12  13
ENDBRANCH   9  12
ENDBRANCH   1   9
TORSDOF 5
ENDMDL
