MODEL 1
REMARK VINA RESULT:      -8.7      0.000      0.000
REMARK  Name = 
REMARK  1 active torsions:
REMARK  status: ('A' for Active; 'I' for Inactive)
REMARK    1  A    between atoms: C_4  and  C_5
REMARK                            x       y       z     vdW  Elec       q    Type
REMARK                         _______ _______ _______ _____ _____    ______ ____
ROOT
ATOM      1  C   UNL     1       2.782   7.243  18.197  0.00  0.00    +0.000 A 
ATOM      2  N   UNL     1       2.366   6.032  18.629  0.00  0.00    +0.000 NA
ATOM      3  C   UNL     1       3.011   4.925  18.187  0.00  0.00    +0.000 A 
ATOM      4  N   UNL     1       2.590   3.707  18.735  0.00  0.00    +0.000 N 
ATOM      5  C   UNL     1       1.194   3.582  19.152  0.00  0.00    +0.000 C 
ATOM      6  C   UNL     1       0.995   3.852  20.645  0.00  0.00    +0.000 C 
ATOM      7  C   UNL     1       1.463   2.732  21.572  0.00  0.00    +0.000 C 
ATOM      8  C   UNL     1       2.932   2.351  21.423  0.00  0.00    +0.000 C 
ATOM      9  C   UNL     1       3.201   1.655  20.099  0.00  0.00    +0.000 C 
ATOM     10  C   UNL     1       3.515   2.596  18.943  0.00  0.00    +0.000 C 
ATOM     11  C   UNL     1       4.058   5.039  17.224  0.00  0.00    +0.000 A 
ATOM     12  C   UNL     1       4.750   3.989  16.550  0.00  0.00    +0.000 A 
ATOM     13  C   UNL     1       5.796   4.221  15.658  0.00  0.00    +0.000 A 
ATOM     14  C   UNL     1       6.152   5.523  15.369  0.00  0.00    +0.000 A 
ATOM     15  C   UNL     1       5.449   6.568  15.965  0.00  0.00    +0.000 A 
ATOM     16  C   UNL     1       4.416   6.349  16.871  0.00  0.00    +0.000 A 
ATOM     17  N   UNL     1       3.803   7.426  17.349  0.00  0.00    +0.000 NA
ENDROOT
BRANCH   1  21
ATOM     18  C   UNL     1       0.730  10.680  19.671  0.00  0.00    +0.000 A 
ATOM     19  C   UNL     1       1.281  10.731  18.396  0.00  0.00    +0.000 A 
ATOM     20  C   UNL     1       1.955   9.613  17.894  0.00  0.00    +0.000 A 
ATOM     21  C   UNL     1       2.067   8.462  18.674  0.00  0.00    +0.000 A 
ATOM     22  N   UNL     1       1.519   8.418  19.927  0.00  0.00    +0.000 NA
ATOM     23  C   UNL     1       0.874   9.510  20.391  0.00  0.00    +0.000 A 
ENDBRANCH   1  21
TORSDOF 1
ENDMDL
MODEL 2
REMARK VINA RESULT:      -8.6      0.626      1.007
REMARK  Name = 
REMARK  1 active torsions:
REMARK  status: ('A' for Active; 'I' for Inactive)
REMARK    1  A    between atoms: C_4  and  C_5
REMARK                            x       y       z     vdW  Elec       q    Type
REMARK                         _______ _______ _______ _____ _____    ______ ____
ROOT
ATOM      1  C   UNL     1       2.844   7.264  18.096  0.00  0.00    +0.000 A 
ATOM      2  N   UNL     1       2.401   6.067  18.541  0.00  0.00    +0.000 NA
ATOM      3  C   UNL     1       3.034   4.943  18.128  0.00  0.00    +0.000 A 
ATOM      4  N   UNL     1       2.583   3.741  18.689  0.00  0.00    +0.000 N 
ATOM      5  C   UNL     1       1.178   3.647  19.084  0.00  0.00    +0.000 C 
ATOM      6  C   UNL     1       0.959   3.945  20.568  0.00  0.00    +0.000 C 
ATOM      7  C   UNL     1       1.392   2.832  21.522  0.00  0.00    +0.000 C 
ATOM      8  C   UNL     1       2.856   2.425  21.404  0.00  0.00    +0.000 C 
ATOM      9  C   UNL     1       3.136   1.702  20.097  0.00  0.00    +0.000 C 
ATOM     10  C   UNL     1       3.485   2.619  18.931  0.00  0.00    +0.000 C 
ATOM     11  C   UNL     1       4.100   5.023  17.182  0.00  0.00    +0.000 A 
ATOM     12  C   UNL     1       4.785   3.950  16.537  0.00  0.00    +0.000 A 
ATOM     13  C   UNL     1       5.849   4.150  15.660  0.00  0.00    +0.000 A 
ATOM     14  C   UNL     1       6.233   5.440  15.356  0.00  0.00    +0.000 A 
ATOM     15  C   UNL     1       5.537   6.507  15.922  0.00  0.00    +0.000 A 
ATOM     16  C   UNL     1       4.485   6.321  16.814  0.00  0.00    +0.000 A 
ATOM     17  N   UNL     1       3.883   7.416  17.264  0.00  0.00    +0.000 NA
ENDROOT
BRANCH   1  21
ATOM     18  C   UNL     1       0.856  10.854  19.258  0.00  0.00    +0.000 A 
ATOM     19  C   UNL     1       0.800   9.758  20.110  0.00  0.00    +0.000 A 
ATOM     20  C   UNL     1       1.448   8.572  19.748  0.00  0.00    +0.000 A 
ATOM     21  C   UNL     1       2.142   8.502  18.540  0.00  0.00    +0.000 A 
ATOM     22  N   UNL     1       2.196   9.587  17.708  0.00  0.00    +0.000 NA
ATOM     23  C   UNL     1       1.562  10.721  18.079  0.00  0.00    +0.000 A 
ENDBRANCH   1  21
TORSDOF 1
ENDMDL
MODEL 3
REMARK VINA RESULT:      -8.0      1.202      4.475
REMARK  Name = 
REMARK  1 active torsions:
REMARK  status: ('A' for Active; 'I' for Inactive)
REMARK    1  A    between atoms: C_4  and  C_5
REMARK                            x       y       z     vdW  Elec       q    Type
REMARK                         _______ _______ _______ _____ _____    ______ ____
ROOT
ATOM      1  C   UNL     1       2.394   6.811  19.481  0.00  0.00    +0.000 A 
ATOM      2  N   UNL     1       3.447   6.514  18.687  0.00  0.00    +0.000 NA
ATOM      3  C   UNL     1       3.982   5.271  18.752  0.00  0.00    +0.000 A 
ATOM      4  N   UNL     1       5.015   4.997  17.846  0.00  0.00    +0.000 N 
ATOM      5  C   UNL     1       5.868   6.104  17.416  0.00  0.00    +0.000 C 
ATOM      6  C   UNL     1       5.420   6.716  16.088  0.00  0.00    +0.000 C 
ATOM      7  C   UNL     1       5.735   5.877  14.850  0.00  0.00    +0.000 C 
ATOM      8  C   UNL     1       5.147   4.471  14.866  0.00  0.00    +0.000 C 
ATOM      9  C   UNL     1       5.828   3.587  15.898  0.00  0.00    +0.000 C 
ATOM     10  C   UNL     1       5.218   3.662  17.292  0.00  0.00    +0.000 C 
ATOM     11  C   UNL     1       3.487   4.323  19.697  0.00  0.00    +0.000 A 
ATOM     12  C   UNL     1       4.009   3.029  20.000  0.00  0.00    +0.000 A 
ATOM     13  C   UNL     1       3.410   2.166  20.916  0.00  0.00    +0.000 A 
ATOM     14  C   UNL     1       2.291   2.591  21.603  0.00  0.00    +0.000 A 
ATOM     15  C   UNL     1       1.800   3.875  21.372  0.00  0.00    +0.000 A 
ATOM     16  C   UNL     1       2.377   4.739  20.447  0.00  0.00    +0.000 A 
ATOM     17  N   UNL     1       1.835   5.947  20.339  0.00  0.00    +0.000 NA
ENDROOT
BRANCH   1  21
ATOM     18  C   UNL     1       0.706  10.728  19.424  0.00  0.00    +0.000 A 
ATOM     19  C   UNL     1       1.294  10.241  18.262  0.00  0.00    +0.000 A 
ATOM     20  C   UNL     1       1.851   8.957  18.261  0.00  0.00    +0.000 A 
ATOM     21  C   UNL     1       1.809   8.181  19.419  0.00  0.00    +0.000 A 
ATOM     22  N   UNL     1       1.226   8.667  20.558  0.00  0.00    +0.000 NA
ATOM     23  C   UNL     1       0.696   9.910  20.536  0.00  0.00    +0.000 A 
ENDBRANCH   1  21
TORSDOF 1
ENDMDL
MODEL 4
REMARK VINA RESULT:      -7.2      1.207      1.571
REMARK  Name = 
REMARK  1 active torsions:
REMARK  status: ('A' for Active; 'I' for Inactive)
REMARK    1  A    between atoms: C_4  and  C_5
REMARK                            x       y       z     vdW  Elec       q    Type
REMARK                         _______ _______ _______ _____ _____    ______ ____
ROOT
ATOM      1  C   UNL     1       3.016   7.318  18.224  0.00  0.00    +0.000 A 
ATOM      2  N   UNL     1       2.578   6.044  18.118  0.00  0.00    +0.000 NA
ATOM      3  C   UNL     1       3.438   5.094  17.677  0.00  0.00    +0.000 A 
ATOM      4  N   UNL     1       2.952   3.779  17.669  0.00  0.00    +0.000 N 
ATOM      5  C   UNL     1       1.519   3.574  17.466  0.00  0.00    +0.000 C 
ATOM      6  C   UNL     1       0.752   3.413  18.779  0.00  0.00    +0.000 C 
ATOM      7  C   UNL     1       0.935   2.065  19.475  0.00  0.00    +0.000 C 
ATOM      8  C   UNL     1       2.380   1.710  19.806  0.00  0.00    +0.000 C 
ATOM      9  C   UNL     1       3.188   1.411  18.553  0.00  0.00    +0.000 C 
ATOM     10  C   UNL     1       3.827   2.635  17.908  0.00  0.00    +0.000 C 
ATOM     11  C   UNL     1       4.755   5.453  17.262  0.00  0.00    +0.000 A 
ATOM     12  C   UNL     1       5.741   4.621  16.649  0.00  0.00    +0.000 A 
ATOM     13  C   UNL     1       7.019   5.073  16.327  0.00  0.00    +0.000 A 
ATOM     14  C   UNL     1       7.340   6.395  16.561  0.00  0.00    +0.000 A 
ATOM     15  C   UNL     1       6.374   7.243  17.099  0.00  0.00    +0.000 A 
ATOM     16  C   UNL     1       5.101   6.800  17.442  0.00  0.00    +0.000 A 
ATOM     17  N   UNL     1       4.260   7.711  17.919  0.00  0.00    +0.000 NA
ENDROOT
BRANCH   1  21
ATOM     18  C   UNL     1       0.294  10.357  19.469  0.00  0.00    +0.000 A 
ATOM     19  C   UNL     1       0.683   9.394  20.393  0.00  0.00    +0.000 A 
ATOM     20  C   UNL     1       1.577   8.391  20.004  0.00  0.00    +0.000 A 
ATOM     21  C   UNL     1       2.069   8.367  18.699  0.00  0.00    +0.000 A 
ATOM     22  N   UNL     1       1.684   9.321  17.796  0.00  0.00    +0.000 NA
ATOM     23  C   UNL     1       0.819  10.279  18.194  0.00  0.00    +0.000 A 
ENDBRANCH   1  21
TORSDOF 1
ENDMDL
MODEL 5
REMARK VINA RESULT:      -7.0      3.608      5.907
REMARK  Name = 
REMARK  1 active torsions:
REMARK  status: ('A' for Active; 'I' for Inactive)
REMARK    1  A    between atoms: C_4  and  C_5
REMARK                            x       y       z     vdW  Elec       q    Type
REMARK                         _______ _______ _______ _____ _____    ______ ____
ROOT
ATOM      1  C   UNL     1       5.849   4.385  15.391  0.00  0.00    +0.000 A 
ATOM      2  N   UNL     1       5.078   3.764  16.310  0.00  0.00    +0.000 NA
ATOM      3  C   UNL     1       5.198   4.122  17.611  0.00  0.00    +0.000 A 
ATOM      4  N   UNL     1       4.314   3.503  18.505  0.00  0.00    +0.000 N 
ATOM      5  C   UNL     1       3.847   2.153  18.192  0.00  0.00    +0.000 C 
ATOM      6  C   UNL     1       2.491   2.145  17.484  0.00  0.00    +0.000 C 
ATOM      7  C   UNL     1       1.292   2.445  18.383  0.00  0.00    +0.000 C 
ATOM      8  C   UNL     1       1.359   3.783  19.110  0.00  0.00    +0.000 C 
ATOM      9  C   UNL     1       2.433   3.785  20.186  0.00  0.00    +0.000 C 
ATOM     10  C   UNL     1       3.817   4.189  19.694  0.00  0.00    +0.000 C 
ATOM     11  C   UNL     1       6.177   5.083  18.006  0.00  0.00    +0.000 A 
ATOM     12  C   UNL     1       6.537   5.479  19.329  0.00  0.00    +0.000 A 
ATOM     13  C   UNL     1       7.481   6.469  19.593  0.00  0.00    +0.000 A 
ATOM     14  C   UNL     1       8.140   7.065  18.536  0.00  0.00    +0.000 A 
ATOM     15  C   UNL     1       7.853   6.650  17.237  0.00  0.00    +0.000 A 
ATOM     16  C   UNL     1       6.899   5.676  16.959  0.00  0.00    +0.000 A 
ATOM     17  N   UNL     1       6.736   5.346  15.683  0.00  0.00    +0.000 NA
ENDROOT
BRANCH   1  21
ATOM     18  C   UNL     1       5.617   3.236  11.290  0.00  0.00    +0.000 A 
ATOM     19  C   UNL     1       4.442   3.299  12.029  0.00  0.00    +0.000 A 
ATOM     20  C   UNL     1       4.497   3.677  13.375  0.00  0.00    +0.000 A 
ATOM     21  C   UNL     1       5.726   3.986  13.959  0.00  0.00    +0.000 A 
ATOM     22  N   UNL     1       6.878   3.925  13.224  0.00  0.00    +0.000 NA
ATOM     23  C   UNL     1       6.800   3.556  11.926  0.00  0.00    +0.000 A 
ENDBRANCH   1  21
TORSDOF 1
ENDMDL
MODEL 6
REMARK VINA RESULT:      -7.0      1.578      4.537
REMARK  Name = 
REMARK  1 active torsions:
REMARK  status: ('A' for Active; 'I' for Inactive)
REMARK    1  A    between atoms: C_4  and  C_5
REMARK                            x       y       z     vdW  Elec       q    Type
REMARK                         _______ _______ _______ _____ _____    ______ ____
ROOT
ATOM      1  C   UNL     1       2.389   6.369  19.364  0.00  0.00    +0.000 A 
ATOM      2  N   UNL     1       3.690   6.244  19.022  0.00  0.00    +0.000 NA
ATOM      3  C   UNL     1       4.166   5.015  18.707  0.00  0.00    +0.000 A 
ATOM      4  N   UNL     1       5.499   4.962  18.279  0.00  0.00    +0.000 N 
ATOM      5  C   UNL     1       6.432   5.961  18.798  0.00  0.00    +0.000 C 
ATOM      6  C   UNL     1       6.606   7.153  17.856  0.00  0.00    +0.000 C 
ATOM      7  C   UNL     1       7.455   6.879  16.615  0.00  0.00    +0.000 C 
ATOM      8  C   UNL     1       6.949   5.741  15.736  0.00  0.00    +0.000 C 
ATOM      9  C   UNL     1       7.120   4.389  16.411  0.00  0.00    +0.000 C 
ATOM     10  C   UNL     1       5.953   3.978  17.301  0.00  0.00    +0.000 C 
ATOM     11  C   UNL     1       3.323   3.868  18.812  0.00  0.00    +0.000 A 
ATOM     12  C   UNL     1       3.682   2.496  18.656  0.00  0.00    +0.000 A 
ATOM     13  C   UNL     1       2.757   1.457  18.736  0.00  0.00    +0.000 A 
ATOM     14  C   UNL     1       1.441   1.753  19.028  0.00  0.00    +0.000 A 
ATOM     15  C   UNL     1       1.077   3.080  19.248  0.00  0.00    +0.000 A 
ATOM     16  C   UNL     1       1.987   4.128  19.153  0.00  0.00    +0.000 A 
ATOM     17  N   UNL     1       1.525   5.346  19.414  0.00  0.00    +0.000 NA
ENDROOT
BRANCH   1  21
ATOM     18  C   UNL     1       0.888  10.259  20.267  0.00  0.00    +0.000 A 
ATOM     19  C   UNL     1       0.953   9.318  21.288  0.00  0.00    +0.000 A 
ATOM     20  C   UNL     1       1.444   8.038  21.012  0.00  0.00    +0.000 A 
ATOM     21  C   UNL     1       1.865   7.719  19.721  0.00  0.00    +0.000 A 
ATOM     22  N   UNL     1       1.801   8.651  18.721  0.00  0.00    +0.000 NA
ATOM     23  C   UNL     1       1.322   9.881  19.011  0.00  0.00    +0.000 A 
ENDBRANCH   1  21
TORSDOF 1
ENDMDL
MODEL 7
REMARK VINA RESULT:      -6.9      1.459      5.229
REMARK  Name = 
REMARK  1 active torsions:
REMARK  status: ('A' for Active; 'I' for Inactive)
REMARK    1  A    between atoms: C_4  and  C_5
REMARK                            x       y       z     vdW  Elec       q    Type
REMARK                         _______ _______ _______ _____ _____    ______ ____
ROOT
ATOM      1  C   UNL     1       4.423   5.947  16.879  0.00  0.00    +0.000 A 
ATOM      2  N   UNL     1       4.055   5.087  17.854  0.00  0.00    +0.000 NA
ATOM      3  C   UNL     1       3.179   5.509  18.798  0.00  0.00    +0.000 A 
ATOM      4  N   UNL     1       2.770   4.548  19.732  0.00  0.00    +0.000 N 
ATOM      5  C   UNL     1       3.703   3.476  20.074  0.00  0.00    +0.000 C 
ATOM      6  C   UNL     1       3.459   2.199  19.267  0.00  0.00    +0.000 C 
ATOM      7  C   UNL     1       2.236   1.389  19.693  0.00  0.00    +0.000 C 
ATOM      8  C   UNL     1       0.917   2.153  19.648  0.00  0.00    +0.000 C 
ATOM      9  C   UNL     1       0.848   3.221  20.727  0.00  0.00    +0.000 C 
ATOM     10  C   UNL     1       1.434   4.567  20.320  0.00  0.00    +0.000 C 
ATOM     11  C   UNL     1       2.718   6.860  18.800  0.00  0.00    +0.000 A 
ATOM     12  C   UNL     1       1.912   7.512  19.780  0.00  0.00    +0.000 A 
ATOM     13  C   UNL     1       1.482   8.832  19.651  0.00  0.00    +0.000 A 
ATOM     14  C   UNL     1       1.890   9.565  18.555  0.00  0.00    +0.000 A 
ATOM     15  C   UNL     1       2.731   8.970  17.616  0.00  0.00    +0.000 A 
ATOM     16  C   UNL     1       3.152   7.648  17.723  0.00  0.00    +0.000 A 
ATOM     17  N   UNL     1       3.975   7.205  16.780  0.00  0.00    +0.000 NA
ENDROOT
BRANCH   1  21
ATOM     18  C   UNL     1       7.290   4.693  13.979  0.00  0.00    +0.000 A 
ATOM     19  C   UNL     1       6.015   4.142  13.935  0.00  0.00    +0.000 A 
ATOM     20  C   UNL     1       5.061   4.542  14.876  0.00  0.00    +0.000 A 
ATOM     21  C   UNL     1       5.395   5.488  15.844  0.00  0.00    +0.000 A 
ATOM     22  N   UNL     1       6.651   6.030  15.879  0.00  0.00    +0.000 NA
ATOM     23  C   UNL     1       7.557   5.627  14.961  0.00  0.00    +0.000 A 
ENDBRANCH   1  21
TORSDOF 1
ENDMDL
MODEL 8
REMARK VINA RESULT:      -6.5      3.075      4.511
REMARK  Name = 
REMARK  1 active torsions:
REMARK  status: ('A' for Active; 'I' for Inactive)
REMARK    1  A    between atoms: C_4  and  C_5
REMARK                            x       y       z     vdW  Elec       q    Type
REMARK                         _______ _______ _______ _____ _____    ______ ____
ROOT
ATOM      1  C   UNL     1       6.792   6.296  16.697  0.00  0.00    +0.000 A 
ATOM      2  N   UNL     1       5.635   5.785  17.175  0.00  0.00    +0.000 NA
ATOM      3  C   UNL     1       4.977   4.859  16.437  0.00  0.00    +0.000 A 
ATOM      4  N   UNL     1       3.831   4.305  17.023  0.00  0.00    +0.000 N 
ATOM      5  C   UNL     1       3.064   5.131  17.954  0.00  0.00    +0.000 C 
ATOM      6  C   UNL     1       3.435   4.875  19.416  0.00  0.00    +0.000 C 
ATOM      7  C   UNL     1       2.901   3.567  19.999  0.00  0.00    +0.000 C 
ATOM      8  C   UNL     1       3.330   2.312  19.248  0.00  0.00    +0.000 C 
ATOM      9  C   UNL     1       2.669   2.219  17.882  0.00  0.00    +0.000 C 
ATOM     10  C   UNL     1       3.426   2.926  16.766  0.00  0.00    +0.000 C 
ATOM     11  C   UNL     1       5.461   4.492  15.146  0.00  0.00    +0.000 A 
ATOM     12  C   UNL     1       4.836   3.647  14.180  0.00  0.00    +0.000 A 
ATOM     13  C   UNL     1       5.430   3.320  12.962  0.00  0.00    +0.000 A 
ATOM     14  C   UNL     1       6.654   3.871  12.645  0.00  0.00    +0.000 A 
ATOM     15  C   UNL     1       7.256   4.750  13.543  0.00  0.00    +0.000 A 
ATOM     16  C   UNL     1       6.683   5.071  14.770  0.00  0.00    +0.000 A 
ATOM     17  N   UNL     1       7.339   5.943  15.526  0.00  0.00    +0.000 NA
ENDROOT
BRANCH   1  21
ATOM     18  C   UNL     1       8.807   9.319  18.933  0.00  0.00    +0.000 A 
ATOM     19  C   UNL     1       8.827   8.014  19.411  0.00  0.00    +0.000 A 
ATOM     20  C   UNL     1       8.174   7.008  18.691  0.00  0.00    +0.000 A 
ATOM     21  C   UNL     1       7.513   7.323  17.503  0.00  0.00    +0.000 A 
ATOM     22  N   UNL     1       7.500   8.609  17.037  0.00  0.00    +0.000 NA
ATOM     23  C   UNL     1       8.137   9.564  17.750  0.00  0.00    +0.000 A 
ENDBRANCH   1  21
TORSDOF 1
ENDMDL
MODEL 9
REMARK VINA RESULT:      -6.4      8.083     10.166
REMARK  Name = 
REMARK  1 active torsions:
REMARK  status: ('A' for Active; 'I' for Inactive)
REMARK    1  A    between atoms: C_4  and  C_5
REMARK                            x       y       z     vdW  Elec       q    Type
REMARK                         _______ _______ _______ _____ _____    ______ ____
ROOT
ATOM      1  C   UNL     1      -4.535  12.518  20.479  0.00  0.00    +0.000 A 
ATOM      2  N   UNL     1      -3.209  12.567  20.733  0.00  0.00    +0.000 NA
ATOM      3  C   UNL     1      -2.343  12.226  19.748  0.00  0.00    +0.000 A 
ATOM      4  N   UNL     1      -0.982  12.377  20.044  0.00  0.00    +0.000 N 
ATOM      5  C   UNL     1      -0.556  12.220  21.434  0.00  0.00    +0.000 C 
ATOM      6  C   UNL     1      -0.444  13.555  22.172  0.00  0.00    +0.000 C 
ATOM      7  C   UNL     1       0.775  14.398  21.802  0.00  0.00    +0.000 C 
ATOM      8  C   UNL     1       0.885  14.746  20.322  0.00  0.00    +0.000 C 
ATOM      9  C   UNL     1       1.211  13.524  19.479  0.00  0.00    +0.000 C 
ATOM     10  C   UNL     1      -0.007  12.733  19.017  0.00  0.00    +0.000 C 
ATOM     11  C   UNL     1      -2.832  11.752  18.493  0.00  0.00    +0.000 A 
ATOM     12  C   UNL     1      -2.081  11.225  17.400  0.00  0.00    +0.000 A 
ATOM     13  C   UNL     1      -2.667  10.834  16.197  0.00  0.00    +0.000 A 
ATOM     14  C   UNL     1      -4.039  10.909  16.065  0.00  0.00    +0.000 A 
ATOM     15  C   UNL     1      -4.801  11.360  17.142  0.00  0.00    +0.000 A 
ATOM     16  C   UNL     1      -4.227  11.771  18.341  0.00  0.00    +0.000 A 
ATOM     17  N   UNL     1      -5.060  12.152  19.302  0.00  0.00    +0.000 NA
ENDROOT
BRANCH   1  21
ATOM     18  C   UNL     1      -7.182  13.532  23.667  0.00  0.00    +0.000 A 
ATOM     19  C   UNL     1      -7.548  13.864  22.368  0.00  0.00    +0.000 A 
ATOM     20  C   UNL     1      -6.695  13.538  21.309  0.00  0.00    +0.000 A 
ATOM     21  C   UNL     1      -5.490  12.883  21.565  0.00  0.00    +0.000 A 
ATOM     22  N   UNL     1      -5.137  12.557  22.846  0.00  0.00    +0.000 NA
ATOM     23  C   UNL     1      -5.977  12.883  23.853  0.00  0.00    +0.000 A 
ENDBRANCH   1  21
TORSDOF 1
ENDMDL
