MODEL 1
REMARK VINA RESULT:      -5.9      0.000      0.000
REMARK  Name = 
REMARK  5 active torsions:
REMARK  status: ('A' for Active; 'I' for Inactive)
REMARK    1  A    between atoms: C_2  and  O_3
REMARK    2  A    between atoms: C_2  and  C_11
REMARK    3  A    between atoms: O_3  and  C_4
REMARK    4  A    between atoms: C_4  and  C_5
REMARK    5  A    between atoms: C_5  and  C_6
REMARK                            x       y       z     vdW  Elec       q    Type
REMARK                         _______ _______ _______ _____ _____    ______ ____
ROOT
ATOM      1  O   UNL     1       4.449   5.517  19.414  0.00  0.00    +0.000 OA
ATOM      2  C   UNL     1       3.476   5.776  18.726  0.00  0.00    +0.000 C 
ENDROOT
BRANCH   2   3
ATOM      3  C   UNL     1       2.610   6.970  18.942  0.00  0.00    +0.000 A 
ATOM      4  C   UNL     1       2.045   7.156  20.205  0.00  0.00    +0.000 A 
ATOM      5  C   UNL     1       1.344   8.325  20.442  0.00  0.00    +0.000 A 
ATOM      6  N   UNL     1       1.178   9.296  19.514  0.00  0.00    +0.000 NA
ATOM      7  C   UNL     1       1.728   9.088  18.300  0.00  0.00    +0.000 A 
ATOM      8  C   UNL     1       2.442   7.951  17.965  0.00  0.00    +0.000 A 
ENDBRANCH   2   3
BRANCH   2   9
ATOM      9  O   UNL     1       3.114   5.136  17.584  0.00  0.00    +0.000 OA
BRANCH   9  10
ATOM     10  C   UNL     1       1.936   4.324  17.700  0.00  0.00    +0.000 C 
BRANCH  10  11
ATOM     11  C   UNL     1       2.235   2.828  17.754  0.00  0.00    +0.000 C 
BRANCH  11  12
ATOM     12  C   UNL     1       1.946   2.301  19.161  0.00  0.00    +0.000 C 
ATOM     13  C   UNL     1       0.911   3.098  19.941  0.00  0.00    +0.000 C 
ATOM     14  C   UNL     1       1.341   2.856  21.368  0.00  0.00    +0.000 C 
ATOM     15  C   UNL     1       2.848   2.833  21.249  0.00  0.00    +0.000 C 
ATOM     16  O   UNL     1       3.150   2.317  19.948  0.00  0.00    +0.000 OA
ENDBRANCH  11  12
ENDBRANCH  10  11
ENDBRANCH   9  10
ENDBRANCH   2   9
TORSDOF 5
ENDMDL
MODEL 2
REMARK VINA RESULT:      -5.9      3.327      4.550
REMARK  Name = 
REMARK  5 active torsions:
REMARK  status: ('A' for Active; 'I' for Inactive)
REMARK    1  A    between atoms: C_2  and  O_3
REMARK    2  A    between atoms: C_2  and  C_11
REMARK    3  A    between atoms: O_3  and  C_4
REMARK    4  A    between atoms: C_4  and  C_5
REMARK    5  A    between atoms: C_5  and  C_6
REMARK                            x       y       z     vdW  Elec       q    Type
REMARK                         _______ _______ _______ _____ _____    ______ ____
ROOT
ATOM      1  O   UNL     1       3.163   3.131  17.454  0.00  0.00    +0.000 OA
ATOM      2  C   UNL     1       3.745   4.201  17.514  0.00  0.00    +0.000 C 
ENDROOT
BRANCH   2   3
ATOM      3  C   UNL     1       5.109   4.428  16.958  0.00  0.00    +0.000 A 
ATOM      4  C   UNL     1       6.181   4.509  17.848  0.00  0.00    +0.000 A 
ATOM      5  C   UNL     1       7.460   4.595  17.328  0.00  0.00    +0.000 A 
ATOM      6  N   UNL     1       7.725   4.606  16.001  0.00  0.00    +0.000 NA
ATOM      7  C   UNL     1       6.671   4.533  15.162  0.00  0.00    +0.000 A 
ATOM      8  C   UNL     1       5.357   4.449  15.585  0.00  0.00    +0.000 A 
ENDBRANCH   2   3
BRANCH   2   9
ATOM      9  O   UNL     1       3.212   5.376  17.939  0.00  0.00    +0.000 OA
BRANCH   9  10
ATOM     10  C   UNL     1       3.353   5.624  19.346  0.00  0.00    +0.000 C 
BRANCH  10  11
ATOM     11  C   UNL     1       2.053   6.059  20.017  0.00  0.00    +0.000 C 
BRANCH  11  12
ATOM     12  C   UNL     1       1.427   4.863  20.739  0.00  0.00    +0.000 C 
ATOM     13  C   UNL     1       2.410   3.996  21.509  0.00  0.00    +0.000 C 
ATOM     14  C   UNL     1       1.732   2.647  21.474  0.00  0.00    +0.000 C 
ATOM     15  C   UNL     1       1.106   2.640  20.098  0.00  0.00    +0.000 C 
ATOM     16  O   UNL     1       0.781   3.999  19.787  0.00  0.00    +0.000 OA
ENDBRANCH  11  12
ENDBRANCH  10  11
ENDBRANCH   9  10
ENDBRANCH   2   9
TORSDOF 5
ENDMDL
MODEL 3
REMARK VINA RESULT:      -5.9      2.439      3.358
REMARK  Name = 
REMARK  5 active torsions:
REMARK  status: ('A' for Active; 'I' for Inactive)
REMARK    1  A    between atoms: C_2  and  O_3
REMARK    2  A    between atoms: C_2  and  C_11
REMARK    3  A    between atoms: O_3  and  C_4
REMARK    4  A    between atoms: C_4  and  C_5
REMARK    5  A    between atoms: C_5  and  C_6
REMARK                            x       y       z     vdW  Elec       q    Type
REMARK                         _______ _______ _______ _____ _____    ______ ____
ROOT
ATOM      1  O   UNL     1       2.795   5.949  19.793  0.00  0.00    +0.000 OA
ATOM      2  C   UNL     1       3.274   5.787  18.683  0.00  0.00    +0.000 C 
ENDROOT
BRANCH   2   3
ATOM      3  C   UNL     1       4.736   5.851  18.400  0.00  0.00    +0.000 A 
ATOM      4  C   UNL     1       5.168   6.628  17.325  0.00  0.00    +0.000 A 
ATOM      5  C   UNL     1       6.529   6.788  17.137  0.00  0.00    +0.000 A 
ATOM      6  N   UNL     1       7.462   6.230  17.941  0.00  0.00    +0.000 NA
ATOM      7  C   UNL     1       7.019   5.477  18.970  0.00  0.00    +0.000 A 
ATOM      8  C   UNL     1       5.680   5.254  19.236  0.00  0.00    +0.000 A 
ENDBRANCH   2   3
BRANCH   2   9
ATOM      9  O   UNL     1       2.600   5.376  17.577  0.00  0.00    +0.000 OA
BRANCH   9  10
ATOM     10  C   UNL     1       1.615   4.360  17.819  0.00  0.00    +0.000 C 
BRANCH  10  11
ATOM     11  C   UNL     1       2.194   2.948  17.840  0.00  0.00    +0.000 C 
BRANCH  11  12
ATOM     12  C   UNL     1       1.959   2.323  19.217  0.00  0.00    +0.000 C 
ATOM     13  C   UNL     1       0.903   3.016  20.062  0.00  0.00    +0.000 C 
ATOM     14  C   UNL     1       1.373   2.710  21.465  0.00  0.00    +0.000 C 
ATOM     15  C   UNL     1       2.876   2.771  21.318  0.00  0.00    +0.000 C 
ATOM     16  O   UNL     1       3.177   2.351  19.983  0.00  0.00    +0.000 OA
ENDBRANCH  11  12
ENDBRANCH  10  11
ENDBRANCH   9  10
ENDBRANCH   2   9
TORSDOF 5
ENDMDL
MODEL 4
REMARK VINA RESULT:      -5.8      3.000      5.351
REMARK  Name = 
REMARK  5 active torsions:
REMARK  status: ('A' for Active; 'I' for Inactive)
REMARK    1  A    between atoms: C_2  and  O_3
REMARK    2  A    between atoms: C_2  and  C_11
REMARK    3  A    between atoms: O_3  and  C_4
REMARK    4  A    between atoms: C_4  and  C_5
REMARK    5  A    between atoms: C_5  and  C_6
REMARK                            x       y       z     vdW  Elec       q    Type
REMARK                         _______ _______ _______ _____ _____    ______ ____
ROOT
ATOM      1  O   UNL     1       1.578   3.670  17.109  0.00  0.00    +0.000 OA
ATOM      2  C   UNL     1       2.000   4.334  18.041  0.00  0.00    +0.000 C 
ENDROOT
BRANCH   2   3
ATOM      3  C   UNL     1       2.323   3.761  19.379  0.00  0.00    +0.000 A 
ATOM      4  C   UNL     1       1.369   3.870  20.392  0.00  0.00    +0.000 A 
ATOM      5  C   UNL     1       1.615   3.232  21.595  0.00  0.00    +0.000 A 
ATOM      6  N   UNL     1       2.733   2.509  21.840  0.00  0.00    +0.000 NA
ATOM      7  C   UNL     1       3.642   2.426  20.846  0.00  0.00    +0.000 A 
ATOM      8  C   UNL     1       3.489   3.031  19.612  0.00  0.00    +0.000 A 
ENDBRANCH   2   3
BRANCH   2   9
ATOM      9  O   UNL     1       2.390   5.634  17.982  0.00  0.00    +0.000 OA
BRANCH   9  10
ATOM     10  C   UNL     1       3.804   5.842  18.108  0.00  0.00    +0.000 C 
BRANCH  10  11
ATOM     11  C   UNL     1       4.577   5.531  16.829  0.00  0.00    +0.000 C 
BRANCH  11  12
ATOM     12  C   UNL     1       6.080   5.594  17.114  0.00  0.00    +0.000 C 
ATOM     13  C   UNL     1       6.454   5.521  18.586  0.00  0.00    +0.000 C 
ATOM     14  C   UNL     1       7.756   6.287  18.617  0.00  0.00    +0.000 C 
ATOM     15  C   UNL     1       7.510   7.377  17.598  0.00  0.00    +0.000 C 
ATOM     16  O   UNL     1       6.623   6.829  16.616  0.00  0.00    +0.000 OA
ENDBRANCH  11  12
ENDBRANCH  10  11
ENDBRANCH   9  10
ENDBRANCH   2   9
TORSDOF 5
ENDMDL
MODEL 5
REMARK VINA RESULT:      -5.7      2.983      3.837
REMARK  Name = 
REMARK  5 active torsions:
REMARK  status: ('A' for Active; 'I' for Inactive)
REMARK    1  A    between atoms: C_2  and  O_3
REMARK    2  A    between atoms: C_2  and  C_11
REMARK    3  A    between atoms: O_3  and  C_4
REMARK    4  A    between atoms: C_4  and  C_5
REMARK    5  A    between atoms: C_5  and  C_6
REMARK                            x       y       z     vdW  Elec       q    Type
REMARK                         _______ _______ _______ _____ _____    ______ ____
ROOT
ATOM      1  O   UNL     1       4.185   5.353  19.771  0.00  0.00    +0.000 OA
ATOM      2  C   UNL     1       4.782   4.638  18.983  0.00  0.00    +0.000 C 
ENDROOT
BRANCH   2   3
ATOM      3  C   UNL     1       5.047   5.019  17.567  0.00  0.00    +0.000 A 
ATOM      4  C   UNL     1       4.717   6.312  17.157  0.00  0.00    +0.000 A 
ATOM      5  C   UNL     1       5.076   6.706  15.880  0.00  0.00    +0.000 A 
ATOM      6  N   UNL     1       5.729   5.903  15.009  0.00  0.00    +0.000 NA
ATOM      7  C   UNL     1       6.029   4.655  15.427  0.00  0.00    +0.000 A 
ATOM      8  C   UNL     1       5.709   4.168  16.681  0.00  0.00    +0.000 A 
ENDBRANCH   2   3
BRANCH   2   9
ATOM      9  O   UNL     1       5.426   3.481  19.286  0.00  0.00    +0.000 OA
BRANCH   9  10
ATOM     10  C   UNL     1       4.592   2.463  19.858  0.00  0.00    +0.000 C 
BRANCH  10  11
ATOM     11  C   UNL     1       3.612   1.851  18.860  0.00  0.00    +0.000 C 
BRANCH  11  12
ATOM     12  C   UNL     1       2.179   2.102  19.334  0.00  0.00    +0.000 C 
ATOM     13  C   UNL     1       1.501   3.310  18.706  0.00  0.00    +0.000 C 
ATOM     14  C   UNL     1       0.525   3.717  19.784  0.00  0.00    +0.000 C 
ATOM     15  C   UNL     1       1.305   3.429  21.047  0.00  0.00    +0.000 C 
ATOM     16  O   UNL     1       2.163   2.320  20.756  0.00  0.00    +0.000 OA
ENDBRANCH  11  12
ENDBRANCH  10  11
ENDBRANCH   9  10
ENDBRANCH   2   9
TORSDOF 5
ENDMDL
MODEL 6
REMARK VINA RESULT:      -5.7      3.274      4.158
REMARK  Name = 
REMARK  5 active torsions:
REMARK  status: ('A' for Active; 'I' for Inactive)
REMARK    1  A    between atoms: C_2  and  O_3
REMARK    2  A    between atoms: C_2  and  C_11
REMARK    3  A    between atoms: O_3  and  C_4
REMARK    4  A    between atoms: C_4  and  C_5
REMARK    5  A    between atoms: C_5  and  C_6
REMARK                            x       y       z     vdW  Elec       q    Type
REMARK                         _______ _______ _______ _____ _____    ______ ____
ROOT
ATOM      1  O   UNL     1       7.181   5.632  19.855  0.00  0.00    +0.000 OA
ATOM      2  C   UNL     1       6.492   5.008  19.065  0.00  0.00    +0.000 C 
ENDROOT
BRANCH   2   3
ATOM      3  C   UNL     1       6.372   5.359  17.621  0.00  0.00    +0.000 A 
ATOM      4  C   UNL     1       7.099   4.609  16.696  0.00  0.00    +0.000 A 
ATOM      5  C   UNL     1       6.895   4.853  15.350  0.00  0.00    +0.000 A 
ATOM      6  N   UNL     1       6.027   5.781  14.884  0.00  0.00    +0.000 NA
ATOM      7  C   UNL     1       5.342   6.498  15.800  0.00  0.00    +0.000 A 
ATOM      8  C   UNL     1       5.481   6.331  17.166  0.00  0.00    +0.000 A 
ENDBRANCH   2   3
BRANCH   2   9
ATOM      9  O   UNL     1       5.862   3.830  19.314  0.00  0.00    +0.000 OA
BRANCH   9  10
ATOM     10  C   UNL     1       4.429   3.899  19.277  0.00  0.00    +0.000 C 
BRANCH  10  11
ATOM     11  C   UNL     1       3.782   2.680  18.624  0.00  0.00    +0.000 C 
BRANCH  11  12
ATOM     12  C   UNL     1       2.364   2.501  19.172  0.00  0.00    +0.000 C 
ATOM     13  C   UNL     1       1.460   3.713  19.014  0.00  0.00    +0.000 C 
ATOM     14  C   UNL     1       0.511   3.551  20.178  0.00  0.00    +0.000 C 
ATOM     15  C   UNL     1       1.415   2.988  21.251  0.00  0.00    +0.000 C 
ATOM     16  O   UNL     1       2.416   2.213  20.581  0.00  0.00    +0.000 OA
ENDBRANCH  11  12
ENDBRANCH  10  11
ENDBRANCH   9  10
ENDBRANCH   2   9
TORSDOF 5
ENDMDL
MODEL 7
REMARK VINA RESULT:      -5.7      3.326      5.341
REMARK  Name = 
REMARK  5 active torsions:
REMARK  status: ('A' for Active; 'I' for Inactive)
REMARK    1  A    between atoms: C_2  and  O_3
REMARK    2  A    between atoms: C_2  and  C_11
REMARK    3  A    between atoms: O_3  and  C_4
REMARK    4  A    between atoms: C_4  and  C_5
REMARK    5  A    between atoms: C_5  and  C_6
REMARK                            x       y       z     vdW  Elec       q    Type
REMARK                         _______ _______ _______ _____ _____    ______ ____
ROOT
ATOM      1  O   UNL     1       2.006   3.009  16.878  0.00  0.00    +0.000 OA
ATOM      2  C   UNL     1       2.597   3.657  17.726  0.00  0.00    +0.000 C 
ENDROOT
BRANCH   2   3
ATOM      3  C   UNL     1       2.520   3.363  19.186  0.00  0.00    +0.000 A 
ATOM      4  C   UNL     1       1.300   3.554  19.835  0.00  0.00    +0.000 A 
ATOM      5  C   UNL     1       1.194   3.166  21.159  0.00  0.00    +0.000 A 
ATOM      6  N   UNL     1       2.213   2.611  21.855  0.00  0.00    +0.000 NA
ATOM      7  C   UNL     1       3.384   2.443  21.206  0.00  0.00    +0.000 A 
ATOM      8  C   UNL     1       3.589   2.804  19.887  0.00  0.00    +0.000 A 
ENDBRANCH   2   3
BRANCH   2   9
ATOM      9  O   UNL     1       3.522   4.623  17.491  0.00  0.00    +0.000 OA
BRANCH   9  10
ATOM     10  C   UNL     1       4.433   4.332  16.421  0.00  0.00    +0.000 C 
BRANCH  10  11
ATOM     11  C   UNL     1       5.886   4.223  16.877  0.00  0.00    +0.000 C 
BRANCH  11  12
ATOM     12  C   UNL     1       6.229   5.417  17.771  0.00  0.00    +0.000 C 
ATOM     13  C   UNL     1       7.261   6.372  17.193  0.00  0.00    +0.000 C 
ATOM     14  C   UNL     1       7.895   6.941  18.441  0.00  0.00    +0.000 C 
ATOM     15  C   UNL     1       7.902   5.747  19.369  0.00  0.00    +0.000 C 
ATOM     16  O   UNL     1       6.761   4.953  19.026  0.00  0.00    +0.000 OA
ENDBRANCH  11  12
ENDBRANCH  10  11
ENDBRANCH   9  10
ENDBRANCH   2   9
TORSDOF 5
ENDMDL
MODEL 8
REMARK VINA RESULT:      -5.7      2.865      5.201
REMARK  Name = 
REMARK  5 active torsions:
REMARK  status: ('A' for Active; 'I' for Inactive)
REMARK    1  A    between atoms: C_2  and  O_3
REMARK    2  A    between atoms: C_2  and  C_11
REMARK    3  A    between atoms: O_3  and  C_4
REMARK    4  A    between atoms: C_4  and  C_5
REMARK    5  A    between atoms: C_5  and  C_6
REMARK                            x       y       z     vdW  Elec       q    Type
REMARK                         _______ _______ _______ _____ _____    ______ ____
ROOT
ATOM      1  O   UNL     1       2.008   3.298  16.920  0.00  0.00    +0.000 OA
ATOM      2  C   UNL     1       1.949   3.973  17.935  0.00  0.00    +0.000 C 
ENDROOT
BRANCH   2   3
ATOM      3  C   UNL     1       2.098   3.410  19.307  0.00  0.00    +0.000 A 
ATOM      4  C   UNL     1       3.308   2.801  19.644  0.00  0.00    +0.000 A 
ATOM      5  C   UNL     1       3.491   2.390  20.952  0.00  0.00    +0.000 A 
ATOM      6  N   UNL     1       2.559   2.546  21.920  0.00  0.00    +0.000 NA
ATOM      7  C   UNL     1       1.396   3.131  21.566  0.00  0.00    +0.000 A 
ATOM      8  C   UNL     1       1.116   3.572  20.285  0.00  0.00    +0.000 A 
ENDBRANCH   2   3
BRANCH   2   9
ATOM      9  O   UNL     1       1.900   5.330  17.988  0.00  0.00    +0.000 OA
BRANCH   9  10
ATOM     10  C   UNL     1       3.112   5.956  18.434  0.00  0.00    +0.000 C 
BRANCH  10  11
ATOM     11  C   UNL     1       4.157   6.105  17.331  0.00  0.00    +0.000 C 
BRANCH  11  12
ATOM     12  C   UNL     1       5.261   5.065  17.532  0.00  0.00    +0.000 C 
ATOM     13  C   UNL     1       6.506   5.583  18.233  0.00  0.00    +0.000 C 
ATOM     14  C   UNL     1       7.580   4.680  17.673  0.00  0.00    +0.000 C 
ATOM     15  C   UNL     1       7.124   4.489  16.245  0.00  0.00    +0.000 C 
ATOM     16  O   UNL     1       5.693   4.556  16.258  0.00  0.00    +0.000 OA
ENDBRANCH  11  12
ENDBRANCH  10  11
ENDBRANCH   9  10
ENDBRANCH   2   9
TORSDOF 5
ENDMDL
MODEL 9
REMARK VINA RESULT:      -5.7      3.179      5.170
REMARK  Name = 
REMARK  5 active torsions:
REMARK  status: ('A' for Active; 'I' for Inactive)
REMARK    1  A    between atoms: C_2  and  O_3
REMARK    2  A    between atoms: C_2  and  C_11
REMARK    3  A    between atoms: O_3  and  C_4
REMARK    4  A    between atoms: C_4  and  C_5
REMARK    5  A    between atoms: C_5  and  C_6
REMARK                            x       y       z     vdW  Elec       q    Type
REMARK                         _______ _______ _______ _____ _____    ______ ____
ROOT
ATOM      1  O   UNL     1       2.352   7.371  19.174  0.00  0.00    +0.000 OA
ATOM      2  C   UNL     1       2.601   6.268  18.717  0.00  0.00    +0.000 C 
ENDROOT
BRANCH   2   3
ATOM      3  C   UNL     1       2.169   4.995  19.360  0.00  0.00    +0.000 A 
ATOM      4  C   UNL     1       2.300   4.876  20.745  0.00  0.00    +0.000 A 
ATOM      5  C   UNL     1       1.787   3.747  21.357  0.00  0.00    +0.000 A 
ATOM      6  N   UNL     1       1.165   2.752  20.683  0.00  0.00    +0.000 NA
ATOM      7  C   UNL     1       1.058   2.887  19.344  0.00  0.00    +0.000 A 
ATOM      8  C   UNL     1       1.543   3.976  18.642  0.00  0.00    +0.000 A 
ENDBRANCH   2   3
BRANCH   2   9
ATOM      9  O   UNL     1       3.156   6.015  17.503  0.00  0.00    +0.000 OA
BRANCH   9  10
ATOM     10  C   UNL     1       4.331   6.785  17.209  0.00  0.00    +0.000 C 
BRANCH  10  11
ATOM     11  C   UNL     1       5.289   6.084  16.250  0.00  0.00    +0.000 C 
BRANCH  11  12
ATOM     12  C   UNL     1       6.664   5.952  16.911  0.00  0.00    +0.000 C 
ATOM     13  C   UNL     1       6.632   5.544  18.375  0.00  0.00    +0.000 C 
ATOM     14  C   UNL     1       7.904   6.167  18.901  0.00  0.00    +0.000 C 
ATOM     15  C   UNL     1       7.972   7.461  18.123  0.00  0.00    +0.000 C 
ATOM     16  O   UNL     1       7.360   7.210  16.853  0.00  0.00    +0.000 OA
ENDBRANCH  11  12
ENDBRANCH  10  11
ENDBRANCH   9  10
ENDBRANCH   2   9
TORSDOF 5
ENDMDL
