MODEL 1
REMARK VINA RESULT:      -7.9      0.000      0.000
REMARK  Name = 
REMARK  9 active torsions:
REMARK  status: ('A' for Active; 'I' for Inactive)
REMARK    1  A    between atoms: C_1  and  O_2
REMARK    2  A    between atoms: O_2  and  C_3
REMARK    3  A    between atoms: C_6  and  C_7
REMARK    4  A    between atoms: C_9  and  C_10
REMARK    5  A    between atoms: C_13  and  O_14
REMARK    6  A    between atoms: C_15  and  C_16
REMARK    7  A    between atoms: N_19  and  C_20
REMARK    8  A    between atoms: C_27  and  O_28
REMARK    9  A    between atoms: O_28  and  C_29
REMARK                            x       y       z     vdW  Elec       q    Type
REMARK                         _______ _______ _______ _____ _____    ______ ____
ROOT
ATOM      1  C   UNL     1       0.763   9.955  18.456  0.00  0.00    +0.000 C 
ATOM      2  C   UNL     1       1.614   9.092  17.517  0.00  0.00    +0.000 C 
ATOM      3  C   UNL     1       2.085   8.027  18.469  0.00  0.00    +0.000 C 
ATOM      4  N   UNL     1       1.722   8.188  19.703  0.00  0.00    +0.000 NA
ATOM      5  N   UNL     1       0.938   9.298  19.753  0.00  0.00    +0.000 N 
ENDROOT
BRANCH   3   6
ATOM      6  C   UNL     1       2.902   6.874  18.020  0.00  0.00    +0.000 A 
ATOM      7  C   UNL     1       4.199   7.114  17.553  0.00  0.00    +0.000 A 
ATOM      8  C   UNL     1       5.007   6.057  17.134  0.00  0.00    +0.000 A 
ATOM      9  C   UNL     1       4.514   4.754  17.177  0.00  0.00    +0.000 A 
ATOM     10  C   UNL     1       3.218   4.487  17.633  0.00  0.00    +0.000 A 
ATOM     11  C   UNL     1       2.654   3.096  17.675  0.00  0.00    +0.000 C 
ATOM     12  C   UNL     1       2.417   5.562  18.062  0.00  0.00    +0.000 A 
BRANCH   9  13
ATOM     13  O   UNL     1       5.304   3.716  16.772  0.00  0.00    +0.000 OA
ATOM     14  H   UNL     1       6.217   4.034  16.679  0.00  0.00    +0.000 HD
ENDBRANCH   9  13
ENDBRANCH   3   6
BRANCH   1  18
ATOM     15  C   UNL     1       2.029  14.122  18.402  0.00  0.00    +0.000 A 
ATOM     16  C   UNL     1       2.962  13.088  18.231  0.00  0.00    +0.000 A 
ATOM     17  C   UNL     1       2.563  11.754  18.213  0.00  0.00    +0.000 A 
ATOM     18  C   UNL     1       1.229  11.404  18.440  0.00  0.00    +0.000 A 
ATOM     19  C   UNL     1       0.308  12.436  18.653  0.00  0.00    +0.000 A 
ATOM     20  C   UNL     1       0.687  13.791  18.638  0.00  0.00    +0.000 A 
BRANCH  15  22
ATOM     21  C   UNL     1       3.622  15.700  17.648  0.00  0.00    +0.000 C 
ATOM     22  O   UNL     1       2.411  15.437  18.358  0.00  0.00    +0.000 OA
ENDBRANCH  15  22
BRANCH  20  23
ATOM     23  O   UNL     1      -0.386  14.617  18.850  0.00  0.00    +0.000 OA
ATOM     24  C   UNL     1      -0.772  14.919  20.180  0.00  0.00    +0.000 C 
ENDBRANCH  20  23
ENDBRANCH   1  18
BRANCH   5  25
ATOM     25  C   UNL     1       0.365   9.709  20.952  0.00  0.00    +0.000 A 
ATOM     26  C   UNL     1      -0.594  10.739  20.966  0.00  0.00    +0.000 A 
ATOM     27  C   UNL     1      -1.229  11.135  22.145  0.00  0.00    +0.000 A 
ATOM     28  C   UNL     1      -0.896  10.525  23.349  0.00  0.00    +0.000 A 
ATOM     29  C   UNL     1       0.059   9.512  23.367  0.00  0.00    +0.000 A 
ATOM     30  C   UNL     1       0.676   9.105  22.181  0.00  0.00    +0.000 A 
ENDBRANCH   5  25
TORSDOF 6
ENDMDL
MODEL 2
REMARK VINA RESULT:      -7.9      0.320      1.566
REMARK  Name = 
REMARK  9 active torsions:
REMARK  status: ('A' for Active; 'I' for Inactive)
REMARK    1  A    between atoms: C_1  and  O_2
REMARK    2  A    between atoms: O_2  and  C_3
REMARK    3  A    between atoms: C_6  and  C_7
REMARK    4  A    between atoms: C_9  and  C_10
REMARK    5  A    between atoms: C_13  and  O_14
REMARK    6  A    between atoms: C_15  and  C_16
REMARK    7  A    between atoms: N_19  and  C_20
REMARK    8  A    between atoms: C_27  and  O_28
REMARK    9  A    between atoms: O_28  and  C_29
REMARK                            x       y       z     vdW  Elec       q    Type
REMARK                         _______ _______ _______ _____ _____    ______ ____
ROOT
ATOM      1  C   UNL     1       0.740   9.980  18.435  0.00  0.00    +0.000 C 
ATOM      2  C   UNL     1       1.635   9.117  17.538  0.00  0.00    +0.000 C 
ATOM      3  C   UNL     1       2.066   8.057  18.515  0.00  0.00    +0.000 C 
ATOM      4  N   UNL     1       1.649   8.223  19.732  0.00  0.00    +0.000 NA
ATOM      5  N   UNL     1       0.860   9.330  19.742  0.00  0.00    +0.000 N 
ENDROOT
BRANCH   3   6
ATOM      6  C   UNL     1       2.906   6.905  18.108  0.00  0.00    +0.000 A 
ATOM      7  C   UNL     1       2.415   5.612  18.316  0.00  0.00    +0.000 A 
ATOM      8  C   UNL     1       3.168   4.500  17.935  0.00  0.00    +0.000 A 
ATOM      9  C   UNL     1       4.418   4.683  17.349  0.00  0.00    +0.000 A 
ATOM     10  C   UNL     1       4.936   5.965  17.136  0.00  0.00    +0.000 A 
ATOM     11  C   UNL     1       6.287   6.193  16.522  0.00  0.00    +0.000 C 
ATOM     12  C   UNL     1       4.163   7.079  17.515  0.00  0.00    +0.000 A 
BRANCH   9  13
ATOM     13  O   UNL     1       5.156   3.597  16.971  0.00  0.00    +0.000 OA
ATOM     14  H   UNL     1       5.451   3.125  17.767  0.00  0.00    +0.000 HD
ENDBRANCH   9  13
ENDBRANCH   3   6
BRANCH   1  18
ATOM     15  C   UNL     1       1.994  14.152  18.420  0.00  0.00    +0.000 A 
ATOM     16  C   UNL     1       2.930  13.123  18.240  0.00  0.00    +0.000 A 
ATOM     17  C   UNL     1       2.535  11.787  18.209  0.00  0.00    +0.000 A 
ATOM     18  C   UNL     1       1.202  11.432  18.433  0.00  0.00    +0.000 A 
ATOM     19  C   UNL     1       0.278  12.459  18.655  0.00  0.00    +0.000 A 
ATOM     20  C   UNL     1       0.653  13.814  18.653  0.00  0.00    +0.000 A 
BRANCH  15  22
ATOM     21  C   UNL     1       3.476  15.769  17.535  0.00  0.00    +0.000 C 
ATOM     22  O   UNL     1       2.372  15.469  18.389  0.00  0.00    +0.000 OA
ENDBRANCH  15  22
BRANCH  20  23
ATOM     23  O   UNL     1      -0.422  14.635  18.873  0.00  0.00    +0.000 OA
ATOM     24  C   UNL     1      -1.064  14.609  20.137  0.00  0.00    +0.000 C 
ENDBRANCH  20  23
ENDBRANCH   1  18
BRANCH   5  25
ATOM     25  C   UNL     1       0.234   9.745  20.913  0.00  0.00    +0.000 A 
ATOM     26  C   UNL     1       0.522   9.111  22.136  0.00  0.00    +0.000 A 
ATOM     27  C   UNL     1      -0.046   9.542  23.337  0.00  0.00    +0.000 A 
ATOM     28  C   UNL     1      -0.942  10.605  23.337  0.00  0.00    +0.000 A 
ATOM     29  C   UNL     1      -1.256  11.242  22.139  0.00  0.00    +0.000 A 
ATOM     30  C   UNL     1      -0.667  10.821  20.943  0.00  0.00    +0.000 A 
ENDBRANCH   5  25
TORSDOF 6
ENDMDL
MODEL 3
REMARK VINA RESULT:      -7.7      2.698      4.440
REMARK  Name = 
REMARK  9 active torsions:
REMARK  status: ('A' for Active; 'I' for Inactive)
REMARK    1  A    between atoms: C_1  and  O_2
REMARK    2  A    between atoms: O_2  and  C_3
REMARK    3  A    between atoms: C_6  and  C_7
REMARK    4  A    between atoms: C_9  and  C_10
REMARK    5  A    between atoms: C_13  and  O_14
REMARK    6  A    between atoms: C_15  and  C_16
REMARK    7  A    between atoms: N_19  and  C_20
REMARK    8  A    between atoms: C_27  and  O_28
REMARK    9  A    between atoms: O_28  and  C_29
REMARK                            x       y       z     vdW  Elec       q    Type
REMARK                         _______ _______ _______ _____ _____    ______ ____
ROOT
ATOM      1  C   UNL     1       0.507  11.440  18.811  0.00  0.00    +0.000 C 
ATOM      2  C   UNL     1       1.768  10.613  19.082  0.00  0.00    +0.000 C 
ATOM      3  C   UNL     1       1.352   9.280  18.521  0.00  0.00    +0.000 C 
ATOM      4  N   UNL     1       0.131   9.220  18.086  0.00  0.00    +0.000 NA
ATOM      5  N   UNL     1      -0.409  10.460  18.223  0.00  0.00    +0.000 N 
ENDROOT
BRANCH   3   6
ATOM      6  C   UNL     1       2.277   8.123  18.470  0.00  0.00    +0.000 A 
ATOM      7  C   UNL     1       2.226   7.179  19.502  0.00  0.00    +0.000 A 
ATOM      8  C   UNL     1       3.069   6.068  19.485  0.00  0.00    +0.000 A 
ATOM      9  C   UNL     1       3.971   5.902  18.436  0.00  0.00    +0.000 A 
ATOM     10  C   UNL     1       4.047   6.835  17.396  0.00  0.00    +0.000 A 
ATOM     11  C   UNL     1       5.019   6.692  16.260  0.00  0.00    +0.000 C 
ATOM     12  C   UNL     1       3.183   7.946  17.418  0.00  0.00    +0.000 A 
BRANCH   9  13
ATOM     13  O   UNL     1       4.794   4.813  18.414  0.00  0.00    +0.000 OA
ATOM     14  H   UNL     1       5.359   4.831  19.204  0.00  0.00    +0.000 HD
ENDBRANCH   9  13
ENDBRANCH   3   6
BRANCH   1  18
ATOM     15  C   UNL     1      -1.016  13.183  22.501  0.00  0.00    +0.000 A 
ATOM     16  C   UNL     1      -0.749  13.990  21.385  0.00  0.00    +0.000 A 
ATOM     17  C   UNL     1      -0.295  13.439  20.190  0.00  0.00    +0.000 A 
ATOM     18  C   UNL     1      -0.019  12.072  20.093  0.00  0.00    +0.000 A 
ATOM     19  C   UNL     1      -0.245  11.276  21.222  0.00  0.00    +0.000 A 
ATOM     20  C   UNL     1      -0.740  11.810  22.425  0.00  0.00    +0.000 A 
BRANCH  15  22
ATOM     21  C   UNL     1      -1.117  15.055  23.944  0.00  0.00    +0.000 C 
ATOM     22  O   UNL     1      -1.522  13.716  23.658  0.00  0.00    +0.000 OA
ENDBRANCH  15  22
BRANCH  20  23
ATOM     23  O   UNL     1      -0.898  10.839  23.380  0.00  0.00    +0.000 OA
ATOM     24  C   UNL     1      -0.137   9.648  23.286  0.00  0.00    +0.000 C 
ENDBRANCH  20  23
ENDBRANCH   1  18
BRANCH   5  25
ATOM     25  C   UNL     1      -1.711  10.718  17.804  0.00  0.00    +0.000 A 
ATOM     26  C   UNL     1      -2.163  10.246  16.558  0.00  0.00    +0.000 A 
ATOM     27  C   UNL     1      -3.480  10.438  16.136  0.00  0.00    +0.000 A 
ATOM     28  C   UNL     1      -4.372  11.136  16.943  0.00  0.00    +0.000 A 
ATOM     29  C   UNL     1      -3.947  11.626  18.175  0.00  0.00    +0.000 A 
ATOM     30  C   UNL     1      -2.634  11.412  18.603  0.00  0.00    +0.000 A 
ENDBRANCH   5  25
TORSDOF 6
ENDMDL
MODEL 4
REMARK VINA RESULT:      -7.6      1.157      1.173
REMARK  Name = 
REMARK  9 active torsions:
REMARK  status: ('A' for Active; 'I' for Inactive)
REMARK    1  A    between atoms: C_1  and  O_2
REMARK    2  A    between atoms: O_2  and  C_3
REMARK    3  A    between atoms: C_6  and  C_7
REMARK    4  A    between atoms: C_9  and  C_10
REMARK    5  A    between atoms: C_13  and  O_14
REMARK    6  A    between atoms: C_15  and  C_16
REMARK    7  A    between atoms: N_19  and  C_20
REMARK    8  A    between atoms: C_27  and  O_28
REMARK    9  A    between atoms: O_28  and  C_29
REMARK                            x       y       z     vdW  Elec       q    Type
REMARK                         _______ _______ _______ _____ _____    ______ ____
ROOT
ATOM      1  C   UNL     1       1.165  10.279  18.608  0.00  0.00    +0.000 C 
ATOM      2  C   UNL     1       2.015   9.404  17.680  0.00  0.00    +0.000 C 
ATOM      3  C   UNL     1       2.184   8.177  18.532  0.00  0.00    +0.000 C 
ATOM      4  N   UNL     1       1.669   8.253  19.721  0.00  0.00    +0.000 NA
ATOM      5  N   UNL     1       1.051   9.460  19.817  0.00  0.00    +0.000 N 
ENDROOT
BRANCH   3   6
ATOM      6  C   UNL     1       2.887   6.967  18.042  0.00  0.00    +0.000 A 
ATOM      7  C   UNL     1       4.153   7.116  17.464  0.00  0.00    +0.000 A 
ATOM      8  C   UNL     1       4.855   6.002  17.003  0.00  0.00    +0.000 A 
ATOM      9  C   UNL     1       4.287   4.735  17.114  0.00  0.00    +0.000 A 
ATOM     10  C   UNL     1       3.020   4.559  17.681  0.00  0.00    +0.000 A 
ATOM     11  C   UNL     1       2.375   3.208  17.800  0.00  0.00    +0.000 C 
ATOM     12  C   UNL     1       2.326   5.689  18.153  0.00  0.00    +0.000 A 
BRANCH   9  13
ATOM     13  O   UNL     1       4.973   3.642  16.667  0.00  0.00    +0.000 OA
ATOM     14  H   UNL     1       4.870   2.922  17.310  0.00  0.00    +0.000 HD
ENDBRANCH   9  13
ENDBRANCH   3   6
BRANCH   1  18
ATOM     15  C   UNL     1       3.022  14.149  19.348  0.00  0.00    +0.000 A 
ATOM     16  C   UNL     1       3.204  13.490  18.124  0.00  0.00    +0.000 A 
ATOM     17  C   UNL     1       2.588  12.269  17.864  0.00  0.00    +0.000 A 
ATOM     18  C   UNL     1       1.829  11.628  18.848  0.00  0.00    +0.000 A 
ATOM     19  C   UNL     1       1.684  12.268  20.084  0.00  0.00    +0.000 A 
ATOM     20  C   UNL     1       2.269  13.520  20.350  0.00  0.00    +0.000 A 
BRANCH  15  22
ATOM     21  C   UNL     1       2.723  16.496  19.327  0.00  0.00    +0.000 C 
ATOM     22  O   UNL     1       3.577  15.380  19.582  0.00  0.00    +0.000 OA
ENDBRANCH  15  22
BRANCH  20  23
ATOM     23  O   UNL     1       1.975  13.954  21.617  0.00  0.00    +0.000 OA
ATOM     24  C   UNL     1       0.659  14.395  21.907  0.00  0.00    +0.000 C 
ENDBRANCH  20  23
ENDBRANCH   1  18
BRANCH   5  25
ATOM     25  C   UNL     1       0.371   9.819  20.977  0.00  0.00    +0.000 A 
ATOM     26  C   UNL     1      -0.668  10.766  20.927  0.00  0.00    +0.000 A 
ATOM     27  C   UNL     1      -1.408  11.104  22.063  0.00  0.00    +0.000 A 
ATOM     28  C   UNL     1      -1.102  10.520  23.287  0.00  0.00    +0.000 A 
ATOM     29  C   UNL     1      -0.069   9.590  23.368  0.00  0.00    +0.000 A 
ATOM     30  C   UNL     1       0.653   9.238  22.224  0.00  0.00    +0.000 A 
ENDBRANCH   5  25
TORSDOF 6
ENDMDL
MODEL 5
REMARK VINA RESULT:      -7.6      2.720      4.582
REMARK  Name = 
REMARK  9 active torsions:
REMARK  status: ('A' for Active; 'I' for Inactive)
REMARK    1  A    between atoms: C_1  and  O_2
REMARK    2  A    between atoms: O_2  and  C_3
REMARK    3  A    between atoms: C_6  and  C_7
REMARK    4  A    between atoms: C_9  and  C_10
REMARK    5  A    between atoms: C_13  and  O_14
REMARK    6  A    between atoms: C_15  and  C_16
REMARK    7  A    between atoms: N_19  and  C_20
REMARK    8  A    between atoms: C_27  and  O_28
REMARK    9  A    between atoms: O_28  and  C_29
REMARK                            x       y       z     vdW  Elec       q    Type
REMARK                         _______ _______ _______ _____ _____    ______ ____
ROOT
ATOM      1  C   UNL     1       0.383  11.517  18.797  0.00  0.00    +0.000 C 
ATOM      2  C   UNL     1       1.644  10.697  19.092  0.00  0.00    +0.000 C 
ATOM      3  C   UNL     1       1.241   9.359  18.536  0.00  0.00    +0.000 C 
ATOM      4  N   UNL     1       0.027   9.290  18.084  0.00  0.00    +0.000 NA
ATOM      5  N   UNL     1      -0.520  10.529  18.203  0.00  0.00    +0.000 N 
ENDROOT
BRANCH   3   6
ATOM      6  C   UNL     1       2.171   8.204  18.508  0.00  0.00    +0.000 A 
ATOM      7  C   UNL     1       2.124   7.280  19.558  0.00  0.00    +0.000 A 
ATOM      8  C   UNL     1       2.972   6.173  19.563  0.00  0.00    +0.000 A 
ATOM      9  C   UNL     1       3.875   5.991  18.518  0.00  0.00    +0.000 A 
ATOM     10  C   UNL     1       3.948   6.904  17.460  0.00  0.00    +0.000 A 
ATOM     11  C   UNL     1       4.922   6.744  16.328  0.00  0.00    +0.000 C 
ATOM     12  C   UNL     1       3.079   8.012  17.460  0.00  0.00    +0.000 A 
BRANCH   9  13
ATOM     13  O   UNL     1       4.704   4.906  18.518  0.00  0.00    +0.000 OA
ATOM     14  H   UNL     1       5.160   4.859  17.661  0.00  0.00    +0.000 HD
ENDBRANCH   9  13
ENDBRANCH   3   6
BRANCH   1  18
ATOM     15  C   UNL     1      -1.198  13.282  22.451  0.00  0.00    +0.000 A 
ATOM     16  C   UNL     1      -0.984  14.070  21.311  0.00  0.00    +0.000 A 
ATOM     17  C   UNL     1      -0.511  13.509  20.126  0.00  0.00    +0.000 A 
ATOM     18  C   UNL     1      -0.165  12.156  20.066  0.00  0.00    +0.000 A 
ATOM     19  C   UNL     1      -0.339  11.382  21.218  0.00  0.00    +0.000 A 
ATOM     20  C   UNL     1      -0.850  11.924  22.412  0.00  0.00    +0.000 A 
BRANCH  15  22
ATOM     21  C   UNL     1      -3.146  13.920  23.632  0.00  0.00    +0.000 C 
ATOM     22  O   UNL     1      -1.722  13.820  23.598  0.00  0.00    +0.000 OA
ENDBRANCH  15  22
BRANCH  20  23
ATOM     23  O   UNL     1      -0.948  10.974  23.395  0.00  0.00    +0.000 OA
ATOM     24  C   UNL     1      -0.276   9.738  23.230  0.00  0.00    +0.000 C 
ENDBRANCH  20  23
ENDBRANCH   1  18
BRANCH   5  25
ATOM     25  C   UNL     1      -1.816  10.778  17.763  0.00  0.00    +0.000 A 
ATOM     26  C   UNL     1      -2.765  11.346  18.633  0.00  0.00    +0.000 A 
ATOM     27  C   UNL     1      -4.057  11.661  18.205  0.00  0.00    +0.000 A 
ATOM     28  C   UNL     1      -4.439  11.386  16.897  0.00  0.00    +0.000 A 
ATOM     29  C   UNL     1      -3.525  10.811  16.018  0.00  0.00    +0.000 A 
ATOM     30  C   UNL     1      -2.227  10.519  16.445  0.00  0.00    +0.000 A 
ENDBRANCH   5  25
TORSDOF 6
ENDMDL
MODEL 6
REMARK VINA RESULT:      -7.6      2.664      4.540
REMARK  Name = 
REMARK  9 active torsions:
REMARK  status: ('A' for Active; 'I' for Inactive)
REMARK    1  A    between atoms: C_1  and  O_2
REMARK    2  A    between atoms: O_2  and  C_3
REMARK    3  A    between atoms: C_6  and  C_7
REMARK    4  A    between atoms: C_9  and  C_10
REMARK    5  A    between atoms: C_13  and  O_14
REMARK    6  A    between atoms: C_15  and  C_16
REMARK    7  A    between atoms: N_19  and  C_20
REMARK    8  A    between atoms: C_27  and  O_28
REMARK    9  A    between atoms: O_28  and  C_29
REMARK                            x       y       z     vdW  Elec       q    Type
REMARK                         _______ _______ _______ _____ _____    ______ ____
ROOT
ATOM      1  C   UNL     1       0.391  10.121  19.603  0.00  0.00    +0.000 C 
ATOM      2  C   UNL     1       0.618   8.642  19.270  0.00  0.00    +0.000 C 
ATOM      3  C   UNL     1       1.942   8.717  18.559  0.00  0.00    +0.000 C 
ATOM      4  N   UNL     1       2.412   9.914  18.390  0.00  0.00    +0.000 NA
ATOM      5  N   UNL     1       1.549  10.776  18.990  0.00  0.00    +0.000 N 
ENDROOT
BRANCH   3   6
ATOM      6  C   UNL     1       2.655   7.505  18.090  0.00  0.00    +0.000 A 
ATOM      7  C   UNL     1       3.901   7.658  17.473  0.00  0.00    +0.000 A 
ATOM      8  C   UNL     1       4.612   6.542  17.030  0.00  0.00    +0.000 A 
ATOM      9  C   UNL     1       4.071   5.269  17.197  0.00  0.00    +0.000 A 
ATOM     10  C   UNL     1       2.823   5.089  17.803  0.00  0.00    +0.000 A 
ATOM     11  C   UNL     1       2.207   3.731  17.983  0.00  0.00    +0.000 C 
ATOM     12  C   UNL     1       2.121   6.222  18.257  0.00  0.00    +0.000 A 
BRANCH   9  13
ATOM     13  O   UNL     1       4.766   4.175  16.767  0.00  0.00    +0.000 OA
ATOM     14  H   UNL     1       5.364   4.444  16.051  0.00  0.00    +0.000 HD
ENDBRANCH   9  13
ENDBRANCH   3   6
BRANCH   1  18
ATOM     15  C   UNL     1      -3.413  11.478  17.973  0.00  0.00    +0.000 A 
ATOM     16  C   UNL     1      -2.900  12.037  19.153  0.00  0.00    +0.000 A 
ATOM     17  C   UNL     1      -1.669  11.634  19.664  0.00  0.00    +0.000 A 
ATOM     18  C   UNL     1      -0.944  10.606  19.054  0.00  0.00    +0.000 A 
ATOM     19  C   UNL     1      -1.479  10.021  17.901  0.00  0.00    +0.000 A 
ATOM     20  C   UNL     1      -2.704  10.441  17.350  0.00  0.00    +0.000 A 
BRANCH  15  22
ATOM     21  C   UNL     1      -5.764  11.229  17.881  0.00  0.00    +0.000 C 
ATOM     22  O   UNL     1      -4.595  11.918  17.435  0.00  0.00    +0.000 OA
ENDBRANCH  15  22
BRANCH  20  23
ATOM     23  O   UNL     1      -3.013   9.738  16.215  0.00  0.00    +0.000 OA
ATOM     24  C   UNL     1      -2.951  10.392  14.959  0.00  0.00    +0.000 C 
ENDBRANCH  20  23
ENDBRANCH   1  18
BRANCH   5  25
ATOM     25  C   UNL     1       1.807  12.144  19.006  0.00  0.00    +0.000 A 
ATOM     26  C   UNL     1       1.585  12.895  20.174  0.00  0.00    +0.000 A 
ATOM     27  C   UNL     1       1.889  14.257  20.239  0.00  0.00    +0.000 A 
ATOM     28  C   UNL     1       2.397  14.907  19.120  0.00  0.00    +0.000 A 
ATOM     29  C   UNL     1       2.613  14.191  17.946  0.00  0.00    +0.000 A 
ATOM     30  C   UNL     1       2.329  12.823  17.894  0.00  0.00    +0.000 A 
ENDBRANCH   5  25
TORSDOF 6
ENDMDL
MODEL 7
REMARK VINA RESULT:      -7.6      2.772      4.422
REMARK  Name = 
REMARK  9 active torsions:
REMARK  status: ('A' for Active; 'I' for Inactive)
REMARK    1  A    between atoms: C_1  and  O_2
REMARK    2  A    between atoms: O_2  and  C_3
REMARK    3  A    between atoms: C_6  and  C_7
REMARK    4  A    between atoms: C_9  and  C_10
REMARK    5  A    between atoms: C_13  and  O_14
REMARK    6  A    between atoms: C_15  and  C_16
REMARK    7  A    between atoms: N_19  and  C_20
REMARK    8  A    between atoms: C_27  and  O_28
REMARK    9  A    between atoms: O_28  and  C_29
REMARK                            x       y       z     vdW  Elec       q    Type
REMARK                         _______ _______ _______ _____ _____    ______ ____
ROOT
ATOM      1  C   UNL     1       0.368  11.530  18.796  0.00  0.00    +0.000 C 
ATOM      2  C   UNL     1       1.620  10.694  19.083  0.00  0.00    +0.000 C 
ATOM      3  C   UNL     1       1.211   9.371  18.495  0.00  0.00    +0.000 C 
ATOM      4  N   UNL     1       0.000   9.321  18.033  0.00  0.00    +0.000 NA
ATOM      5  N   UNL     1      -0.538  10.561  18.175  0.00  0.00    +0.000 N 
ENDROOT
BRANCH   3   6
ATOM      6  C   UNL     1       2.133   8.211  18.449  0.00  0.00    +0.000 A 
ATOM      7  C   UNL     1       3.124   8.182  17.461  0.00  0.00    +0.000 A 
ATOM      8  C   UNL     1       4.020   7.115  17.390  0.00  0.00    +0.000 A 
ATOM      9  C   UNL     1       3.923   6.071  18.306  0.00  0.00    +0.000 A 
ATOM     10  C   UNL     1       2.937   6.072  19.300  0.00  0.00    +0.000 A 
ATOM     11  C   UNL     1       2.797   4.953  20.291  0.00  0.00    +0.000 C 
ATOM     12  C   UNL     1       2.045   7.159  19.368  0.00  0.00    +0.000 A 
BRANCH   9  13
ATOM     13  O   UNL     1       4.802   5.027  18.242  0.00  0.00    +0.000 OA
ATOM     14  H   UNL     1       5.654   5.355  17.910  0.00  0.00    +0.000 HD
ENDBRANCH   9  13
ENDBRANCH   3   6
BRANCH   1  18
ATOM     15  C   UNL     1      -1.221  13.228  22.479  0.00  0.00    +0.000 A 
ATOM     16  C   UNL     1      -1.065  14.022  21.334  0.00  0.00    +0.000 A 
ATOM     17  C   UNL     1      -0.590  13.482  20.142  0.00  0.00    +0.000 A 
ATOM     18  C   UNL     1      -0.183  12.146  20.075  0.00  0.00    +0.000 A 
ATOM     19  C   UNL     1      -0.300  11.367  21.232  0.00  0.00    +0.000 A 
ATOM     20  C   UNL     1      -0.812  11.887  22.434  0.00  0.00    +0.000 A 
BRANCH  15  22
ATOM     21  C   UNL     1      -1.175  14.978  24.070  0.00  0.00    +0.000 C 
ATOM     22  O   UNL     1      -1.746  13.744  23.635  0.00  0.00    +0.000 OA
ENDBRANCH  15  22
BRANCH  20  23
ATOM     23  O   UNL     1      -0.849  10.935  23.420  0.00  0.00    +0.000 OA
ATOM     24  C   UNL     1      -0.283   9.660  23.170  0.00  0.00    +0.000 C 
ENDBRANCH  20  23
ENDBRANCH   1  18
BRANCH   5  25
ATOM     25  C   UNL     1      -1.830  10.830  17.732  0.00  0.00    +0.000 A 
ATOM     26  C   UNL     1      -2.217  10.488  16.424  0.00  0.00    +0.000 A 
ATOM     27  C   UNL     1      -3.522  10.691  15.968  0.00  0.00    +0.000 A 
ATOM     28  C   UNL     1      -4.466  11.271  16.808  0.00  0.00    +0.000 A 
ATOM     29  C   UNL     1      -4.106  11.632  18.104  0.00  0.00    +0.000 A 
ATOM     30  C   UNL     1      -2.805  11.405  18.562  0.00  0.00    +0.000 A 
ENDBRANCH   5  25
TORSDOF 6
ENDMDL
MODEL 8
REMARK VINA RESULT:      -7.5      1.300      2.089
REMARK  Name = 
REMARK  9 active torsions:
REMARK  status: ('A' for Active; 'I' for Inactive)
REMARK    1  A    between atoms: C_1  and  O_2
REMARK    2  A    between atoms: O_2  and  C_3
REMARK    3  A    between atoms: C_6  and  C_7
REMARK    4  A    between atoms: C_9  and  C_10
REMARK    5  A    between atoms: C_13  and  O_14
REMARK    6  A    between atoms: C_15  and  C_16
REMARK    7  A    between atoms: N_19  and  C_20
REMARK    8  A    between atoms: C_27  and  O_28
REMARK    9  A    between atoms: O_28  and  C_29
REMARK                            x       y       z     vdW  Elec       q    Type
REMARK                         _______ _______ _______ _____ _____    ______ ____
ROOT
ATOM      1  C   UNL     1       0.474  11.079  18.548  0.00  0.00    +0.000 C 
ATOM      2  C   UNL     1       1.460  10.055  17.975  0.00  0.00    +0.000 C 
ATOM      3  C   UNL     1       1.481   9.039  19.085  0.00  0.00    +0.000 C 
ATOM      4  N   UNL     1       0.779   9.348  20.131  0.00  0.00    +0.000 NA
ATOM      5  N   UNL     1       0.160  10.530  19.869  0.00  0.00    +0.000 N 
ENDROOT
BRANCH   3   6
ATOM      6  C   UNL     1       2.249   7.775  18.982  0.00  0.00    +0.000 A 
ATOM      7  C   UNL     1       2.088   6.811  19.983  0.00  0.00    +0.000 A 
ATOM      8  C   UNL     1       2.781   5.602  19.918  0.00  0.00    +0.000 A 
ATOM      9  C   UNL     1       3.643   5.358  18.851  0.00  0.00    +0.000 A 
ATOM     10  C   UNL     1       3.827   6.309  17.840  0.00  0.00    +0.000 A 
ATOM     11  C   UNL     1       4.761   6.081  16.686  0.00  0.00    +0.000 C 
ATOM     12  C   UNL     1       3.114   7.520  17.912  0.00  0.00    +0.000 A 
BRANCH   9  13
ATOM     13  O   UNL     1       4.320   4.174  18.781  0.00  0.00    +0.000 OA
ATOM     14  H   UNL     1       5.167   4.269  19.248  0.00  0.00    +0.000 HD
ENDBRANCH   9  13
ENDBRANCH   3   6
BRANCH   1  18
ATOM     15  C   UNL     1       2.192  15.079  18.678  0.00  0.00    +0.000 A 
ATOM     16  C   UNL     1       3.018  13.948  18.609  0.00  0.00    +0.000 A 
ATOM     17  C   UNL     1       2.479  12.666  18.533  0.00  0.00    +0.000 A 
ATOM     18  C   UNL     1       1.097  12.468  18.599  0.00  0.00    +0.000 A 
ATOM     19  C   UNL     1       0.277  13.597  18.711  0.00  0.00    +0.000 A 
ATOM     20  C   UNL     1       0.803  14.901  18.751  0.00  0.00    +0.000 A 
BRANCH  15  22
ATOM     21  C   UNL     1       2.946  16.926  17.406  0.00  0.00    +0.000 C 
ATOM     22  O   UNL     1       2.720  16.344  18.690  0.00  0.00    +0.000 OA
ENDBRANCH  15  22
BRANCH  20  23
ATOM     23  O   UNL     1      -0.189  15.842  18.843  0.00  0.00    +0.000 OA
ATOM     24  C   UNL     1      -1.072  15.809  19.951  0.00  0.00    +0.000 C 
ENDBRANCH  20  23
ENDBRANCH   1  18
BRANCH   5  25
ATOM     25  C   UNL     1      -0.698  11.104  20.801  0.00  0.00    +0.000 A 
ATOM     26  C   UNL     1      -0.448  10.963  22.179  0.00  0.00    +0.000 A 
ATOM     27  C   UNL     1      -1.258  11.576  23.138  0.00  0.00    +0.000 A 
ATOM     28  C   UNL     1      -2.359  12.324  22.738  0.00  0.00    +0.000 A 
ATOM     29  C   UNL     1      -2.638  12.469  21.382  0.00  0.00    +0.000 A 
ATOM     30  C   UNL     1      -1.812  11.872  20.426  0.00  0.00    +0.000 A 
ENDBRANCH   5  25
TORSDOF 6
ENDMDL
MODEL 9
REMARK VINA RESULT:      -7.5      1.955      2.730
REMARK  Name = 
REMARK  9 active torsions:
REMARK  status: ('A' for Active; 'I' for Inactive)
REMARK    1  A    between atoms: C_1  and  O_2
REMARK    2  A    between atoms: O_2  and  C_3
REMARK    3  A    between atoms: C_6  and  C_7
REMARK    4  A    between atoms: C_9  and  C_10
REMARK    5  A    between atoms: C_13  and  O_14
REMARK    6  A    between atoms: C_15  and  C_16
REMARK    7  A    between atoms: N_19  and  C_20
REMARK    8  A    between atoms: C_27  and  O_28
REMARK    9  A    between atoms: O_28  and  C_29
REMARK                            x       y       z     vdW  Elec       q    Type
REMARK                         _______ _______ _______ _____ _____    ______ ____
ROOT
ATOM      1  C   UNL     1       0.713  11.441  18.830  0.00  0.00    +0.000 C 
ATOM      2  C   UNL     1       1.690  10.385  18.299  0.00  0.00    +0.000 C 
ATOM      3  C   UNL     1       1.421   9.254  19.254  0.00  0.00    +0.000 C 
ATOM      4  N   UNL     1       0.575   9.518  20.201  0.00  0.00    +0.000 NA
ATOM      5  N   UNL     1       0.121  10.783  19.996  0.00  0.00    +0.000 N 
ENDROOT
BRANCH   3   6
ATOM      6  C   UNL     1       2.080   7.933  19.115  0.00  0.00    +0.000 A 
ATOM      7  C   UNL     1       2.891   7.703  17.999  0.00  0.00    +0.000 A 
ATOM      8  C   UNL     1       3.539   6.478  17.837  0.00  0.00    +0.000 A 
ATOM      9  C   UNL     1       3.371   5.478  18.792  0.00  0.00    +0.000 A 
ATOM     10  C   UNL     1       2.560   5.680  19.914  0.00  0.00    +0.000 A 
ATOM     11  C   UNL     1       2.347   4.615  20.951  0.00  0.00    +0.000 C 
ATOM     12  C   UNL     1       1.920   6.923  20.072  0.00  0.00    +0.000 A 
BRANCH   9  13
ATOM     13  O   UNL     1       4.009   4.280  18.638  0.00  0.00    +0.000 OA
ATOM     14  H   UNL     1       4.961   4.411  18.774  0.00  0.00    +0.000 HD
ENDBRANCH   9  13
ENDBRANCH   3   6
BRANCH   1  18
ATOM     15  C   UNL     1       2.788  15.130  19.857  0.00  0.00    +0.000 A 
ATOM     16  C   UNL     1       2.139  14.994  18.621  0.00  0.00    +0.000 A 
ATOM     17  C   UNL     1       1.444  13.832  18.296  0.00  0.00    +0.000 A 
ATOM     18  C   UNL     1       1.438  12.738  19.166  0.00  0.00    +0.000 A 
ATOM     19  C   UNL     1       2.122  12.861  20.380  0.00  0.00    +0.000 A 
ATOM     20  C   UNL     1       2.798  14.041  20.740  0.00  0.00    +0.000 A 
BRANCH  15  22
ATOM     21  C   UNL     1       4.451  16.722  19.312  0.00  0.00    +0.000 C 
ATOM     22  O   UNL     1       3.419  16.297  20.203  0.00  0.00    +0.000 OA
ENDBRANCH  15  22
BRANCH  20  23
ATOM     23  O   UNL     1       3.375  13.933  21.979  0.00  0.00    +0.000 OA
ATOM     24  C   UNL     1       4.787  13.985  22.089  0.00  0.00    +0.000 C 
ENDBRANCH  20  23
ENDBRANCH   1  18
BRANCH   5  25
ATOM     25  C   UNL     1      -0.836  11.339  20.841  0.00  0.00    +0.000 A 
ATOM     26  C   UNL     1      -0.762  11.135  22.231  0.00  0.00    +0.000 A 
ATOM     27  C   UNL     1      -1.672  11.727  23.109  0.00  0.00    +0.000 A 
ATOM     28  C   UNL     1      -2.701  12.517  22.610  0.00  0.00    +0.000 A 
ATOM     29  C   UNL     1      -2.807  12.725  21.237  0.00  0.00    +0.000 A 
ATOM     30  C   UNL     1      -1.879  12.149  20.365  0.00  0.00    +0.000 A 
ENDBRANCH   5  25
TORSDOF 6
ENDMDL
