MODEL 1
REMARK VINA RESULT:      -7.9      0.000      0.000
REMARK  Name = 
REMARK  7 active torsions:
REMARK  status: ('A' for Active; 'I' for Inactive)
REMARK    1  A    between atoms: C_1  and  O_2
REMARK    2  A    between atoms: O_2  and  C_3
REMARK    3  A    between atoms: C_3  and  C_4
REMARK    4  A    between atoms: C_3  and  C_15
REMARK    5  A    between atoms: C_3  and  C_21
REMARK    6  A    between atoms: N_6  and  C_7
REMARK    7  A    between atoms: C_7  and  C_8
REMARK                            x       y       z     vdW  Elec       q    Type
REMARK                         _______ _______ _______ _____ _____    ______ ____
ROOT
ATOM      1  C   UNL     1       4.227   5.606  18.208  0.00  0.00    +0.000 C 
ENDROOT
BRANCH   1   2
ATOM      2  C   UNL     1       4.849   5.034  16.898  0.00  0.00    +0.000 A 
ATOM      3  C   UNL     1       5.140   5.867  15.797  0.00  0.00    +0.000 A 
ATOM      4  C   UNL     1       5.756   5.371  14.644  0.00  0.00    +0.000 A 
ATOM      5  C   UNL     1       6.049   4.017  14.542  0.00  0.00    +0.000 A 
ATOM      6  C   UNL     1       5.709   3.158  15.580  0.00  0.00    +0.000 A 
ATOM      7  C   UNL     1       5.108   3.659  16.739  0.00  0.00    +0.000 A 
ENDBRANCH   1   2
BRANCH   1   8
ATOM      8  C   UNL     1       2.985   4.843  18.753  0.00  0.00    +0.000 A 
ATOM      9  C   UNL     1       2.656   4.871  20.123  0.00  0.00    +0.000 A 
ATOM     10  C   UNL     1       1.599   4.105  20.625  0.00  0.00    +0.000 A 
ATOM     11  C   UNL     1       0.835   3.318  19.768  0.00  0.00    +0.000 A 
ATOM     12  C   UNL     1       1.086   3.345  18.400  0.00  0.00    +0.000 A 
ATOM     13  C   UNL     1       2.123   4.130  17.897  0.00  0.00    +0.000 A 
ENDBRANCH   1   8
BRANCH   1  14
ATOM     14  C   UNL     1       3.750   7.112  17.961  0.00  0.00    +0.000 C 
ATOM     15  O   UNL     1       4.524   8.047  17.736  0.00  0.00    +0.000 OA
ATOM     16  N   UNL     1       2.382   7.326  18.085  0.00  0.00    +0.000 N 
ATOM     17  H   UNL     1       1.803   6.511  18.263  0.00  0.00    +0.000 HD
BRANCH  16  18
ATOM     18  C   UNL     1       1.786   8.643  18.005  0.00  0.00    +0.000 C 
BRANCH  18  19
ATOM     19  C   UNL     1       1.143   9.068  19.308  0.00  0.00    +0.000 A 
ATOM     20  C   UNL     1       1.409   8.358  20.492  0.00  0.00    +0.000 A 
ATOM     21  C   UNL     1       0.814   8.729  21.701  0.00  0.00    +0.000 A 
ATOM     22  C   UNL     1      -0.054   9.815  21.738  0.00  0.00    +0.000 A 
ATOM     23 CL   UNL     1      -0.793  10.271  23.224  0.00  0.00    +0.000 Cl
ATOM     24  C   UNL     1      -0.331  10.533  20.577  0.00  0.00    +0.000 A 
ATOM     25  C   UNL     1       0.264  10.159  19.365  0.00  0.00    +0.000 A 
ENDBRANCH  18  19
ENDBRANCH  16  18
ENDBRANCH   1  14
BRANCH   1  27
ATOM     26  C   UNL     1       6.620   5.675  18.725  0.00  0.00    +0.000 C 
ATOM     27  O   UNL     1       5.281   5.678  19.217  0.00  0.00    +0.000 OA
ENDBRANCH   1  27
TORSDOF 6
ENDMDL
MODEL 2
REMARK VINA RESULT:      -7.9      1.130      4.001
REMARK  Name = 
REMARK  7 active torsions:
REMARK  status: ('A' for Active; 'I' for Inactive)
REMARK    1  A    between atoms: C_1  and  O_2
REMARK    2  A    between atoms: O_2  and  C_3
REMARK    3  A    between atoms: C_3  and  C_4
REMARK    4  A    between atoms: C_3  and  C_15
REMARK    5  A    between atoms: C_3  and  C_21
REMARK    6  A    between atoms: N_6  and  C_7
REMARK    7  A    between atoms: C_7  and  C_8
REMARK                            x       y       z     vdW  Elec       q    Type
REMARK                         _______ _______ _______ _____ _____    ______ ____
ROOT
ATOM      1  C   UNL     1       4.049   5.631  17.644  0.00  0.00    +0.000 C 
ENDROOT
BRANCH   1   2
ATOM      2  C   UNL     1       3.121   4.874  18.643  0.00  0.00    +0.000 A 
ATOM      3  C   UNL     1       3.151   5.149  20.027  0.00  0.00    +0.000 A 
ATOM      4  C   UNL     1       2.277   4.520  20.918  0.00  0.00    +0.000 A 
ATOM      5  C   UNL     1       1.385   3.561  20.456  0.00  0.00    +0.000 A 
ATOM      6  C   UNL     1       1.382   3.216  19.109  0.00  0.00    +0.000 A 
ATOM      7  C   UNL     1       2.245   3.857  18.216  0.00  0.00    +0.000 A 
ENDBRANCH   1   2
BRANCH   1   8
ATOM      8  C   UNL     1       5.490   5.924  18.154  0.00  0.00    +0.000 A 
ATOM      9  C   UNL     1       6.306   6.881  17.519  0.00  0.00    +0.000 A 
ATOM     10  C   UNL     1       7.634   7.072  17.916  0.00  0.00    +0.000 A 
ATOM     11  C   UNL     1       8.163   6.332  18.970  0.00  0.00    +0.000 A 
ATOM     12  C   UNL     1       7.349   5.446  19.668  0.00  0.00    +0.000 A 
ATOM     13  C   UNL     1       6.018   5.276  19.287  0.00  0.00    +0.000 A 
ENDBRANCH   1   8
BRANCH   1  14
ATOM     14  C   UNL     1       3.407   7.051  17.288  0.00  0.00    +0.000 C 
ATOM     15  O   UNL     1       3.754   7.736  16.321  0.00  0.00    +0.000 OA
ATOM     16  N   UNL     1       2.459   7.515  18.193  0.00  0.00    +0.000 N 
ATOM     17  H   UNL     1       2.216   6.897  18.961  0.00  0.00    +0.000 HD
BRANCH  16  18
ATOM     18  C   UNL     1       1.857   8.827  18.091  0.00  0.00    +0.000 C 
BRANCH  18  19
ATOM     19  C   UNL     1       1.161   9.247  19.368  0.00  0.00    +0.000 A 
ATOM     20  C   UNL     1       1.356   8.514  20.552  0.00  0.00    +0.000 A 
ATOM     21  C   UNL     1       0.712   8.880  21.737  0.00  0.00    +0.000 A 
ATOM     22  C   UNL     1      -0.135   9.984  21.749  0.00  0.00    +0.000 A 
ATOM     23 CL   UNL     1      -0.935  10.433  23.206  0.00  0.00    +0.000 Cl
ATOM     24  C   UNL     1      -0.341  10.724  20.588  0.00  0.00    +0.000 A 
ATOM     25  C   UNL     1       0.303  10.356  19.400  0.00  0.00    +0.000 A 
ENDBRANCH  18  19
ENDBRANCH  16  18
ENDBRANCH   1  14
BRANCH   1  27
ATOM     26  C   UNL     1       5.139   3.931  16.259  0.00  0.00    +0.000 C 
ATOM     27  O   UNL     1       4.080   4.877  16.393  0.00  0.00    +0.000 OA
ENDBRANCH   1  27
TORSDOF 6
ENDMDL
MODEL 3
REMARK VINA RESULT:      -7.8      1.156      4.140
REMARK  Name = 
REMARK  7 active torsions:
REMARK  status: ('A' for Active; 'I' for Inactive)
REMARK    1  A    between atoms: C_1  and  O_2
REMARK    2  A    between atoms: O_2  and  C_3
REMARK    3  A    between atoms: C_3  and  C_4
REMARK    4  A    between atoms: C_3  and  C_15
REMARK    5  A    between atoms: C_3  and  C_21
REMARK    6  A    between atoms: N_6  and  C_7
REMARK    7  A    between atoms: C_7  and  C_8
REMARK                            x       y       z     vdW  Elec       q    Type
REMARK                         _______ _______ _______ _____ _____    ______ ____
ROOT
ATOM      1  C   UNL     1       3.976   5.698  17.682  0.00  0.00    +0.000 C 
ENDROOT
BRANCH   1   2
ATOM      2  C   UNL     1       3.043   4.959  18.690  0.00  0.00    +0.000 A 
ATOM      3  C   UNL     1       2.067   4.040  18.251  0.00  0.00    +0.000 A 
ATOM      4  C   UNL     1       1.272   3.327  19.153  0.00  0.00    +0.000 A 
ATOM      5  C   UNL     1       1.398   3.553  20.518  0.00  0.00    +0.000 A 
ATOM      6  C   UNL     1       2.300   4.506  20.978  0.00  0.00    +0.000 A 
ATOM      7  C   UNL     1       3.106   5.205  20.076  0.00  0.00    +0.000 A 
ENDBRANCH   1   2
BRANCH   1   8
ATOM      8  C   UNL     1       5.433   5.945  18.170  0.00  0.00    +0.000 A 
ATOM      9  C   UNL     1       6.265   6.885  17.531  0.00  0.00    +0.000 A 
ATOM     10  C   UNL     1       7.604   7.034  17.907  0.00  0.00    +0.000 A 
ATOM     11  C   UNL     1       8.130   6.267  18.943  0.00  0.00    +0.000 A 
ATOM     12  C   UNL     1       7.303   5.398  19.646  0.00  0.00    +0.000 A 
ATOM     13  C   UNL     1       5.961   5.270  19.287  0.00  0.00    +0.000 A 
ENDBRANCH   1   8
BRANCH   1  14
ATOM     14  C   UNL     1       3.369   7.140  17.351  0.00  0.00    +0.000 C 
ATOM     15  O   UNL     1       3.693   7.808  16.364  0.00  0.00    +0.000 OA
ATOM     16  N   UNL     1       2.484   7.641  18.299  0.00  0.00    +0.000 N 
ATOM     17  H   UNL     1       2.257   7.035  19.081  0.00  0.00    +0.000 HD
BRANCH  16  18
ATOM     18  C   UNL     1       1.926   8.974  18.220  0.00  0.00    +0.000 C 
BRANCH  18  19
ATOM     19  C   UNL     1       1.157   9.355  19.466  0.00  0.00    +0.000 A 
ATOM     20  C   UNL     1       0.358  10.513  19.477  0.00  0.00    +0.000 A 
ATOM     21  C   UNL     1      -0.350  10.886  20.623  0.00  0.00    +0.000 A 
ATOM     22  C   UNL     1      -0.265  10.105  21.771  0.00  0.00    +0.000 A 
ATOM     23 CL   UNL     1      -1.131  10.565  23.186  0.00  0.00    +0.000 Cl
ATOM     24  C   UNL     1       0.519   8.954  21.781  0.00  0.00    +0.000 A 
ATOM     25  C   UNL     1       1.230   8.581  20.634  0.00  0.00    +0.000 A 
ENDBRANCH  18  19
ENDBRANCH  16  18
ENDBRANCH   1  14
BRANCH   1  27
ATOM     26  C   UNL     1       4.966   3.952  16.280  0.00  0.00    +0.000 C 
ATOM     27  O   UNL     1       3.963   4.956  16.424  0.00  0.00    +0.000 OA
ENDBRANCH   1  27
TORSDOF 6
ENDMDL
MODEL 4
REMARK VINA RESULT:      -7.8      0.060      1.337
REMARK  Name = 
REMARK  7 active torsions:
REMARK  status: ('A' for Active; 'I' for Inactive)
REMARK    1  A    between atoms: C_1  and  O_2
REMARK    2  A    between atoms: O_2  and  C_3
REMARK    3  A    between atoms: C_3  and  C_4
REMARK    4  A    between atoms: C_3  and  C_15
REMARK    5  A    between atoms: C_3  and  C_21
REMARK    6  A    between atoms: N_6  and  C_7
REMARK    7  A    between atoms: C_7  and  C_8
REMARK                            x       y       z     vdW  Elec       q    Type
REMARK                         _______ _______ _______ _____ _____    ______ ____
ROOT
ATOM      1  C   UNL     1       4.228   5.616  18.226  0.00  0.00    +0.000 C 
ENDROOT
BRANCH   1   2
ATOM      2  C   UNL     1       4.865   5.067  16.913  0.00  0.00    +0.000 A 
ATOM      3  C   UNL     1       5.184   3.700  16.765  0.00  0.00    +0.000 A 
ATOM      4  C   UNL     1       5.695   3.191  15.568  0.00  0.00    +0.000 A 
ATOM      5  C   UNL     1       5.951   4.046  14.503  0.00  0.00    +0.000 A 
ATOM      6  C   UNL     1       5.715   5.409  14.643  0.00  0.00    +0.000 A 
ATOM      7  C   UNL     1       5.188   5.914  15.834  0.00  0.00    +0.000 A 
ENDBRANCH   1   2
BRANCH   1   8
ATOM      8  C   UNL     1       2.984   4.840  18.746  0.00  0.00    +0.000 A 
ATOM      9  C   UNL     1       2.620   4.874  20.107  0.00  0.00    +0.000 A 
ATOM     10  C   UNL     1       1.562   4.097  20.590  0.00  0.00    +0.000 A 
ATOM     11  C   UNL     1       0.830   3.293  19.720  0.00  0.00    +0.000 A 
ATOM     12  C   UNL     1       1.114   3.312  18.359  0.00  0.00    +0.000 A 
ATOM     13  C   UNL     1       2.153   4.108  17.875  0.00  0.00    +0.000 A 
ENDBRANCH   1   8
BRANCH   1  14
ATOM     14  C   UNL     1       3.747   7.123  17.997  0.00  0.00    +0.000 C 
ATOM     15  O   UNL     1       4.520   8.068  17.811  0.00  0.00    +0.000 OA
ATOM     16  N   UNL     1       2.375   7.327  18.091  0.00  0.00    +0.000 N 
ATOM     17  H   UNL     1       1.797   6.505  18.238  0.00  0.00    +0.000 HD
BRANCH  16  18
ATOM     18  C   UNL     1       1.773   8.641  18.023  0.00  0.00    +0.000 C 
BRANCH  18  19
ATOM     19  C   UNL     1       1.118   9.047  19.326  0.00  0.00    +0.000 A 
ATOM     20  C   UNL     1       0.196  10.108  19.353  0.00  0.00    +0.000 A 
ATOM     21  C   UNL     1      -0.409  10.504  20.549  0.00  0.00    +0.000 A 
ATOM     22  C   UNL     1      -0.096   9.842  21.732  0.00  0.00    +0.000 A 
ATOM     23 CL   UNL     1      -0.834  10.331  23.208  0.00  0.00    +0.000 Cl
ATOM     24  C   UNL     1       0.814   8.788  21.728  0.00  0.00    +0.000 A 
ATOM     25  C   UNL     1       1.422   8.393  20.529  0.00  0.00    +0.000 A 
ENDBRANCH  18  19
ENDBRANCH  16  18
ENDBRANCH   1  14
BRANCH   1  27
ATOM     26  C   UNL     1       6.615   5.607  18.772  0.00  0.00    +0.000 C 
ATOM     27  O   UNL     1       5.272   5.676  19.246  0.00  0.00    +0.000 OA
ENDBRANCH   1  27
TORSDOF 6
ENDMDL
MODEL 5
REMARK VINA RESULT:      -7.8      1.572      4.273
REMARK  Name = 
REMARK  7 active torsions:
REMARK  status: ('A' for Active; 'I' for Inactive)
REMARK    1  A    between atoms: C_1  and  O_2
REMARK    2  A    between atoms: O_2  and  C_3
REMARK    3  A    between atoms: C_3  and  C_4
REMARK    4  A    between atoms: C_3  and  C_15
REMARK    5  A    between atoms: C_3  and  C_21
REMARK    6  A    between atoms: N_6  and  C_7
REMARK    7  A    between atoms: C_7  and  C_8
REMARK                            x       y       z     vdW  Elec       q    Type
REMARK                         _______ _______ _______ _____ _____    ______ ____
ROOT
ATOM      1  C   UNL     1       3.747   4.935  18.189  0.00  0.00    +0.000 C 
ENDROOT
BRANCH   1   2
ATOM      2  C   UNL     1       3.364   4.103  19.451  0.00  0.00    +0.000 A 
ATOM      3  C   UNL     1       2.436   4.587  20.398  0.00  0.00    +0.000 A 
ATOM      4  C   UNL     1       2.041   3.819  21.497  0.00  0.00    +0.000 A 
ATOM      5  C   UNL     1       2.604   2.567  21.707  0.00  0.00    +0.000 A 
ATOM      6  C   UNL     1       3.574   2.093  20.832  0.00  0.00    +0.000 A 
ATOM      7  C   UNL     1       3.956   2.855  19.724  0.00  0.00    +0.000 A 
ENDBRANCH   1   2
BRANCH   1   8
ATOM      8  C   UNL     1       5.140   5.627  18.236  0.00  0.00    +0.000 A 
ATOM      9  C   UNL     1       5.500   6.606  17.289  0.00  0.00    +0.000 A 
ATOM     10  C   UNL     1       6.786   7.154  17.272  0.00  0.00    +0.000 A 
ATOM     11  C   UNL     1       7.729   6.756  18.217  0.00  0.00    +0.000 A 
ATOM     12  C   UNL     1       7.368   5.859  19.216  0.00  0.00    +0.000 A 
ATOM     13  C   UNL     1       6.076   5.333  19.246  0.00  0.00    +0.000 A 
ENDBRANCH   1   8
BRANCH   1  14
ATOM     14  C   UNL     1       2.677   6.104  17.975  0.00  0.00    +0.000 C 
ATOM     15  O   UNL     1       1.590   5.943  17.411  0.00  0.00    +0.000 OA
ATOM     16  N   UNL     1       3.082   7.362  18.407  0.00  0.00    +0.000 N 
ATOM     17  H   UNL     1       3.985   7.421  18.869  0.00  0.00    +0.000 HD
BRANCH  16  18
ATOM     18  C   UNL     1       2.291   8.555  18.192  0.00  0.00    +0.000 C 
BRANCH  18  19
ATOM     19  C   UNL     1       1.493   8.950  19.417  0.00  0.00    +0.000 A 
ATOM     20  C   UNL     1       0.672  10.090  19.387  0.00  0.00    +0.000 A 
ATOM     21  C   UNL     1      -0.062  10.477  20.512  0.00  0.00    +0.000 A 
ATOM     22  C   UNL     1       0.020   9.725  21.680  0.00  0.00    +0.000 A 
ATOM     23 CL   UNL     1      -0.878  10.202  23.069  0.00  0.00    +0.000 Cl
ATOM     24  C   UNL     1       0.827   8.591  21.731  0.00  0.00    +0.000 A 
ATOM     25  C   UNL     1       1.564   8.206  20.603  0.00  0.00    +0.000 A 
ENDBRANCH  18  19
ENDBRANCH  16  18
ENDBRANCH   1  14
BRANCH   1  27
ATOM     26  C   UNL     1       4.863   3.635  16.440  0.00  0.00    +0.000 C 
ATOM     27  O   UNL     1       3.634   4.066  17.020  0.00  0.00    +0.000 OA
ENDBRANCH   1  27
TORSDOF 6
ENDMDL
MODEL 6
REMARK VINA RESULT:      -7.7      0.487      1.048
REMARK  Name = 
REMARK  7 active torsions:
REMARK  status: ('A' for Active; 'I' for Inactive)
REMARK    1  A    between atoms: C_1  and  O_2
REMARK    2  A    between atoms: O_2  and  C_3
REMARK    3  A    between atoms: C_3  and  C_4
REMARK    4  A    between atoms: C_3  and  C_15
REMARK    5  A    between atoms: C_3  and  C_21
REMARK    6  A    between atoms: N_6  and  C_7
REMARK    7  A    between atoms: C_7  and  C_8
REMARK                            x       y       z     vdW  Elec       q    Type
REMARK                         _______ _______ _______ _____ _____    ______ ____
ROOT
ATOM      1  C   UNL     1       4.027   5.767  18.141  0.00  0.00    +0.000 C 
ENDROOT
BRANCH   1   2
ATOM      2  C   UNL     1       4.774   5.139  16.926  0.00  0.00    +0.000 A 
ATOM      3  C   UNL     1       4.849   3.741  16.750  0.00  0.00    +0.000 A 
ATOM      4  C   UNL     1       5.462   3.174  15.629  0.00  0.00    +0.000 A 
ATOM      5  C   UNL     1       6.063   3.990  14.679  0.00  0.00    +0.000 A 
ATOM      6  C   UNL     1       6.070   5.369  14.861  0.00  0.00    +0.000 A 
ATOM      7  C   UNL     1       5.442   5.935  15.974  0.00  0.00    +0.000 A 
ENDBRANCH   1   2
BRANCH   1   8
ATOM      8  C   UNL     1       2.881   4.905  18.746  0.00  0.00    +0.000 A 
ATOM      9  C   UNL     1       2.739   4.754  20.139  0.00  0.00    +0.000 A 
ATOM     10  C   UNL     1       1.771   3.900  20.678  0.00  0.00    +0.000 A 
ATOM     11  C   UNL     1       0.910   3.200  19.837  0.00  0.00    +0.000 A 
ATOM     12  C   UNL     1       0.973   3.402  18.462  0.00  0.00    +0.000 A 
ATOM     13  C   UNL     1       1.922   4.274  17.929  0.00  0.00    +0.000 A 
ENDBRANCH   1   8
BRANCH   1  14
ATOM     14  C   UNL     1       3.355   7.150  17.700  0.00  0.00    +0.000 C 
ATOM     15  O   UNL     1       3.695   7.786  16.698  0.00  0.00    +0.000 OA
ATOM     16  N   UNL     1       2.391   7.643  18.571  0.00  0.00    +0.000 N 
ATOM     17  H   UNL     1       2.155   7.065  19.372  0.00  0.00    +0.000 HD
BRANCH  16  18
ATOM     18  C   UNL     1       1.761   8.934  18.390  0.00  0.00    +0.000 C 
BRANCH  18  19
ATOM     19  C   UNL     1       1.003   9.387  19.619  0.00  0.00    +0.000 A 
ATOM     20  C   UNL     1       1.149   8.695  20.834  0.00  0.00    +0.000 A 
ATOM     21  C   UNL     1       0.448   9.091  21.976  0.00  0.00    +0.000 A 
ATOM     22  C   UNL     1      -0.409  10.186  21.913  0.00  0.00    +0.000 A 
ATOM     23 CL   UNL     1      -1.279  10.673  23.316  0.00  0.00    +0.000 Cl
ATOM     24  C   UNL     1      -0.568  10.886  20.720  0.00  0.00    +0.000 A 
ATOM     25  C   UNL     1       0.133  10.486  19.575  0.00  0.00    +0.000 A 
ENDBRANCH  18  19
ENDBRANCH  16  18
ENDBRANCH   1  14
BRANCH   1  27
ATOM     26  C   UNL     1       6.167   5.263  19.218  0.00  0.00    +0.000 C 
ATOM     27  O   UNL     1       5.018   6.106  19.159  0.00  0.00    +0.000 OA
ENDBRANCH   1  27
TORSDOF 6
ENDMDL
MODEL 7
REMARK VINA RESULT:      -7.7      1.668      4.348
REMARK  Name = 
REMARK  7 active torsions:
REMARK  status: ('A' for Active; 'I' for Inactive)
REMARK    1  A    between atoms: C_1  and  O_2
REMARK    2  A    between atoms: O_2  and  C_3
REMARK    3  A    between atoms: C_3  and  C_4
REMARK    4  A    between atoms: C_3  and  C_15
REMARK    5  A    between atoms: C_3  and  C_21
REMARK    6  A    between atoms: N_6  and  C_7
REMARK    7  A    between atoms: C_7  and  C_8
REMARK                            x       y       z     vdW  Elec       q    Type
REMARK                         _______ _______ _______ _____ _____    ______ ____
ROOT
ATOM      1  C   UNL     1       3.402   4.285  18.202  0.00  0.00    +0.000 C 
ENDROOT
BRANCH   1   2
ATOM      2  C   UNL     1       2.935   3.645  19.545  0.00  0.00    +0.000 A 
ATOM      3  C   UNL     1       1.719   4.020  20.156  0.00  0.00    +0.000 A 
ATOM      4  C   UNL     1       1.265   3.404  21.325  0.00  0.00    +0.000 A 
ATOM      5  C   UNL     1       2.041   2.432  21.944  0.00  0.00    +0.000 A 
ATOM      6  C   UNL     1       3.277   2.093  21.407  0.00  0.00    +0.000 A 
ATOM      7  C   UNL     1       3.722   2.697  20.228  0.00  0.00    +0.000 A 
ENDBRANCH   1   2
BRANCH   1   8
ATOM      8  C   UNL     1       4.893   4.725  18.149  0.00  0.00    +0.000 A 
ATOM      9  C   UNL     1       5.640   4.628  16.958  0.00  0.00    +0.000 A 
ATOM     10  C   UNL     1       7.005   4.930  16.937  0.00  0.00    +0.000 A 
ATOM     11  C   UNL     1       7.646   5.358  18.097  0.00  0.00    +0.000 A 
ATOM     12  C   UNL     1       6.910   5.546  19.261  0.00  0.00    +0.000 A 
ATOM     13  C   UNL     1       5.543   5.270  19.274  0.00  0.00    +0.000 A 
ENDBRANCH   1   8
BRANCH   1  14
ATOM     14  C   UNL     1       2.541   5.601  17.909  0.00  0.00    +0.000 C 
ATOM     15  O   UNL     1       1.447   5.589  17.336  0.00  0.00    +0.000 OA
ATOM     16  N   UNL     1       3.143   6.796  18.284  0.00  0.00    +0.000 N 
ATOM     17  H   UNL     1       4.038   6.732  18.758  0.00  0.00    +0.000 HD
BRANCH  16  18
ATOM     18  C   UNL     1       2.560   8.089  17.994  0.00  0.00    +0.000 C 
BRANCH  18  19
ATOM     19  C   UNL     1       1.753   8.634  19.153  0.00  0.00    +0.000 A 
ATOM     20  C   UNL     1       1.743   7.959  20.386  0.00  0.00    +0.000 A 
ATOM     21  C   UNL     1       0.994   8.441  21.463  0.00  0.00    +0.000 A 
ATOM     22  C   UNL     1       0.246   9.605  21.316  0.00  0.00    +0.000 A 
ATOM     23 CL   UNL     1      -0.682  10.199  22.639  0.00  0.00    +0.000 Cl
ATOM     24  C   UNL     1       0.243  10.291  20.104  0.00  0.00    +0.000 A 
ATOM     25  C   UNL     1       0.992   9.805  19.024  0.00  0.00    +0.000 A 
ENDBRANCH  18  19
ENDBRANCH  16  18
ENDBRANCH   1  14
BRANCH   1  27
ATOM     26  C   UNL     1       2.497   2.116  17.514  0.00  0.00    +0.000 C 
ATOM     27  O   UNL     1       3.092   3.352  17.122  0.00  0.00    +0.000 OA
ENDBRANCH   1  27
TORSDOF 6
ENDMDL
MODEL 8
REMARK VINA RESULT:      -7.7      0.476      1.415
REMARK  Name = 
REMARK  7 active torsions:
REMARK  status: ('A' for Active; 'I' for Inactive)
REMARK    1  A    between atoms: C_1  and  O_2
REMARK    2  A    between atoms: O_2  and  C_3
REMARK    3  A    between atoms: C_3  and  C_4
REMARK    4  A    between atoms: C_3  and  C_15
REMARK    5  A    between atoms: C_3  and  C_21
REMARK    6  A    between atoms: N_6  and  C_7
REMARK    7  A    between atoms: C_7  and  C_8
REMARK                            x       y       z     vdW  Elec       q    Type
REMARK                         _______ _______ _______ _____ _____    ______ ____
ROOT
ATOM      1  C   UNL     1       4.105   5.777  18.114  0.00  0.00    +0.000 C 
ENDROOT
BRANCH   1   2
ATOM      2  C   UNL     1       4.814   5.140  16.880  0.00  0.00    +0.000 A 
ATOM      3  C   UNL     1       5.449   5.936  15.903  0.00  0.00    +0.000 A 
ATOM      4  C   UNL     1       6.141   5.368  14.830  0.00  0.00    +0.000 A 
ATOM      5  C   UNL     1       6.173   3.988  14.676  0.00  0.00    +0.000 A 
ATOM      6  C   UNL     1       5.496   3.179  15.582  0.00  0.00    +0.000 A 
ATOM      7  C   UNL     1       4.818   3.747  16.664  0.00  0.00    +0.000 A 
ENDBRANCH   1   2
BRANCH   1   8
ATOM      8  C   UNL     1       2.992   4.910  18.771  0.00  0.00    +0.000 A 
ATOM      9  C   UNL     1       2.085   4.171  17.987  0.00  0.00    +0.000 A 
ATOM     10  C   UNL     1       1.025   3.473  18.575  0.00  0.00    +0.000 A 
ATOM     11  C   UNL     1       0.866   3.478  19.958  0.00  0.00    +0.000 A 
ATOM     12  C   UNL     1       1.800   4.127  20.757  0.00  0.00    +0.000 A 
ATOM     13  C   UNL     1       2.871   4.800  20.170  0.00  0.00    +0.000 A 
ENDBRANCH   1   8
BRANCH   1  14
ATOM     14  C   UNL     1       3.402   7.145  17.678  0.00  0.00    +0.000 C 
ATOM     15  O   UNL     1       3.729   7.795  16.680  0.00  0.00    +0.000 OA
ATOM     16  N   UNL     1       2.424   7.611  18.549  0.00  0.00    +0.000 N 
ATOM     17  H   UNL     1       2.200   7.023  19.346  0.00  0.00    +0.000 HD
BRANCH  16  18
ATOM     18  C   UNL     1       1.764   8.887  18.373  0.00  0.00    +0.000 C 
BRANCH  18  19
ATOM     19  C   UNL     1       1.008   9.324  19.610  0.00  0.00    +0.000 A 
ATOM     20  C   UNL     1       0.193  10.469  19.572  0.00  0.00    +0.000 A 
ATOM     21  C   UNL     1      -0.503  10.894  20.707  0.00  0.00    +0.000 A 
ATOM     22  C   UNL     1      -0.389  10.176  21.894  0.00  0.00    +0.000 A 
ATOM     23 CL   UNL     1      -1.240  10.700  23.295  0.00  0.00    +0.000 Cl
ATOM     24  C   UNL     1       0.411   9.038  21.953  0.00  0.00    +0.000 A 
ATOM     25  C   UNL     1       1.110   8.614  20.815  0.00  0.00    +0.000 A 
ENDBRANCH  18  19
ENDBRANCH  16  18
ENDBRANCH   1  14
BRANCH   1  27
ATOM     26  C   UNL     1       6.218   5.230  19.222  0.00  0.00    +0.000 C 
ATOM     27  O   UNL     1       5.129   6.141  19.089  0.00  0.00    +0.000 OA
ENDBRANCH   1  27
TORSDOF 6
ENDMDL
MODEL 9
REMARK VINA RESULT:      -7.7      1.121      4.012
REMARK  Name = 
REMARK  7 active torsions:
REMARK  status: ('A' for Active; 'I' for Inactive)
REMARK    1  A    between atoms: C_1  and  O_2
REMARK    2  A    between atoms: O_2  and  C_3
REMARK    3  A    between atoms: C_3  and  C_4
REMARK    4  A    between atoms: C_3  and  C_15
REMARK    5  A    between atoms: C_3  and  C_21
REMARK    6  A    between atoms: N_6  and  C_7
REMARK    7  A    between atoms: C_7  and  C_8
REMARK                            x       y       z     vdW  Elec       q    Type
REMARK                         _______ _______ _______ _____ _____    ______ ____
ROOT
ATOM      1  C   UNL     1       3.915   5.532  17.771  0.00  0.00    +0.000 C 
ENDROOT
BRANCH   1   2
ATOM      2  C   UNL     1       3.010   4.848  18.841  0.00  0.00    +0.000 A 
ATOM      3  C   UNL     1       2.075   3.853  18.487  0.00  0.00    +0.000 A 
ATOM      4  C   UNL     1       1.307   3.191  19.450  0.00  0.00    +0.000 A 
ATOM      5  C   UNL     1       1.418   3.544  20.789  0.00  0.00    +0.000 A 
ATOM      6  C   UNL     1       2.277   4.571  21.161  0.00  0.00    +0.000 A 
ATOM      7  C   UNL     1       3.057   5.221  20.199  0.00  0.00    +0.000 A 
ENDBRANCH   1   2
BRANCH   1   8
ATOM      8  C   UNL     1       5.396   5.761  18.189  0.00  0.00    +0.000 A 
ATOM      9  C   UNL     1       5.981   5.020  19.234  0.00  0.00    +0.000 A 
ATOM     10  C   UNL     1       7.280   5.295  19.674  0.00  0.00    +0.000 A 
ATOM     11  C   UNL     1       8.028   6.298  19.063  0.00  0.00    +0.000 A 
ATOM     12  C   UNL     1       7.504   6.981  17.972  0.00  0.00    +0.000 A 
ATOM     13  C   UNL     1       6.218   6.687  17.518  0.00  0.00    +0.000 A 
ENDBRANCH   1   8
BRANCH   1  14
ATOM     14  C   UNL     1       3.325   6.976  17.418  0.00  0.00    +0.000 C 
ATOM     15  O   UNL     1       3.671   7.633  16.430  0.00  0.00    +0.000 OA
ATOM     16  N   UNL     1       2.431   7.494  18.348  0.00  0.00    +0.000 N 
ATOM     17  H   UNL     1       2.186   6.897  19.132  0.00  0.00    +0.000 HD
BRANCH  16  18
ATOM     18  C   UNL     1       1.886   8.831  18.248  0.00  0.00    +0.000 C 
BRANCH  18  19
ATOM     19  C   UNL     1       1.153   9.254  19.503  0.00  0.00    +0.000 A 
ATOM     20  C   UNL     1       1.224   8.462  20.662  0.00  0.00    +0.000 A 
ATOM     21  C   UNL     1       0.545   8.831  21.827  0.00  0.00    +0.000 A 
ATOM     22  C   UNL     1      -0.215   9.997  21.842  0.00  0.00    +0.000 A 
ATOM     23 CL   UNL     1      -1.058  10.451  23.272  0.00  0.00    +0.000 Cl
ATOM     24  C   UNL     1      -0.298  10.796  20.704  0.00  0.00    +0.000 A 
ATOM     25  C   UNL     1       0.382  10.425  19.537  0.00  0.00    +0.000 A 
ENDBRANCH  18  19
ENDBRANCH  16  18
ENDBRANCH   1  14
BRANCH   1  27
ATOM     26  C   UNL     1       5.042   4.124  16.116  0.00  0.00    +0.000 C 
ATOM     27  O   UNL     1       3.833   4.750  16.540  0.00  0.00    +0.000 OA
ENDBRANCH   1  27
TORSDOF 6
ENDMDL
