MODEL 1
REMARK VINA RESULT:      -6.1      0.000      0.000
REMARK  Name = 
REMARK  7 active torsions:
REMARK  status: ('A' for Active; 'I' for Inactive)
REMARK    1  A    between atoms: C_1  and  O_2
REMARK    2  A    between atoms: O_2  and  C_3
REMARK    3  A    between atoms: N_6  and  C_7
REMARK    4  A    between atoms: C_7  and  C_8
REMARK    5  A    between atoms: C_11  and  C_12
REMARK    6  A    between atoms: C_12  and  C_13
REMARK    7  A    between atoms: C_12  and  C_14
REMARK                            x       y       z     vdW  Elec       q    Type
REMARK                         _______ _______ _______ _____ _____    ______ ____
ROOT
ATOM      1  C   UNL     1       4.024   5.334  17.068  0.00  0.00    +0.000 C 
ENDROOT
BRANCH   1   5
ATOM      2  C   UNL     1       2.098   2.080  19.130  0.00  0.00    +0.000 C 
ATOM      3  C   UNL     1       3.388   1.821  18.350  0.00  0.00    +0.000 C 
ATOM      4  C   UNL     1       4.112   3.136  18.042  0.00  0.00    +0.000 C 
ATOM      5  N   UNL     1       3.258   4.082  17.291  0.00  0.00    +0.000 NA
ATOM      6  C   UNL     1       2.012   4.347  18.038  0.00  0.00    +0.000 C 
ATOM      7  C   UNL     1       1.243   3.059  18.324  0.00  0.00    +0.000 C 
BRANCH   2   9
ATOM      8  C   UNL     1       1.395   2.776  21.320  0.00  0.00    +0.000 C 
ATOM      9  O   UNL     1       2.475   2.584  20.419  0.00  0.00    +0.000 OA
ENDBRANCH   2   9
ENDBRANCH   1   5
BRANCH   1  10
ATOM     10  C   UNL     1       5.157   5.129  16.098  0.00  0.00    +0.000 A 
ATOM     11  C   UNL     1       6.493   5.435  16.292  0.00  0.00    +0.000 A 
ATOM     12  S   UNL     1       7.417   4.896  14.952  0.00  0.00    +0.000 S 
ATOM     13  C   UNL     1       5.990   4.278  14.218  0.00  0.00    +0.000 A 
ATOM     14  N   UNL     1       4.876   4.507  14.888  0.00  0.00    +0.000 NA
BRANCH  13  15
ATOM     15  C   UNL     1       6.049   3.491  12.935  0.00  0.00    +0.000 C 
ATOM     16  C   UNL     1       4.699   3.549  12.212  0.00  0.00    +0.000 C 
ATOM     17  C   UNL     1       7.145   4.024  12.012  0.00  0.00    +0.000 C 
ENDBRANCH  13  15
ENDBRANCH   1  10
TORSDOF 4
ENDMDL
MODEL 2
REMARK VINA RESULT:      -6.1      3.339      6.647
REMARK  Name = 
REMARK  7 active torsions:
REMARK  status: ('A' for Active; 'I' for Inactive)
REMARK    1  A    between atoms: C_1  and  O_2
REMARK    2  A    between atoms: O_2  and  C_3
REMARK    3  A    between atoms: N_6  and  C_7
REMARK    4  A    between atoms: C_7  and  C_8
REMARK    5  A    between atoms: C_11  and  C_12
REMARK    6  A    between atoms: C_12  and  C_13
REMARK    7  A    between atoms: C_12  and  C_14
REMARK                            x       y       z     vdW  Elec       q    Type
REMARK                         _______ _______ _______ _____ _____    ______ ____
ROOT
ATOM      1  C   UNL     1       4.044   6.481  17.801  0.00  0.00    +0.000 C 
ENDROOT
BRANCH   1   5
ATOM      2  C   UNL     1       7.229   4.333  15.855  0.00  0.00    +0.000 C 
ATOM      3  C   UNL     1       5.782   3.879  15.657  0.00  0.00    +0.000 C 
ATOM      4  C   UNL     1       4.803   4.978  16.082  0.00  0.00    +0.000 C 
ATOM      5  N   UNL     1       5.006   5.394  17.486  0.00  0.00    +0.000 NA
ATOM      6  C   UNL     1       6.398   5.843  17.689  0.00  0.00    +0.000 C 
ATOM      7  C   UNL     1       7.400   4.753  17.315  0.00  0.00    +0.000 C 
BRANCH   2   9
ATOM      8  C   UNL     1       7.516   5.000  13.564  0.00  0.00    +0.000 C 
ATOM      9  O   UNL     1       7.472   5.398  14.926  0.00  0.00    +0.000 OA
ENDBRANCH   2   9
ENDBRANCH   1   5
BRANCH   1  10
ATOM     10  C   UNL     1       3.089   6.080  18.894  0.00  0.00    +0.000 A 
ATOM     11  C   UNL     1       2.476   6.908  19.818  0.00  0.00    +0.000 A 
ATOM     12  S   UNL     1       1.375   6.005  20.774  0.00  0.00    +0.000 S 
ATOM     13  C   UNL     1       1.772   4.586  19.886  0.00  0.00    +0.000 A 
ATOM     14  N   UNL     1       2.711   4.745  18.974  0.00  0.00    +0.000 NA
BRANCH  13  15
ATOM     15  C   UNL     1       1.044   3.288  20.122  0.00  0.00    +0.000 C 
ATOM     16  C   UNL     1       1.445   2.253  19.066  0.00  0.00    +0.000 C 
ATOM     17  C   UNL     1       1.341   2.736  21.517  0.00  0.00    +0.000 C 
ENDBRANCH  13  15
ENDBRANCH   1  10
TORSDOF 4
ENDMDL
MODEL 3
REMARK VINA RESULT:      -5.8      2.968      6.551
REMARK  Name = 
REMARK  7 active torsions:
REMARK  status: ('A' for Active; 'I' for Inactive)
REMARK    1  A    between atoms: C_1  and  O_2
REMARK    2  A    between atoms: O_2  and  C_3
REMARK    3  A    between atoms: N_6  and  C_7
REMARK    4  A    between atoms: C_7  and  C_8
REMARK    5  A    between atoms: C_11  and  C_12
REMARK    6  A    between atoms: C_12  and  C_13
REMARK    7  A    between atoms: C_12  and  C_14
REMARK                            x       y       z     vdW  Elec       q    Type
REMARK                         _______ _______ _______ _____ _____    ______ ____
ROOT
ATOM      1  C   UNL     1       5.676   4.381  18.745  0.00  0.00    +0.000 C 
ENDROOT
BRANCH   1   5
ATOM      2  C   UNL     1       6.353   5.088  14.551  0.00  0.00    +0.000 C 
ATOM      3  C   UNL     1       7.539   5.091  15.517  0.00  0.00    +0.000 C 
ATOM      4  C   UNL     1       7.157   4.437  16.850  0.00  0.00    +0.000 C 
ATOM      5  N   UNL     1       5.996   5.097  17.484  0.00  0.00    +0.000 NA
ATOM      6  C   UNL     1       4.841   5.093  16.564  0.00  0.00    +0.000 C 
ATOM      7  C   UNL     1       5.175   5.778  15.241  0.00  0.00    +0.000 C 
BRANCH   2   9
ATOM      8  C   UNL     1       6.158   3.432  12.821  0.00  0.00    +0.000 C 
ATOM      9  O   UNL     1       6.088   3.720  14.208  0.00  0.00    +0.000 OA
ENDBRANCH   2   9
ENDBRANCH   1   5
BRANCH   1  10
ATOM     10  C   UNL     1       4.339   4.796  19.297  0.00  0.00    +0.000 A 
ATOM     11  C   UNL     1       3.840   6.082  19.410  0.00  0.00    +0.000 A 
ATOM     12  S   UNL     1       2.222   6.035  19.976  0.00  0.00    +0.000 S 
ATOM     13  C   UNL     1       2.288   4.317  20.015  0.00  0.00    +0.000 A 
ATOM     14  N   UNL     1       3.456   3.797  19.689  0.00  0.00    +0.000 NA
BRANCH  13  15
ATOM     15  C   UNL     1       1.068   3.496  20.346  0.00  0.00    +0.000 C 
ATOM     16  C   UNL     1       0.676   2.619  19.152  0.00  0.00    +0.000 C 
ATOM     17  C   UNL     1       1.317   2.612  21.569  0.00  0.00    +0.000 C 
ENDBRANCH  13  15
ENDBRANCH   1  10
TORSDOF 4
ENDMDL
MODEL 4
REMARK VINA RESULT:      -5.8      3.422      6.606
REMARK  Name = 
REMARK  7 active torsions:
REMARK  status: ('A' for Active; 'I' for Inactive)
REMARK    1  A    between atoms: C_1  and  O_2
REMARK    2  A    between atoms: O_2  and  C_3
REMARK    3  A    between atoms: N_6  and  C_7
REMARK    4  A    between atoms: C_7  and  C_8
REMARK    5  A    between atoms: C_11  and  C_12
REMARK    6  A    between atoms: C_12  and  C_13
REMARK    7  A    between atoms: C_12  and  C_14
REMARK                            x       y       z     vdW  Elec       q    Type
REMARK                         _______ _______ _______ _____ _____    ______ ____
ROOT
ATOM      1  C   UNL     1       4.063   4.053  16.655  0.00  0.00    +0.000 C 
ENDROOT
BRANCH   1   5
ATOM      2  C   UNL     1       7.715   5.913  17.980  0.00  0.00    +0.000 C 
ATOM      3  C   UNL     1       7.780   4.634  17.143  0.00  0.00    +0.000 C 
ATOM      4  C   UNL     1       6.440   4.368  16.450  0.00  0.00    +0.000 C 
ATOM      5  N   UNL     1       5.321   4.276  17.412  0.00  0.00    +0.000 NA
ATOM      6  C   UNL     1       5.242   5.510  18.221  0.00  0.00    +0.000 C 
ATOM      7  C   UNL     1       6.549   5.780  18.961  0.00  0.00    +0.000 C 
BRANCH   2   9
ATOM      8  C   UNL     1       7.793   8.290  17.638  0.00  0.00    +0.000 C 
ATOM      9  O   UNL     1       7.566   7.011  17.068  0.00  0.00    +0.000 OA
ENDBRANCH   2   9
ENDBRANCH   1   5
BRANCH   1  10
ATOM     10  C   UNL     1       2.992   3.447  17.521  0.00  0.00    +0.000 A 
ATOM     11  C   UNL     1       2.482   2.162  17.450  0.00  0.00    +0.000 A 
ATOM     12  S   UNL     1       1.373   1.900  18.732  0.00  0.00    +0.000 S 
ATOM     13  C   UNL     1       1.659   3.498  19.303  0.00  0.00    +0.000 A 
ATOM     14  N   UNL     1       2.479   4.216  18.560  0.00  0.00    +0.000 NA
BRANCH  13  15
ATOM     15  C   UNL     1       1.046   3.989  20.589  0.00  0.00    +0.000 C 
ATOM     16  C   UNL     1       1.392   3.040  21.741  0.00  0.00    +0.000 C 
ATOM     17  C   UNL     1       1.532   5.399  20.926  0.00  0.00    +0.000 C 
ENDBRANCH  13  15
ENDBRANCH   1  10
TORSDOF 4
ENDMDL
MODEL 5
REMARK VINA RESULT:      -5.7      2.114      3.524
REMARK  Name = 
REMARK  7 active torsions:
REMARK  status: ('A' for Active; 'I' for Inactive)
REMARK    1  A    between atoms: C_1  and  O_2
REMARK    2  A    between atoms: O_2  and  C_3
REMARK    3  A    between atoms: N_6  and  C_7
REMARK    4  A    between atoms: C_7  and  C_8
REMARK    5  A    between atoms: C_11  and  C_12
REMARK    6  A    between atoms: C_12  and  C_13
REMARK    7  A    between atoms: C_12  and  C_14
REMARK                            x       y       z     vdW  Elec       q    Type
REMARK                         _______ _______ _______ _____ _____    ______ ____
ROOT
ATOM      1  C   UNL     1       4.160   2.844  17.487  0.00  0.00    +0.000 C 
ENDROOT
BRANCH   1   5
ATOM      2  C   UNL     1       0.784   3.429  20.096  0.00  0.00    +0.000 C 
ATOM      3  C   UNL     1       0.605   2.646  18.795  0.00  0.00    +0.000 C 
ATOM      4  C   UNL     1       1.962   2.210  18.231  0.00  0.00    +0.000 C 
ATOM      5  N   UNL     1       2.865   3.358  17.999  0.00  0.00    +0.000 NA
ATOM      6  C   UNL     1       3.053   4.120  19.251  0.00  0.00    +0.000 C 
ATOM      7  C   UNL     1       1.721   4.606  19.817  0.00  0.00    +0.000 C 
BRANCH   2   9
ATOM      8  C   UNL     1       2.111   3.112  22.074  0.00  0.00    +0.000 C 
ATOM      9  O   UNL     1       1.297   2.516  21.076  0.00  0.00    +0.000 OA
ENDBRANCH   2   9
ENDBRANCH   1   5
BRANCH   1  10
ATOM     10  C   UNL     1       5.018   3.950  16.933  0.00  0.00    +0.000 A 
ATOM     11  C   UNL     1       4.832   4.643  15.749  0.00  0.00    +0.000 A 
ATOM     12  S   UNL     1       5.994   5.897  15.616  0.00  0.00    +0.000 S 
ATOM     13  C   UNL     1       6.649   5.449  17.142  0.00  0.00    +0.000 A 
ATOM     14  N   UNL     1       6.090   4.392  17.699  0.00  0.00    +0.000 NA
BRANCH  13  15
ATOM     15  C   UNL     1       7.745   6.257  17.790  0.00  0.00    +0.000 C 
ATOM     16  C   UNL     1       7.508   7.753  17.562  0.00  0.00    +0.000 C 
ATOM     17  C   UNL     1       7.822   5.975  19.290  0.00  0.00    +0.000 C 
ENDBRANCH  13  15
ENDBRANCH   1  10
TORSDOF 4
ENDMDL
MODEL 6
REMARK VINA RESULT:      -5.7      1.750      2.586
REMARK  Name = 
REMARK  7 active torsions:
REMARK  status: ('A' for Active; 'I' for Inactive)
REMARK    1  A    between atoms: C_1  and  O_2
REMARK    2  A    between atoms: O_2  and  C_3
REMARK    3  A    between atoms: N_6  and  C_7
REMARK    4  A    between atoms: C_7  and  C_8
REMARK    5  A    between atoms: C_11  and  C_12
REMARK    6  A    between atoms: C_12  and  C_13
REMARK    7  A    between atoms: C_12  and  C_14
REMARK                            x       y       z     vdW  Elec       q    Type
REMARK                         _______ _______ _______ _____ _____    ______ ____
ROOT
ATOM      1  C   UNL     1       5.896   4.247  16.334  0.00  0.00    +0.000 C 
ENDROOT
BRANCH   1   5
ATOM      2  C   UNL     1       2.619   5.846  18.626  0.00  0.00    +0.000 C 
ATOM      3  C   UNL     1       2.401   4.600  17.766  0.00  0.00    +0.000 C 
ATOM      4  C   UNL     1       3.740   3.972  17.367  0.00  0.00    +0.000 C 
ATOM      5  N   UNL     1       4.613   4.926  16.649  0.00  0.00    +0.000 NA
ATOM      6  C   UNL     1       4.839   6.131  17.473  0.00  0.00    +0.000 C 
ATOM      7  C   UNL     1       3.523   6.806  17.852  0.00  0.00    +0.000 C 
BRANCH   2   9
ATOM      8  C   UNL     1       2.265   4.807  20.764  0.00  0.00    +0.000 C 
ATOM      9  O   UNL     1       3.186   5.410  19.869  0.00  0.00    +0.000 OA
ENDBRANCH   2   9
ENDBRANCH   1   5
BRANCH   1  10
ATOM     10  C   UNL     1       6.268   4.407  14.884  0.00  0.00    +0.000 A 
ATOM     11  C   UNL     1       7.319   5.142  14.363  0.00  0.00    +0.000 A 
ATOM     12  S   UNL     1       7.413   4.909  12.667  0.00  0.00    +0.000 S 
ATOM     13  C   UNL     1       6.071   3.837  12.742  0.00  0.00    +0.000 A 
ATOM     14  N   UNL     1       5.534   3.700  13.939  0.00  0.00    +0.000 NA
BRANCH  13  15
ATOM     15  C   UNL     1       5.602   3.085  11.523  0.00  0.00    +0.000 C 
ATOM     16  C   UNL     1       5.898   1.589  11.674  0.00  0.00    +0.000 C 
ATOM     17  C   UNL     1       4.105   3.288  11.293  0.00  0.00    +0.000 C 
ENDBRANCH  13  15
ENDBRANCH   1  10
TORSDOF 4
ENDMDL
MODEL 7
REMARK VINA RESULT:      -5.6      3.299      6.786
REMARK  Name = 
REMARK  7 active torsions:
REMARK  status: ('A' for Active; 'I' for Inactive)
REMARK    1  A    between atoms: C_1  and  O_2
REMARK    2  A    between atoms: O_2  and  C_3
REMARK    3  A    between atoms: N_6  and  C_7
REMARK    4  A    between atoms: C_7  and  C_8
REMARK    5  A    between atoms: C_11  and  C_12
REMARK    6  A    between atoms: C_12  and  C_13
REMARK    7  A    between atoms: C_12  and  C_14
REMARK                            x       y       z     vdW  Elec       q    Type
REMARK                         _______ _______ _______ _____ _____    ______ ____
ROOT
ATOM      1  C   UNL     1       5.349   5.729  18.294  0.00  0.00    +0.000 C 
ENDROOT
BRANCH   1   5
ATOM      2  C   UNL     1       6.462   4.680  14.268  0.00  0.00    +0.000 C 
ATOM      3  C   UNL     1       5.284   5.628  14.503  0.00  0.00    +0.000 C 
ATOM      4  C   UNL     1       5.307   6.181  15.931  0.00  0.00    +0.000 C 
ATOM      5  N   UNL     1       5.290   5.107  16.947  0.00  0.00    +0.000 NA
ATOM      6  C   UNL     1       6.428   4.189  16.737  0.00  0.00    +0.000 C 
ATOM      7  C   UNL     1       6.410   3.585  15.334  0.00  0.00    +0.000 C 
BRANCH   2   9
ATOM      8  C   UNL     1       8.303   5.654  13.070  0.00  0.00    +0.000 C 
ATOM      9  O   UNL     1       7.659   5.468  14.321  0.00  0.00    +0.000 OA
ENDBRANCH   2   9
ENDBRANCH   1   5
BRANCH   1  10
ATOM     10  C   UNL     1       4.123   5.412  19.107  0.00  0.00    +0.000 A 
ATOM     11  C   UNL     1       3.198   6.309  19.615  0.00  0.00    +0.000 A 
ATOM     12  S   UNL     1       1.907   5.460  20.360  0.00  0.00    +0.000 S 
ATOM     13  C   UNL     1       2.651   3.966  19.941  0.00  0.00    +0.000 A 
ATOM     14  N   UNL     1       3.820   4.076  19.340  0.00  0.00    +0.000 NA
BRANCH  13  15
ATOM     15  C   UNL     1       1.966   2.650  20.207  0.00  0.00    +0.000 C 
ATOM     16  C   UNL     1       1.415   2.616  21.636  0.00  0.00    +0.000 C 
ATOM     17  C   UNL     1       0.827   2.413  19.215  0.00  0.00    +0.000 C 
ENDBRANCH  13  15
ENDBRANCH   1  10
TORSDOF 4
ENDMDL
MODEL 8
REMARK VINA RESULT:      -5.6      4.703      7.172
REMARK  Name = 
REMARK  7 active torsions:
REMARK  status: ('A' for Active; 'I' for Inactive)
REMARK    1  A    between atoms: C_1  and  O_2
REMARK    2  A    between atoms: O_2  and  C_3
REMARK    3  A    between atoms: N_6  and  C_7
REMARK    4  A    between atoms: C_7  and  C_8
REMARK    5  A    between atoms: C_11  and  C_12
REMARK    6  A    between atoms: C_12  and  C_13
REMARK    7  A    between atoms: C_12  and  C_14
REMARK                            x       y       z     vdW  Elec       q    Type
REMARK                         _______ _______ _______ _____ _____    ______ ____
ROOT
ATOM      1  C   UNL     1       2.825   6.946  18.795  0.00  0.00    +0.000 C 
ENDROOT
BRANCH   1   5
ATOM      2  C   UNL     1       1.909   2.810  19.574  0.00  0.00    +0.000 C 
ATOM      3  C   UNL     1       1.518   3.429  18.231  0.00  0.00    +0.000 C 
ATOM      4  C   UNL     1       2.269   4.744  17.998  0.00  0.00    +0.000 C 
ATOM      5  N   UNL     1       2.036   5.721  19.083  0.00  0.00    +0.000 NA
ATOM      6  C   UNL     1       2.417   5.139  20.386  0.00  0.00    +0.000 C 
ATOM      7  C   UNL     1       1.653   3.848  20.668  0.00  0.00    +0.000 C 
BRANCH   2   9
ATOM      8  C   UNL     1       3.559   1.467  18.458  0.00  0.00    +0.000 C 
ATOM      9  O   UNL     1       3.285   2.417  19.476  0.00  0.00    +0.000 OA
ENDBRANCH   2   9
ENDBRANCH   1   5
BRANCH   1  10
ATOM     10  C   UNL     1       2.009   8.194  18.997  0.00  0.00    +0.000 A 
ATOM     11  C   UNL     1       1.673   9.141  18.045  0.00  0.00    +0.000 A 
ATOM     12  S   UNL     1       0.622  10.312  18.728  0.00  0.00    +0.000 S 
ATOM     13  C   UNL     1       0.669   9.474  20.230  0.00  0.00    +0.000 A 
ATOM     14  N   UNL     1       1.464   8.422  20.255  0.00  0.00    +0.000 NA
BRANCH  13  15
ATOM     15  C   UNL     1      -0.188   9.905  21.392  0.00  0.00    +0.000 C 
ATOM     16  C   UNL     1       0.390   9.370  22.707  0.00  0.00    +0.000 C 
ATOM     17  C   UNL     1      -0.293  11.428  21.463  0.00  0.00    +0.000 C 
ENDBRANCH  13  15
ENDBRANCH   1  10
TORSDOF 4
ENDMDL
MODEL 9
REMARK VINA RESULT:      -5.4      4.449      6.862
REMARK  Name = 
REMARK  7 active torsions:
REMARK  status: ('A' for Active; 'I' for Inactive)
REMARK    1  A    between atoms: C_1  and  O_2
REMARK    2  A    between atoms: O_2  and  C_3
REMARK    3  A    between atoms: N_6  and  C_7
REMARK    4  A    between atoms: C_7  and  C_8
REMARK    5  A    between atoms: C_11  and  C_12
REMARK    6  A    between atoms: C_12  and  C_13
REMARK    7  A    between atoms: C_12  and  C_14
REMARK                            x       y       z     vdW  Elec       q    Type
REMARK                         _______ _______ _______ _____ _____    ______ ____
ROOT
ATOM      1  C   UNL     1       2.915   6.709  18.316  0.00  0.00    +0.000 C 
ENDROOT
BRANCH   1   5
ATOM      2  C   UNL     1       2.154   2.671  19.607  0.00  0.00    +0.000 C 
ATOM      3  C   UNL     1       1.344   3.259  18.451  0.00  0.00    +0.000 C 
ATOM      4  C   UNL     1       2.022   4.515  17.894  0.00  0.00    +0.000 C 
ATOM      5  N   UNL     1       2.226   5.548  18.933  0.00  0.00    +0.000 NA
ATOM      6  C   UNL     1       3.015   4.995  20.052  0.00  0.00    +0.000 C 
ATOM      7  C   UNL     1       2.344   3.765  20.659  0.00  0.00    +0.000 C 
BRANCH   2   9
ATOM      8  C   UNL     1       4.420   1.981  20.013  0.00  0.00    +0.000 C 
ATOM      9  O   UNL     1       3.390   2.191  19.059  0.00  0.00    +0.000 OA
ENDBRANCH   2   9
ENDBRANCH   1   5
BRANCH   1  10
ATOM     10  C   UNL     1       2.217   8.004  18.634  0.00  0.00    +0.000 A 
ATOM     11  C   UNL     1       1.892   9.021  17.753  0.00  0.00    +0.000 A 
ATOM     12  S   UNL     1       0.987  10.231  18.563  0.00  0.00    +0.000 S 
ATOM     13  C   UNL     1       1.072   9.317  20.018  0.00  0.00    +0.000 A 
ATOM     14  N   UNL     1       1.781   8.208  19.938  0.00  0.00    +0.000 NA
BRANCH  13  15
ATOM     15  C   UNL     1       0.335   9.753  21.259  0.00  0.00    +0.000 C 
ATOM     16  C   UNL     1      -0.614  10.911  20.935  0.00  0.00    +0.000 C 
ATOM     17  C   UNL     1      -0.460   8.594  21.861  0.00  0.00    +0.000 C 
ENDBRANCH  13  15
ENDBRANCH   1  10
TORSDOF 4
ENDMDL
