MODEL 1
REMARK VINA RESULT:      -8.4      0.000      0.000
REMARK  Name = 
REMARK  9 active torsions:
REMARK  status: ('A' for Active; 'I' for Inactive)
REMARK    1  A    between atoms: C_1  and  C_2
REMARK    2  A    between atoms: C_7  and  O_8
REMARK    3  A    between atoms: O_8  and  C_9
REMARK    4  A    between atoms: C_9  and  C_10
REMARK    5  A    between atoms: N_12  and  C_13
REMARK    6  A    between atoms: C_13  and  C_14
REMARK    7  A    between atoms: C_14  and  O_16
REMARK    8  A    between atoms: O_16  and  C_17
REMARK    9  A    between atoms: C_17  and  C_18
REMARK                            x       y       z     vdW  Elec       q    Type
REMARK                         _______ _______ _______ _____ _____    ______ ____
ROOT
ATOM      1  C   UNL     1       4.647   5.269  16.602  0.00  0.00    +0.000 C 
ENDROOT
BRANCH   1   4
ATOM      2  C   UNL     1       6.559   4.650  18.059  0.00  0.00    +0.000 C 
ATOM      3  O   UNL     1       7.723   4.309  18.219  0.00  0.00    +0.000 OA
ATOM      4  N   UNL     1       6.102   4.843  16.808  0.00  0.00    +0.000 N 
ATOM      5  H   UNL     1       6.686   4.758  15.943  0.00  0.00    +0.000 HD
BRANCH   2   6
ATOM      6  C   UNL     1       5.643   4.863  19.212  0.00  0.00    +0.000 C 
BRANCH   6   7
ATOM      7  O   UNL     1       5.037   3.640  19.647  0.00  0.00    +0.000 OA
BRANCH   7  14
ATOM      8  C   UNL     1       3.538   1.779  17.920  0.00  0.00    +0.000 C 
ATOM      9  C   UNL     1       2.916   2.683  18.916  0.00  0.00    +0.000 A 
ATOM     10  C   UNL     1       1.530   2.671  19.045  0.00  0.00    +0.000 A 
ATOM     11  C   UNL     1       0.885   3.509  19.937  0.00  0.00    +0.000 A 
ATOM     12  C   UNL     1       1.626   4.380  20.713  0.00  0.00    +0.000 A 
ATOM     13  C   UNL     1       3.016   4.391  20.604  0.00  0.00    +0.000 A 
ATOM     14  C   UNL     1       3.673   3.546  19.700  0.00  0.00    +0.000 A 
ENDBRANCH   7  14
ENDBRANCH   6   7
ENDBRANCH   2   6
ENDBRANCH   1   4
BRANCH   1  15
ATOM     15  C   UNL     1       4.694   6.689  16.558  0.00  0.00    +0.000 C 
ATOM     16  O   UNL     1       5.540   6.887  15.643  0.00  0.00    +0.000 OA
BRANCH  15  17
ATOM     17  O   UNL     1       3.914   7.494  17.417  0.00  0.00    +0.000 OA
BRANCH  17  18
ATOM     18  C   UNL     1       2.812   7.081  18.421  0.00  0.00    +0.000 C 
BRANCH  18  19
ATOM     19  C   UNL     1       1.882   8.197  18.831  0.00  0.00    +0.000 A 
ATOM     20  C   UNL     1       1.384   9.186  18.114  0.00  0.00    +0.000 A 
ATOM     21  C   UNL     1       0.564  10.165  18.701  0.00  0.00    +0.000 A 
ATOM     22  C   UNL     1       0.262  10.118  20.080  0.00  0.00    +0.000 A 
ATOM     23  C   UNL     1      -0.485  11.156  20.531  0.00  0.00    +0.000 A 
ATOM     24  C   UNL     1      -0.770  11.042  21.748  0.00  0.00    +0.000 A 
ATOM     25  C   UNL     1      -1.103  10.950  23.079  0.00  0.00    +0.000 A 
ATOM     26  C   UNL     1       0.011   9.569  22.417  0.00  0.00    +0.000 A 
ATOM     27  C   UNL     1       0.663   9.186  20.931  0.00  0.00    +0.000 A 
ATOM     28  C   UNL     1       1.480   8.357  20.106  0.00  0.00    +0.000 A 
ENDBRANCH  18  19
ENDBRANCH  17  18
ENDBRANCH  15  17
ENDBRANCH   1  15
TORSDOF 8
ENDMDL
MODEL 2
REMARK VINA RESULT:      -8.2      0.971      1.571
REMARK  Name = 
REMARK  9 active torsions:
REMARK  status: ('A' for Active; 'I' for Inactive)
REMARK    1  A    between atoms: C_1  and  C_2
REMARK    2  A    between atoms: C_7  and  O_8
REMARK    3  A    between atoms: O_8  and  C_9
REMARK    4  A    between atoms: C_9  and  C_10
REMARK    5  A    between atoms: N_12  and  C_13
REMARK    6  A    between atoms: C_13  and  C_14
REMARK    7  A    between atoms: C_14  and  O_16
REMARK    8  A    between atoms: O_16  and  C_17
REMARK    9  A    between atoms: C_17  and  C_18
REMARK                            x       y       z     vdW  Elec       q    Type
REMARK                         _______ _______ _______ _____ _____    ______ ____
ROOT
ATOM      1  C   UNL     1       5.055   5.355  16.438  0.00  0.00    +0.000 C 
ENDROOT
BRANCH   1   4
ATOM      2  C   UNL     1       6.598   4.924  18.334  0.00  0.00    +0.000 C 
ATOM      3  O   UNL     1       7.723   4.789  18.797  0.00  0.00    +0.000 OA
ATOM      4  N   UNL     1       6.460   5.186  17.022  0.00  0.00    +0.000 N 
ATOM      5  H   UNL     1       7.256   5.321  16.356  0.00  0.00    +0.000 HD
BRANCH   2   6
ATOM      6  C   UNL     1       5.385   4.816  19.189  0.00  0.00    +0.000 C 
BRANCH   6   7
ATOM      7  O   UNL     1       4.617   3.646  18.882  0.00  0.00    +0.000 OA
BRANCH   7  14
ATOM      8  C   UNL     1       2.024   4.476  17.750  0.00  0.00    +0.000 C 
ATOM      9  C   UNL     1       2.188   3.786  19.051  0.00  0.00    +0.000 A 
ATOM     10  C   UNL     1       1.049   3.517  19.805  0.00  0.00    +0.000 A 
ATOM     11  C   UNL     1       1.135   2.900  21.040  0.00  0.00    +0.000 A 
ATOM     12  C   UNL     1       2.373   2.545  21.541  0.00  0.00    +0.000 A 
ATOM     13  C   UNL     1       3.520   2.796  20.789  0.00  0.00    +0.000 A 
ATOM     14  C   UNL     1       3.438   3.423  19.539  0.00  0.00    +0.000 A 
ENDBRANCH   7  14
ENDBRANCH   6   7
ENDBRANCH   2   6
ENDBRANCH   1   4
BRANCH   1  15
ATOM     15  C   UNL     1       4.837   6.760  16.438  0.00  0.00    +0.000 C 
ATOM     16  O   UNL     1       5.386   7.103  15.356  0.00  0.00    +0.000 OA
BRANCH  15  17
ATOM     17  O   UNL     1       4.158   7.415  17.489  0.00  0.00    +0.000 OA
BRANCH  17  18
ATOM     18  C   UNL     1       2.742   8.039  17.507  0.00  0.00    +0.000 C 
BRANCH  18  19
ATOM     19  C   UNL     1       2.128   8.169  18.879  0.00  0.00    +0.000 A 
ATOM     20  C   UNL     1       2.130   7.319  19.889  0.00  0.00    +0.000 A 
ATOM     21  C   UNL     1       1.450   7.611  21.084  0.00  0.00    +0.000 A 
ATOM     22  C   UNL     1       0.737   8.822  21.228  0.00  0.00    +0.000 A 
ATOM     23  C   UNL     1       0.075   8.952  22.404  0.00  0.00    +0.000 A 
ATOM     24  C   UNL     1      -0.499  10.063  22.506  0.00  0.00    +0.000 A 
ATOM     25  C   UNL     1      -1.139  11.271  22.653  0.00  0.00    +0.000 A 
ATOM     26  C   UNL     1      -0.267  11.004  20.993  0.00  0.00    +0.000 A 
ATOM     27  C   UNL     1       0.653   9.786  20.323  0.00  0.00    +0.000 A 
ATOM     28  C   UNL     1       1.385   9.237  19.230  0.00  0.00    +0.000 A 
ENDBRANCH  18  19
ENDBRANCH  17  18
ENDBRANCH  15  17
ENDBRANCH   1  15
TORSDOF 8
ENDMDL
MODEL 3
REMARK VINA RESULT:      -8.0      2.571      4.581
REMARK  Name = 
REMARK  9 active torsions:
REMARK  status: ('A' for Active; 'I' for Inactive)
REMARK    1  A    between atoms: C_1  and  C_2
REMARK    2  A    between atoms: C_7  and  O_8
REMARK    3  A    between atoms: O_8  and  C_9
REMARK    4  A    between atoms: C_9  and  C_10
REMARK    5  A    between atoms: N_12  and  C_13
REMARK    6  A    between atoms: C_13  and  C_14
REMARK    7  A    between atoms: C_14  and  O_16
REMARK    8  A    between atoms: O_16  and  C_17
REMARK    9  A    between atoms: C_17  and  C_18
REMARK                            x       y       z     vdW  Elec       q    Type
REMARK                         _______ _______ _______ _____ _____    ______ ____
ROOT
ATOM      1  C   UNL     1       4.077   3.963  17.257  0.00  0.00    +0.000 C 
ENDROOT
BRANCH   1   4
ATOM      2  C   UNL     1       6.460   4.614  17.495  0.00  0.00    +0.000 C 
ATOM      3  O   UNL     1       7.560   4.500  18.019  0.00  0.00    +0.000 OA
ATOM      4  N   UNL     1       5.454   3.823  17.910  0.00  0.00    +0.000 N 
ATOM      5  H   UNL     1       5.547   3.076  18.637  0.00  0.00    +0.000 HD
BRANCH   2   6
ATOM      6  C   UNL     1       6.215   5.599  16.406  0.00  0.00    +0.000 C 
BRANCH   6   7
ATOM      7  O   UNL     1       7.213   5.523  15.382  0.00  0.00    +0.000 OA
BRANCH   7  14
ATOM      8  C   UNL     1       8.823   5.922  12.944  0.00  0.00    +0.000 C 
ATOM      9  C   UNL     1       7.659   5.011  13.039  0.00  0.00    +0.000 A 
ATOM     10  C   UNL     1       7.282   4.300  11.903  0.00  0.00    +0.000 A 
ATOM     11  C   UNL     1       6.188   3.453  11.917  0.00  0.00    +0.000 A 
ATOM     12  C   UNL     1       5.450   3.311  13.076  0.00  0.00    +0.000 A 
ATOM     13  C   UNL     1       5.825   4.006  14.225  0.00  0.00    +0.000 A 
ATOM     14  C   UNL     1       6.931   4.867  14.215  0.00  0.00    +0.000 A 
ENDBRANCH   7  14
ENDBRANCH   6   7
ENDBRANCH   2   6
ENDBRANCH   1   4
BRANCH   1  15
ATOM     15  C   UNL     1       3.227   4.396  18.311  0.00  0.00    +0.000 C 
ATOM     16  O   UNL     1       2.571   3.346  18.557  0.00  0.00    +0.000 OA
BRANCH  15  17
ATOM     17  O   UNL     1       3.258   5.717  18.808  0.00  0.00    +0.000 OA
BRANCH  17  18
ATOM     18  C   UNL     1       3.269   7.059  18.037  0.00  0.00    +0.000 C 
BRANCH  18  19
ATOM     19  C   UNL     1       2.275   8.080  18.534  0.00  0.00    +0.000 A 
ATOM     20  C   UNL     1       1.702   9.081  17.892  0.00  0.00    +0.000 A 
ATOM     21  C   UNL     1       0.829   9.961  18.554  0.00  0.00    +0.000 A 
ATOM     22  C   UNL     1       0.551   9.800  19.930  0.00  0.00    +0.000 A 
ATOM     23  C   UNL     1      -0.256  10.752  20.459  0.00  0.00    +0.000 A 
ATOM     24  C   UNL     1      -0.513  10.536  21.669  0.00  0.00    +0.000 A 
ATOM     25  C   UNL     1      -0.820  10.331  22.993  0.00  0.00    +0.000 A 
ATOM     26  C   UNL     1       0.372   9.076  22.225  0.00  0.00    +0.000 A 
ATOM     27  C   UNL     1       1.026   8.839  20.710  0.00  0.00    +0.000 A 
ATOM     28  C   UNL     1       1.882   8.125  19.821  0.00  0.00    +0.000 A 
ENDBRANCH  18  19
ENDBRANCH  17  18
ENDBRANCH  15  17
ENDBRANCH   1  15
TORSDOF 8
ENDMDL
MODEL 4
REMARK VINA RESULT:      -7.8      1.955      4.002
REMARK  Name = 
REMARK  9 active torsions:
REMARK  status: ('A' for Active; 'I' for Inactive)
REMARK    1  A    between atoms: C_1  and  C_2
REMARK    2  A    between atoms: C_7  and  O_8
REMARK    3  A    between atoms: O_8  and  C_9
REMARK    4  A    between atoms: C_9  and  C_10
REMARK    5  A    between atoms: N_12  and  C_13
REMARK    6  A    between atoms: C_13  and  C_14
REMARK    7  A    between atoms: C_14  and  O_16
REMARK    8  A    between atoms: O_16  and  C_17
REMARK    9  A    between atoms: C_17  and  C_18
REMARK                            x       y       z     vdW  Elec       q    Type
REMARK                         _______ _______ _______ _____ _____    ______ ____
ROOT
ATOM      1  C   UNL     1       2.442   3.445  21.139  0.00  0.00    +0.000 C 
ENDROOT
BRANCH   1   4
ATOM      2  C   UNL     1       3.328   2.304  19.120  0.00  0.00    +0.000 C 
ATOM      3  O   UNL     1       3.225   1.494  18.209  0.00  0.00    +0.000 OA
ATOM      4  N   UNL     1       2.317   2.433  19.997  0.00  0.00    +0.000 N 
ATOM      5  H   UNL     1       1.412   1.910  19.941  0.00  0.00    +0.000 HD
BRANCH   2   6
ATOM      6  C   UNL     1       4.541   3.154  19.273  0.00  0.00    +0.000 C 
BRANCH   6   7
ATOM      7  O   UNL     1       4.518   4.282  18.390  0.00  0.00    +0.000 OA
BRANCH   7  14
ATOM      8  C   UNL     1       5.029   6.002  16.050  0.00  0.00    +0.000 C 
ATOM      9  C   UNL     1       5.893   5.944  17.251  0.00  0.00    +0.000 A 
ATOM     10  C   UNL     1       7.034   6.742  17.284  0.00  0.00    +0.000 A 
ATOM     11  C   UNL     1       7.898   6.715  18.365  0.00  0.00    +0.000 A 
ATOM     12  C   UNL     1       7.630   5.879  19.432  0.00  0.00    +0.000 A 
ATOM     13  C   UNL     1       6.483   5.086  19.418  0.00  0.00    +0.000 A 
ATOM     14  C   UNL     1       5.607   5.108  18.325  0.00  0.00    +0.000 A 
ENDBRANCH   7  14
ENDBRANCH   6   7
ENDBRANCH   2   6
ENDBRANCH   1   4
BRANCH   1  15
ATOM     15  C   UNL     1       1.816   4.621  20.642  0.00  0.00    +0.000 C 
ATOM     16  O   UNL     1       0.651   4.204  20.394  0.00  0.00    +0.000 OA
BRANCH  15  17
ATOM     17  O   UNL     1       2.505   5.848  20.528  0.00  0.00    +0.000 OA
BRANCH  17  18
ATOM     18  C   UNL     1       2.529   6.857  19.355  0.00  0.00    +0.000 C 
BRANCH  18  19
ATOM     19  C   UNL     1       1.720   8.110  19.583  0.00  0.00    +0.000 A 
ATOM     20  C   UNL     1       1.510   9.136  18.780  0.00  0.00    +0.000 A 
ATOM     21  C   UNL     1       0.755  10.244  19.203  0.00  0.00    +0.000 A 
ATOM     22  C   UNL     1       0.211  10.289  20.506  0.00  0.00    +0.000 A 
ATOM     23  C   UNL     1      -0.440  11.440  20.807  0.00  0.00    +0.000 A 
ATOM     24  C   UNL     1      -0.948  11.411  21.954  0.00  0.00    +0.000 A 
ATOM     25  C   UNL     1      -1.521  11.414  23.204  0.00  0.00    +0.000 A 
ATOM     26  C   UNL     1      -0.527   9.863  22.764  0.00  0.00    +0.000 A 
ATOM     27  C   UNL     1       0.312   9.338  21.423  0.00  0.00    +0.000 A 
ATOM     28  C   UNL     1       1.127   8.371  20.764  0.00  0.00    +0.000 A 
ENDBRANCH  18  19
ENDBRANCH  17  18
ENDBRANCH  15  17
ENDBRANCH   1  15
TORSDOF 8
ENDMDL
MODEL 5
REMARK VINA RESULT:      -7.7      5.669      8.215
REMARK  Name = 
REMARK  9 active torsions:
REMARK  status: ('A' for Active; 'I' for Inactive)
REMARK    1  A    between atoms: C_1  and  C_2
REMARK    2  A    between atoms: C_7  and  O_8
REMARK    3  A    between atoms: O_8  and  C_9
REMARK    4  A    between atoms: C_9  and  C_10
REMARK    5  A    between atoms: N_12  and  C_13
REMARK    6  A    between atoms: C_13  and  C_14
REMARK    7  A    between atoms: C_14  and  O_16
REMARK    8  A    between atoms: O_16  and  C_17
REMARK    9  A    between atoms: C_17  and  C_18
REMARK                            x       y       z     vdW  Elec       q    Type
REMARK                         _______ _______ _______ _____ _____    ______ ____
ROOT
ATOM      1  C   UNL     1       8.172   7.667  18.475  0.00  0.00    +0.000 C 
ENDROOT
BRANCH   1   4
ATOM      2  C   UNL     1       8.512  10.112  18.212  0.00  0.00    +0.000 C 
ATOM      3  O   UNL     1       8.379  11.156  17.588  0.00  0.00    +0.000 OA
ATOM      4  N   UNL     1       8.009   8.976  17.698  0.00  0.00    +0.000 N 
ATOM      5  H   UNL     1       7.469   8.917  16.802  0.00  0.00    +0.000 HD
BRANCH   2   6
ATOM      6  C   UNL     1       9.206  10.074  19.528  0.00  0.00    +0.000 C 
BRANCH   6   7
ATOM      7  O   UNL     1      10.433  10.814  19.507  0.00  0.00    +0.000 OA
BRANCH   7  14
ATOM      8  C   UNL     1      11.821  12.992  18.085  0.00  0.00    +0.000 C 
ATOM      9  C   UNL     1      11.088  13.159  19.361  0.00  0.00    +0.000 A 
ATOM     10  C   UNL     1      11.056  14.422  19.945  0.00  0.00    +0.000 A 
ATOM     11  C   UNL     1      10.412  14.640  21.150  0.00  0.00    +0.000 A 
ATOM     12  C   UNL     1       9.790  13.586  21.792  0.00  0.00    +0.000 A 
ATOM     13  C   UNL     1       9.803  12.319  21.211  0.00  0.00    +0.000 A 
ATOM     14  C   UNL     1      10.456  12.093  19.992  0.00  0.00    +0.000 A 
ENDBRANCH   7  14
ENDBRANCH   6   7
ENDBRANCH   2   6
ENDBRANCH   1   4
BRANCH   1  15
ATOM     15  C   UNL     1       7.415   6.718  17.736  0.00  0.00    +0.000 C 
ATOM     16  O   UNL     1       7.755   5.635  18.288  0.00  0.00    +0.000 OA
BRANCH  15  17
ATOM     17  O   UNL     1       6.559   7.097  16.679  0.00  0.00    +0.000 OA
BRANCH  17  18
ATOM     18  C   UNL     1       5.206   6.487  16.242  0.00  0.00    +0.000 C 
BRANCH  18  19
ATOM     19  C   UNL     1       4.203   6.314  17.355  0.00  0.00    +0.000 A 
ATOM     20  C   UNL     1       3.377   7.193  17.891  0.00  0.00    +0.000 A 
ATOM     21  C   UNL     1       2.544   6.843  18.967  0.00  0.00    +0.000 A 
ATOM     22  C   UNL     1       2.579   5.539  19.510  0.00  0.00    +0.000 A 
ATOM     23  C   UNL     1       1.773   5.352  20.584  0.00  0.00    +0.000 A 
ATOM     24  C   UNL     1       1.801   4.167  20.997  0.00  0.00    +0.000 A 
ATOM     25  C   UNL     1       1.804   2.878  21.475  0.00  0.00    +0.000 A 
ATOM     26  C   UNL     1       2.976   3.216  20.027  0.00  0.00    +0.000 A 
ATOM     27  C   UNL     1       3.332   4.539  19.077  0.00  0.00    +0.000 A 
ATOM     28  C   UNL     1       4.079   5.155  18.030  0.00  0.00    +0.000 A 
ENDBRANCH  18  19
ENDBRANCH  17  18
ENDBRANCH  15  17
ENDBRANCH   1  15
TORSDOF 8
ENDMDL
MODEL 6
REMARK VINA RESULT:      -7.7      1.465      2.390
REMARK  Name = 
REMARK  9 active torsions:
REMARK  status: ('A' for Active; 'I' for Inactive)
REMARK    1  A    between atoms: C_1  and  C_2
REMARK    2  A    between atoms: C_7  and  O_8
REMARK    3  A    between atoms: O_8  and  C_9
REMARK    4  A    between atoms: C_9  and  C_10
REMARK    5  A    between atoms: N_12  and  C_13
REMARK    6  A    between atoms: C_13  and  C_14
REMARK    7  A    between atoms: C_14  and  O_16
REMARK    8  A    between atoms: O_16  and  C_17
REMARK    9  A    between atoms: C_17  and  C_18
REMARK                            x       y       z     vdW  Elec       q    Type
REMARK                         _______ _______ _______ _____ _____    ______ ____
ROOT
ATOM      1  C   UNL     1       6.535   5.221  17.849  0.00  0.00    +0.000 C 
ENDROOT
BRANCH   1   4
ATOM      2  C   UNL     1       5.986   3.962  15.781  0.00  0.00    +0.000 C 
ATOM      3  O   UNL     1       6.307   3.439  14.723  0.00  0.00    +0.000 OA
ATOM      4  N   UNL     1       6.932   4.565  16.524  0.00  0.00    +0.000 N 
ATOM      5  H   UNL     1       7.950   4.593  16.282  0.00  0.00    +0.000 HD
BRANCH   2   6
ATOM      6  C   UNL     1       4.580   3.937  16.268  0.00  0.00    +0.000 C 
BRANCH   6   7
ATOM      7  O   UNL     1       4.389   2.961  17.300  0.00  0.00    +0.000 OA
BRANCH   7  14
ATOM      8  C   UNL     1       4.579   2.172  20.134  0.00  0.00    +0.000 C 
ATOM      9  C   UNL     1       3.364   2.738  19.502  0.00  0.00    +0.000 A 
ATOM     10  C   UNL     1       2.225   2.900  20.286  0.00  0.00    +0.000 A 
ATOM     11  C   UNL     1       1.051   3.398  19.751  0.00  0.00    +0.000 A 
ATOM     12  C   UNL     1       1.001   3.737  18.412  0.00  0.00    +0.000 A 
ATOM     13  C   UNL     1       2.138   3.592  17.619  0.00  0.00    +0.000 A 
ATOM     14  C   UNL     1       3.329   3.087  18.157  0.00  0.00    +0.000 A 
ENDBRANCH   7  14
ENDBRANCH   6   7
ENDBRANCH   2   6
ENDBRANCH   1   4
BRANCH   1  15
ATOM     15  C   UNL     1       6.558   6.616  17.576  0.00  0.00    +0.000 C 
ATOM     16  O   UNL     1       7.792   6.869  17.647  0.00  0.00    +0.000 OA
BRANCH  15  17
ATOM     17  O   UNL     1       5.380   7.352  17.323  0.00  0.00    +0.000 OA
BRANCH  17  18
ATOM     18  C   UNL     1       3.915   6.863  17.228  0.00  0.00    +0.000 C 
BRANCH  18  19
ATOM     19  C   UNL     1       3.016   7.346  18.339  0.00  0.00    +0.000 A 
ATOM     20  C   UNL     1       2.737   6.786  19.502  0.00  0.00    +0.000 A 
ATOM     21  C   UNL     1       1.823   7.379  20.390  0.00  0.00    +0.000 A 
ATOM     22  C   UNL     1       1.172   8.587  20.054  0.00  0.00    +0.000 A 
ATOM     23  C   UNL     1       0.271   9.017  20.970  0.00  0.00    +0.000 A 
ATOM     24  C   UNL     1      -0.242  10.117  20.651  0.00  0.00    +0.000 A 
ATOM     25  C   UNL     1      -0.823  11.322  20.335  0.00  0.00    +0.000 A 
ATOM     26  C   UNL     1       0.383  10.633  19.048  0.00  0.00    +0.000 A 
ATOM     27  C   UNL     1       1.355   9.283  18.942  0.00  0.00    +0.000 A 
ATOM     28  C   UNL     1       2.280   8.468  18.225  0.00  0.00    +0.000 A 
ENDBRANCH  18  19
ENDBRANCH  17  18
ENDBRANCH  15  17
ENDBRANCH   1  15
TORSDOF 8
ENDMDL
MODEL 7
REMARK VINA RESULT:      -7.6      5.689      7.402
REMARK  Name = 
REMARK  9 active torsions:
REMARK  status: ('A' for Active; 'I' for Inactive)
REMARK    1  A    between atoms: C_1  and  C_2
REMARK    2  A    between atoms: C_7  and  O_8
REMARK    3  A    between atoms: O_8  and  C_9
REMARK    4  A    between atoms: C_9  and  C_10
REMARK    5  A    between atoms: N_12  and  C_13
REMARK    6  A    between atoms: C_13  and  C_14
REMARK    7  A    between atoms: C_14  and  O_16
REMARK    8  A    between atoms: O_16  and  C_17
REMARK    9  A    between atoms: C_17  and  C_18
REMARK                            x       y       z     vdW  Elec       q    Type
REMARK                         _______ _______ _______ _____ _____    ______ ____
ROOT
ATOM      1  C   UNL     1       7.005   5.864  18.325  0.00  0.00    +0.000 C 
ENDROOT
BRANCH   1   4
ATOM      2  C   UNL     1       5.318   4.286  17.417  0.00  0.00    +0.000 C 
ATOM      3  O   UNL     1       4.924   3.509  16.558  0.00  0.00    +0.000 OA
ATOM      4  N   UNL     1       6.508   4.891  17.253  0.00  0.00    +0.000 N 
ATOM      5  H   UNL     1       7.156   4.719  16.449  0.00  0.00    +0.000 HD
BRANCH   2   6
ATOM      6  C   UNL     1       4.516   4.569  18.639  0.00  0.00    +0.000 C 
BRANCH   6   7
ATOM      7  O   UNL     1       3.171   4.945  18.320  0.00  0.00    +0.000 OA
BRANCH   7  14
ATOM      8  C   UNL     1       1.991   4.844  21.020  0.00  0.00    +0.000 C 
ATOM      9  C   UNL     1       2.061   6.064  20.182  0.00  0.00    +0.000 A 
ATOM     10  C   UNL     1       1.523   7.245  20.687  0.00  0.00    +0.000 A 
ATOM     11  C   UNL     1       1.532   8.412  19.944  0.00  0.00    +0.000 A 
ATOM     12  C   UNL     1       2.078   8.409  18.675  0.00  0.00    +0.000 A 
ATOM     13  C   UNL     1       2.631   7.236  18.163  0.00  0.00    +0.000 A 
ATOM     14  C   UNL     1       2.623   6.051  18.910  0.00  0.00    +0.000 A 
ENDBRANCH   7  14
ENDBRANCH   6   7
ENDBRANCH   2   6
ENDBRANCH   1   4
BRANCH   1  15
ATOM     15  C   UNL     1       7.664   6.891  17.595  0.00  0.00    +0.000 C 
ATOM     16  O   UNL     1       7.598   6.447  16.416  0.00  0.00    +0.000 OA
BRANCH  15  17
ATOM     17  O   UNL     1       8.196   8.038  18.224  0.00  0.00    +0.000 OA
BRANCH  17  18
ATOM     18  C   UNL     1       8.053   9.528  17.835  0.00  0.00    +0.000 C 
BRANCH  18  19
ATOM     19  C   UNL     1       9.025  10.456  18.522  0.00  0.00    +0.000 A 
ATOM     20  C   UNL     1       9.491  10.425  19.756  0.00  0.00    +0.000 A 
ATOM     21  C   UNL     1      10.364  11.422  20.226  0.00  0.00    +0.000 A 
ATOM     22  C   UNL     1      10.755  12.489  19.387  0.00  0.00    +0.000 A 
ATOM     23  C   UNL     1      11.547  13.414  19.983  0.00  0.00    +0.000 A 
ATOM     24  C   UNL     1      11.909  14.313  19.185  0.00  0.00    +0.000 A 
ATOM     25  C   UNL     1      12.327  15.313  18.339  0.00  0.00    +0.000 A 
ATOM     26  C   UNL     1      11.149  14.039  17.580  0.00  0.00    +0.000 A 
ATOM     27  C   UNL     1      10.395  12.655  18.123  0.00  0.00    +0.000 A 
ATOM     28  C   UNL     1       9.513  11.554  17.915  0.00  0.00    +0.000 A 
ENDBRANCH  18  19
ENDBRANCH  17  18
ENDBRANCH  15  17
ENDBRANCH   1  15
TORSDOF 8
ENDMDL
MODEL 8
REMARK VINA RESULT:      -7.6      5.430      7.016
REMARK  Name = 
REMARK  9 active torsions:
REMARK  status: ('A' for Active; 'I' for Inactive)
REMARK    1  A    between atoms: C_1  and  C_2
REMARK    2  A    between atoms: C_7  and  O_8
REMARK    3  A    between atoms: O_8  and  C_9
REMARK    4  A    between atoms: C_9  and  C_10
REMARK    5  A    between atoms: N_12  and  C_13
REMARK    6  A    between atoms: C_13  and  C_14
REMARK    7  A    between atoms: C_14  and  O_16
REMARK    8  A    between atoms: O_16  and  C_17
REMARK    9  A    between atoms: C_17  and  C_18
REMARK                            x       y       z     vdW  Elec       q    Type
REMARK                         _______ _______ _______ _____ _____    ______ ____
ROOT
ATOM      1  C   UNL     1       7.274   6.130  17.023  0.00  0.00    +0.000 C 
ENDROOT
BRANCH   1   4
ATOM      2  C   UNL     1       6.032   4.824  18.730  0.00  0.00    +0.000 C 
ATOM      3  O   UNL     1       5.842   4.471  19.885  0.00  0.00    +0.000 OA
ATOM      4  N   UNL     1       7.031   5.685  18.467  0.00  0.00    +0.000 N 
ATOM      5  H   UNL     1       7.651   6.116  19.193  0.00  0.00    +0.000 HD
BRANCH   2   6
ATOM      6  C   UNL     1       5.180   4.331  17.613  0.00  0.00    +0.000 C 
BRANCH   6   7
ATOM      7  O   UNL     1       3.878   4.929  17.631  0.00  0.00    +0.000 OA
BRANCH   7  14
ATOM      8  C   UNL     1       2.463   6.232  19.865  0.00  0.00    +0.000 C 
ATOM      9  C   UNL     1       2.155   4.875  19.357  0.00  0.00    +0.000 A 
ATOM     10  C   UNL     1       1.140   4.151  19.976  0.00  0.00    +0.000 A 
ATOM     11  C   UNL     1       0.821   2.869  19.567  0.00  0.00    +0.000 A 
ATOM     12  C   UNL     1       1.523   2.289  18.528  0.00  0.00    +0.000 A 
ATOM     13  C   UNL     1       2.533   3.009  17.890  0.00  0.00    +0.000 A 
ATOM     14  C   UNL     1       2.861   4.307  18.302  0.00  0.00    +0.000 A 
ENDBRANCH   7  14
ENDBRANCH   6   7
ENDBRANCH   2   6
ENDBRANCH   1   4
BRANCH   1  15
ATOM     15  C   UNL     1       6.983   7.522  17.026  0.00  0.00    +0.000 C 
ATOM     16  O   UNL     1       5.794   7.534  16.602  0.00  0.00    +0.000 OA
BRANCH  15  17
ATOM     17  O   UNL     1       7.931   8.487  17.430  0.00  0.00    +0.000 OA
BRANCH  17  18
ATOM     18  C   UNL     1       8.689   8.620  18.772  0.00  0.00    +0.000 C 
BRANCH  18  19
ATOM     19  C   UNL     1       9.217  10.003  19.065  0.00  0.00    +0.000 A 
ATOM     20  C   UNL     1       9.243  10.672  20.202  0.00  0.00    +0.000 A 
ATOM     21  C   UNL     1       9.739  11.986  20.258  0.00  0.00    +0.000 A 
ATOM     22  C   UNL     1      10.213  12.627  19.092  0.00  0.00    +0.000 A 
ATOM     23  C   UNL     1      10.604  13.912  19.272  0.00  0.00    +0.000 A 
ATOM     24  C   UNL     1      11.063  14.420  18.221  0.00  0.00    +0.000 A 
ATOM     25  C   UNL     1      11.576  15.009  17.089  0.00  0.00    +0.000 A 
ATOM     26  C   UNL     1      10.937  13.239  16.873  0.00  0.00    +0.000 A 
ATOM     27  C   UNL     1      10.274  12.090  17.882  0.00  0.00    +0.000 A 
ATOM     28  C   UNL     1       9.698  10.802  18.095  0.00  0.00    +0.000 A 
ENDBRANCH  18  19
ENDBRANCH  17  18
ENDBRANCH  15  17
ENDBRANCH   1  15
TORSDOF 8
ENDMDL
MODEL 9
REMARK VINA RESULT:      -7.6      5.765      6.927
REMARK  Name = 
REMARK  9 active torsions:
REMARK  status: ('A' for Active; 'I' for Inactive)
REMARK    1  A    between atoms: C_1  and  C_2
REMARK    2  A    between atoms: C_7  and  O_8
REMARK    3  A    between atoms: O_8  and  C_9
REMARK    4  A    between atoms: C_9  and  C_10
REMARK    5  A    between atoms: N_12  and  C_13
REMARK    6  A    between atoms: C_13  and  C_14
REMARK    7  A    between atoms: C_14  and  O_16
REMARK    8  A    between atoms: O_16  and  C_17
REMARK    9  A    between atoms: C_17  and  C_18
REMARK                            x       y       z     vdW  Elec       q    Type
REMARK                         _______ _______ _______ _____ _____    ______ ____
ROOT
ATOM      1  C   UNL     1       7.549   6.522  18.057  0.00  0.00    +0.000 C 
ENDROOT
BRANCH   1   4
ATOM      2  C   UNL     1       6.415   4.579  17.009  0.00  0.00    +0.000 C 
ATOM      3  O   UNL     1       6.291   3.764  16.104  0.00  0.00    +0.000 OA
ATOM      4  N   UNL     1       7.391   5.500  16.928  0.00  0.00    +0.000 N 
ATOM      5  H   UNL     1       8.093   5.556  16.153  0.00  0.00    +0.000 HD
BRANCH   2   6
ATOM      6  C   UNL     1       5.517   4.566  18.196  0.00  0.00    +0.000 C 
BRANCH   6   7
ATOM      7  O   UNL     1       4.212   5.067  17.885  0.00  0.00    +0.000 OA
BRANCH   7  14
ATOM      8  C   UNL     1       2.549   2.680  17.404  0.00  0.00    +0.000 C 
ATOM      9  C   UNL     1       2.345   3.632  18.521  0.00  0.00    +0.000 A 
ATOM     10  C   UNL     1       1.291   3.401  19.402  0.00  0.00    +0.000 A 
ATOM     11  C   UNL     1       1.030   4.266  20.449  0.00  0.00    +0.000 A 
ATOM     12  C   UNL     1       1.823   5.384  20.625  0.00  0.00    +0.000 A 
ATOM     13  C   UNL     1       2.889   5.619  19.759  0.00  0.00    +0.000 A 
ATOM     14  C   UNL     1       3.157   4.746  18.696  0.00  0.00    +0.000 A 
ENDBRANCH   7  14
ENDBRANCH   6   7
ENDBRANCH   2   6
ENDBRANCH   1   4
BRANCH   1  15
ATOM     15  C   UNL     1       7.345   7.781  17.429  0.00  0.00    +0.000 C 
ATOM     16  O   UNL     1       6.196   7.631  16.926  0.00  0.00    +0.000 OA
BRANCH  15  17
ATOM     17  O   UNL     1       8.314   8.807  17.468  0.00  0.00    +0.000 OA
BRANCH  17  18
ATOM     18  C   UNL     1       8.752   9.702  18.651  0.00  0.00    +0.000 C 
BRANCH  18  19
ATOM     19  C   UNL     1       9.469  10.968  18.253  0.00  0.00    +0.000 A 
ATOM     20  C   UNL     1      10.711  11.140  17.842  0.00  0.00    +0.000 A 
ATOM     21  C   UNL     1      11.211  12.423  17.562  0.00  0.00    +0.000 A 
ATOM     22  C   UNL     1      10.395  13.565  17.725  0.00  0.00    +0.000 A 
ATOM     23  C   UNL     1      11.018  14.744  17.483  0.00  0.00    +0.000 A 
ATOM     24  C   UNL     1      10.240  15.723  17.591  0.00  0.00    +0.000 A 
ATOM     25  C   UNL     1       9.416  16.818  17.699  0.00  0.00    +0.000 A 
ATOM     26  C   UNL     1       8.618  15.151  18.109  0.00  0.00    +0.000 A 
ATOM     27  C   UNL     1       9.127  13.564  18.109  0.00  0.00    +0.000 A 
ATOM     28  C   UNL     1       8.887  12.178  18.349  0.00  0.00    +0.000 A 
ENDBRANCH  18  19
ENDBRANCH  17  18
ENDBRANCH  15  17
ENDBRANCH   1  15
TORSDOF 8
ENDMDL
