MODEL 1
REMARK VINA RESULT:      -7.6      0.000      0.000
REMARK  Name = 
REMARK  9 active torsions:
REMARK  status: ('A' for Active; 'I' for Inactive)
REMARK    1  A    between atoms: C_1  and  O_2
REMARK    2  A    between atoms: O_2  and  C_3
REMARK    3  A    between atoms: C_6  and  C_7
REMARK    4  A    between atoms: N_9  and  C_10
REMARK    5  A    between atoms: C_13  and  N_14
REMARK    6  A    between atoms: C_18  and  C_19
REMARK    7  A    between atoms: C_19  and  C_20
REMARK    8  A    between atoms: C_19  and  C_21
REMARK    9  A    between atoms: C_19  and  C_22
REMARK                            x       y       z     vdW  Elec       q    Type
REMARK                         _______ _______ _______ _____ _____    ______ ____
ROOT
ATOM      1  C   UNL     1       0.923   9.081  19.595  0.00  0.00    +0.000 A 
ATOM      2  C   UNL     1       1.512   8.053  20.336  0.00  0.00    +0.000 A 
ATOM      3  C   UNL     1       2.459   7.206  19.762  0.00  0.00    +0.000 A 
ATOM      4  C   UNL     1       2.854   7.391  18.435  0.00  0.00    +0.000 A 
ATOM      5  C   UNL     1       2.248   8.392  17.674  0.00  0.00    +0.000 A 
ATOM      6  C   UNL     1       1.291   9.238  18.255  0.00  0.00    +0.000 A 
ENDROOT
BRANCH   4   7
ATOM      7  N   UNL     1       3.810   6.501  17.892  0.00  0.00    +0.000 N 
ATOM      8  N   UNL     1       4.867   7.031  17.219  0.00  0.00    +0.000 NA
ATOM      9  N   UNL     1       5.765   6.085  17.020  0.00  0.00    +0.000 NA
ATOM     10  C   UNL     1       5.221   4.916  17.437  0.00  0.00    +0.000 A 
ATOM     11  C   UNL     1       3.933   5.110  17.920  0.00  0.00    +0.000 A 
BRANCH  11  12
ATOM     12  C   UNL     1       2.884   4.052  18.245  0.00  0.00    +0.000 C 
ATOM     13  C   UNL     1       2.785   3.839  19.765  0.00  0.00    +0.000 C 
ATOM     14  C   UNL     1       1.498   4.335  17.637  0.00  0.00    +0.000 C 
ATOM     15  C   UNL     1       3.325   2.697  17.622  0.00  0.00    +0.000 C 
ENDBRANCH  11  12
ENDBRANCH   4   7
BRANCH   1  18
ATOM     16  C   UNL     1       0.193  10.976  21.021  0.00  0.00    +0.000 C 
ATOM     17  O   UNL     1       1.298  11.388  21.362  0.00  0.00    +0.000 OA
ATOM     18  N   UNL     1      -0.060   9.945  20.131  0.00  0.00    +0.000 N 
ATOM     19  H   UNL     1      -0.997   9.857  19.761  0.00  0.00    +0.000 HD
BRANCH  16  23
ATOM     20  C   UNL     1      -3.310  12.785  22.682  0.00  0.00    +0.000 A 
ATOM     21  C   UNL     1      -2.516  11.921  23.434  0.00  0.00    +0.000 A 
ATOM     22  C   UNL     1      -1.359  11.374  22.887  0.00  0.00    +0.000 A 
ATOM     23  C   UNL     1      -0.988  11.683  21.573  0.00  0.00    +0.000 A 
ATOM     24  C   UNL     1      -1.786  12.538  20.807  0.00  0.00    +0.000 A 
ATOM     25  C   UNL     1      -2.949  13.088  21.366  0.00  0.00    +0.000 A 
BRANCH  20  27
ATOM     26  C   UNL     1      -4.713  12.616  24.575  0.00  0.00    +0.000 C 
ATOM     27  O   UNL     1      -4.443  13.214  23.314  0.00  0.00    +0.000 OA
ENDBRANCH  20  27
ENDBRANCH  16  23
ENDBRANCH   1  18
TORSDOF 5
ENDMDL
MODEL 2
REMARK VINA RESULT:      -7.5      0.615      1.025
REMARK  Name = 
REMARK  9 active torsions:
REMARK  status: ('A' for Active; 'I' for Inactive)
REMARK    1  A    between atoms: C_1  and  O_2
REMARK    2  A    between atoms: O_2  and  C_3
REMARK    3  A    between atoms: C_6  and  C_7
REMARK    4  A    between atoms: N_9  and  C_10
REMARK    5  A    between atoms: C_13  and  N_14
REMARK    6  A    between atoms: C_18  and  C_19
REMARK    7  A    between atoms: C_19  and  C_20
REMARK    8  A    between atoms: C_19  and  C_21
REMARK    9  A    between atoms: C_19  and  C_22
REMARK                            x       y       z     vdW  Elec       q    Type
REMARK                         _______ _______ _______ _____ _____    ______ ____
ROOT
ATOM      1  C   UNL     1       1.147   8.800  19.660  0.00  0.00    +0.000 A 
ATOM      2  C   UNL     1       1.546   7.727  20.462  0.00  0.00    +0.000 A 
ATOM      3  C   UNL     1       2.451   6.777  19.992  0.00  0.00    +0.000 A 
ATOM      4  C   UNL     1       2.996   6.898  18.712  0.00  0.00    +0.000 A 
ATOM      5  C   UNL     1       2.580   7.946  17.888  0.00  0.00    +0.000 A 
ATOM      6  C   UNL     1       1.664   8.897  18.364  0.00  0.00    +0.000 A 
ENDROOT
BRANCH   4   7
ATOM      7  N   UNL     1       3.902   5.904  18.274  0.00  0.00    +0.000 N 
ATOM      8  N   UNL     1       5.107   6.308  17.787  0.00  0.00    +0.000 NA
ATOM      9  N   UNL     1       5.897   5.258  17.678  0.00  0.00    +0.000 NA
ATOM     10  C   UNL     1       5.153   4.160  17.957  0.00  0.00    +0.000 A 
ATOM     11  C   UNL     1       3.842   4.510  18.255  0.00  0.00    +0.000 A 
BRANCH  11  12
ATOM     12  C   UNL     1       2.631   3.591  18.374  0.00  0.00    +0.000 C 
ATOM     13  C   UNL     1       2.925   2.224  17.732  0.00  0.00    +0.000 C 
ATOM     14  C   UNL     1       2.111   3.422  19.814  0.00  0.00    +0.000 C 
ATOM     15  C   UNL     1       1.442   4.217  17.591  0.00  0.00    +0.000 C 
ENDBRANCH  11  12
ENDBRANCH   4   7
BRANCH   1  18
ATOM     16  C   UNL     1       0.310  10.499  21.263  0.00  0.00    +0.000 C 
ATOM     17  O   UNL     1       1.270  10.524  22.026  0.00  0.00    +0.000 OA
ATOM     18  N   UNL     1       0.213   9.771  20.088  0.00  0.00    +0.000 N 
ATOM     19  H   UNL     1      -0.526  10.012  19.441  0.00  0.00    +0.000 HD
BRANCH  16  23
ATOM     20  C   UNL     1      -3.130  12.806  22.332  0.00  0.00    +0.000 A 
ATOM     21  C   UNL     1      -2.479  12.004  23.266  0.00  0.00    +0.000 A 
ATOM     22  C   UNL     1      -1.339  11.292  22.907  0.00  0.00    +0.000 A 
ATOM     23  C   UNL     1      -0.841  11.371  21.601  0.00  0.00    +0.000 A 
ATOM     24  C   UNL     1      -1.496  12.164  20.654  0.00  0.00    +0.000 A 
ATOM     25  C   UNL     1      -2.643  12.881  21.024  0.00  0.00    +0.000 A 
BRANCH  20  27
ATOM     26  C   UNL     1      -4.708  13.002  24.079  0.00  0.00    +0.000 C 
ATOM     27  O   UNL     1      -4.265  13.413  22.792  0.00  0.00    +0.000 OA
ENDBRANCH  20  27
ENDBRANCH  16  23
ENDBRANCH   1  18
TORSDOF 5
ENDMDL
MODEL 3
REMARK VINA RESULT:      -7.5      1.301      1.907
REMARK  Name = 
REMARK  9 active torsions:
REMARK  status: ('A' for Active; 'I' for Inactive)
REMARK    1  A    between atoms: C_1  and  O_2
REMARK    2  A    between atoms: O_2  and  C_3
REMARK    3  A    between atoms: C_6  and  C_7
REMARK    4  A    between atoms: N_9  and  C_10
REMARK    5  A    between atoms: C_13  and  N_14
REMARK    6  A    between atoms: C_18  and  C_19
REMARK    7  A    between atoms: C_19  and  C_20
REMARK    8  A    between atoms: C_19  and  C_21
REMARK    9  A    between atoms: C_19  and  C_22
REMARK                            x       y       z     vdW  Elec       q    Type
REMARK                         _______ _______ _______ _____ _____    ______ ____
ROOT
ATOM      1  C   UNL     1       1.101   8.651  19.988  0.00  0.00    +0.000 A 
ATOM      2  C   UNL     1       1.896   8.594  18.840  0.00  0.00    +0.000 A 
ATOM      3  C   UNL     1       2.739   7.508  18.604  0.00  0.00    +0.000 A 
ATOM      4  C   UNL     1       2.781   6.443  19.507  0.00  0.00    +0.000 A 
ATOM      5  C   UNL     1       2.017   6.504  20.674  0.00  0.00    +0.000 A 
ATOM      6  C   UNL     1       1.175   7.602  20.909  0.00  0.00    +0.000 A 
ENDROOT
BRANCH   4   7
ATOM      7  N   UNL     1       3.659   5.368  19.232  0.00  0.00    +0.000 N 
ATOM      8  N   UNL     1       4.995   5.623  19.218  0.00  0.00    +0.000 NA
ATOM      9  N   UNL     1       5.648   4.477  19.206  0.00  0.00    +0.000 NA
ATOM     10  C   UNL     1       4.731   3.489  19.065  0.00  0.00    +0.000 A 
ATOM     11  C   UNL     1       3.446   4.011  18.983  0.00  0.00    +0.000 A 
BRANCH  11  12
ATOM     12  C   UNL     1       2.166   3.291  18.572  0.00  0.00    +0.000 C 
ATOM     13  C   UNL     1       2.497   1.981  17.837  0.00  0.00    +0.000 C 
ATOM     14  C   UNL     1       1.188   3.038  19.734  0.00  0.00    +0.000 C 
ATOM     15  C   UNL     1       1.379   4.188  17.576  0.00  0.00    +0.000 C 
ENDBRANCH  11  12
ENDBRANCH   4   7
BRANCH   1  18
ATOM     16  C   UNL     1       0.236  10.440  21.475  0.00  0.00    +0.000 C 
ATOM     17  O   UNL     1       1.035  10.316  22.398  0.00  0.00    +0.000 OA
ATOM     18  N   UNL     1       0.252   9.745  20.277  0.00  0.00    +0.000 N 
ATOM     19  H   UNL     1      -0.314  10.099  19.516  0.00  0.00    +0.000 HD
BRANCH  16  23
ATOM     20  C   UNL     1      -2.960  13.227  22.040  0.00  0.00    +0.000 A 
ATOM     21  C   UNL     1      -2.455  12.481  23.102  0.00  0.00    +0.000 A 
ATOM     22  C   UNL     1      -1.389  11.609  22.904  0.00  0.00    +0.000 A 
ATOM     23  C   UNL     1      -0.820  11.469  21.633  0.00  0.00    +0.000 A 
ATOM     24  C   UNL     1      -1.329  12.204  20.558  0.00  0.00    +0.000 A 
ATOM     25  C   UNL     1      -2.401  13.084  20.766  0.00  0.00    +0.000 A 
BRANCH  20  27
ATOM     26  C   UNL     1      -4.899  14.333  21.268  0.00  0.00    +0.000 C 
ATOM     27  O   UNL     1      -4.037  14.008  22.351  0.00  0.00    +0.000 OA
ENDBRANCH  20  27
ENDBRANCH  16  23
ENDBRANCH   1  18
TORSDOF 5
ENDMDL
MODEL 4
REMARK VINA RESULT:      -7.5      0.121      1.262
REMARK  Name = 
REMARK  9 active torsions:
REMARK  status: ('A' for Active; 'I' for Inactive)
REMARK    1  A    between atoms: C_1  and  O_2
REMARK    2  A    between atoms: O_2  and  C_3
REMARK    3  A    between atoms: C_6  and  C_7
REMARK    4  A    between atoms: N_9  and  C_10
REMARK    5  A    between atoms: C_13  and  N_14
REMARK    6  A    between atoms: C_18  and  C_19
REMARK    7  A    between atoms: C_19  and  C_20
REMARK    8  A    between atoms: C_19  and  C_21
REMARK    9  A    between atoms: C_19  and  C_22
REMARK                            x       y       z     vdW  Elec       q    Type
REMARK                         _______ _______ _______ _____ _____    ______ ____
ROOT
ATOM      1  C   UNL     1       0.898   9.065  19.524  0.00  0.00    +0.000 A 
ATOM      2  C   UNL     1       1.382   9.188  18.219  0.00  0.00    +0.000 A 
ATOM      3  C   UNL     1       2.359   8.322  17.730  0.00  0.00    +0.000 A 
ATOM      4  C   UNL     1       2.854   7.294  18.538  0.00  0.00    +0.000 A 
ATOM      5  C   UNL     1       2.404   7.183  19.855  0.00  0.00    +0.000 A 
ATOM      6  C   UNL     1       1.425   8.061  20.343  0.00  0.00    +0.000 A 
ENDROOT
BRANCH   4   7
ATOM      7  N   UNL     1       3.852   6.446  18.004  0.00  0.00    +0.000 N 
ATOM      8  N   UNL     1       4.895   7.023  17.348  0.00  0.00    +0.000 NA
ATOM      9  N   UNL     1       5.833   6.115  17.156  0.00  0.00    +0.000 NA
ATOM     10  C   UNL     1       5.331   4.923  17.559  0.00  0.00    +0.000 A 
ATOM     11  C   UNL     1       4.030   5.062  18.026  0.00  0.00    +0.000 A 
BRANCH  11  12
ATOM     12  C   UNL     1       3.020   3.960  18.331  0.00  0.00    +0.000 C 
ATOM     13  C   UNL     1       3.484   2.623  17.728  0.00  0.00    +0.000 C 
ATOM     14  C   UNL     1       2.693   3.807  19.828  0.00  0.00    +0.000 C 
ATOM     15  C   UNL     1       1.664   4.318  17.661  0.00  0.00    +0.000 C 
ENDBRANCH  11  12
ENDBRANCH   4   7
BRANCH   1  18
ATOM     16  C   UNL     1       0.176  10.896  21.035  0.00  0.00    +0.000 C 
ATOM     17  O   UNL     1       1.277  11.231  21.461  0.00  0.00    +0.000 OA
ATOM     18  N   UNL     1      -0.073   9.939  20.066  0.00  0.00    +0.000 N 
ATOM     19  H   UNL     1      -0.992   9.920  19.643  0.00  0.00    +0.000 HD
BRANCH  16  23
ATOM     20  C   UNL     1      -3.313  12.760  22.664  0.00  0.00    +0.000 A 
ATOM     21  C   UNL     1      -2.504  11.936  23.443  0.00  0.00    +0.000 A 
ATOM     22  C   UNL     1      -1.352  11.371  22.904  0.00  0.00    +0.000 A 
ATOM     23  C   UNL     1      -1.001  11.621  21.572  0.00  0.00    +0.000 A 
ATOM     24  C   UNL     1      -1.815  12.436  20.780  0.00  0.00    +0.000 A 
ATOM     25  C   UNL     1      -2.973  13.005  21.330  0.00  0.00    +0.000 A 
BRANCH  20  27
ATOM     26  C   UNL     1      -4.737  12.604  24.542  0.00  0.00    +0.000 C 
ATOM     27  O   UNL     1      -4.440  13.212  23.292  0.00  0.00    +0.000 OA
ENDBRANCH  20  27
ENDBRANCH  16  23
ENDBRANCH   1  18
TORSDOF 5
ENDMDL
MODEL 5
REMARK VINA RESULT:      -7.5      1.288      1.692
REMARK  Name = 
REMARK  9 active torsions:
REMARK  status: ('A' for Active; 'I' for Inactive)
REMARK    1  A    between atoms: C_1  and  O_2
REMARK    2  A    between atoms: O_2  and  C_3
REMARK    3  A    between atoms: C_6  and  C_7
REMARK    4  A    between atoms: N_9  and  C_10
REMARK    5  A    between atoms: C_13  and  N_14
REMARK    6  A    between atoms: C_18  and  C_19
REMARK    7  A    between atoms: C_19  and  C_20
REMARK    8  A    between atoms: C_19  and  C_21
REMARK    9  A    between atoms: C_19  and  C_22
REMARK                            x       y       z     vdW  Elec       q    Type
REMARK                         _______ _______ _______ _____ _____    ______ ____
ROOT
ATOM      1  C   UNL     1       1.068   8.560  20.088  0.00  0.00    +0.000 A 
ATOM      2  C   UNL     1       1.218   7.473  20.954  0.00  0.00    +0.000 A 
ATOM      3  C   UNL     1       2.089   6.428  20.650  0.00  0.00    +0.000 A 
ATOM      4  C   UNL     1       2.850   6.466  19.479  0.00  0.00    +0.000 A 
ATOM      5  C   UNL     1       2.684   7.530  18.590  0.00  0.00    +0.000 A 
ATOM      6  C   UNL     1       1.801   8.576  18.898  0.00  0.00    +0.000 A 
ENDROOT
BRANCH   4   7
ATOM      7  N   UNL     1       3.713   5.379  19.207  0.00  0.00    +0.000 N 
ATOM      8  N   UNL     1       5.055   5.607  19.231  0.00  0.00    +0.000 NA
ATOM      9  N   UNL     1       5.685   4.448  19.215  0.00  0.00    +0.000 NA
ATOM     10  C   UNL     1       4.752   3.482  19.034  0.00  0.00    +0.000 A 
ATOM     11  C   UNL     1       3.480   4.031  18.929  0.00  0.00    +0.000 A 
BRANCH  11  12
ATOM     12  C   UNL     1       2.197   3.344  18.474  0.00  0.00    +0.000 C 
ATOM     13  C   UNL     1       1.391   4.268  17.545  0.00  0.00    +0.000 C 
ATOM     14  C   UNL     1       2.421   1.967  17.822  0.00  0.00    +0.000 C 
ATOM     15  C   UNL     1       1.308   3.057  19.717  0.00  0.00    +0.000 C 
ENDBRANCH  11  12
ENDBRANCH   4   7
BRANCH   1  18
ATOM     16  C   UNL     1       0.163  10.385  21.506  0.00  0.00    +0.000 C 
ATOM     17  O   UNL     1       0.995  10.349  22.407  0.00  0.00    +0.000 OA
ATOM     18  N   UNL     1       0.176   9.627  20.347  0.00  0.00    +0.000 N 
ATOM     19  H   UNL     1      -0.429   9.911  19.587  0.00  0.00    +0.000 HD
BRANCH  16  23
ATOM     20  C   UNL     1      -3.148  13.043  22.022  0.00  0.00    +0.000 A 
ATOM     21  C   UNL     1      -2.591  12.365  23.104  0.00  0.00    +0.000 A 
ATOM     22  C   UNL     1      -1.489  11.535  22.919  0.00  0.00    +0.000 A 
ATOM     23  C   UNL     1      -0.937  11.370  21.644  0.00  0.00    +0.000 A 
ATOM     24  C   UNL     1      -1.499  12.036  20.551  0.00  0.00    +0.000 A 
ATOM     25  C   UNL     1      -2.607  12.874  20.744  0.00  0.00    +0.000 A 
BRANCH  20  27
ATOM     26  C   UNL     1      -4.176  15.170  22.010  0.00  0.00    +0.000 C 
ATOM     27  O   UNL     1      -4.256  13.786  22.324  0.00  0.00    +0.000 OA
ENDBRANCH  20  27
ENDBRANCH  16  23
ENDBRANCH   1  18
TORSDOF 5
ENDMDL
MODEL 6
REMARK VINA RESULT:      -7.4      1.398      1.947
REMARK  Name = 
REMARK  9 active torsions:
REMARK  status: ('A' for Active; 'I' for Inactive)
REMARK    1  A    between atoms: C_1  and  O_2
REMARK    2  A    between atoms: O_2  and  C_3
REMARK    3  A    between atoms: C_6  and  C_7
REMARK    4  A    between atoms: N_9  and  C_10
REMARK    5  A    between atoms: C_13  and  N_14
REMARK    6  A    between atoms: C_18  and  C_19
REMARK    7  A    between atoms: C_19  and  C_20
REMARK    8  A    between atoms: C_19  and  C_21
REMARK    9  A    between atoms: C_19  and  C_22
REMARK                            x       y       z     vdW  Elec       q    Type
REMARK                         _______ _______ _______ _____ _____    ______ ____
ROOT
ATOM      1  C   UNL     1       1.121   8.596  20.049  0.00  0.00    +0.000 A 
ATOM      2  C   UNL     1       1.249   7.520  20.932  0.00  0.00    +0.000 A 
ATOM      3  C   UNL     1       2.099   6.452  20.644  0.00  0.00    +0.000 A 
ATOM      4  C   UNL     1       2.858   6.456  19.471  0.00  0.00    +0.000 A 
ATOM      5  C   UNL     1       2.713   7.508  18.565  0.00  0.00    +0.000 A 
ATOM      6  C   UNL     1       1.852   8.577  18.857  0.00  0.00    +0.000 A 
ENDROOT
BRANCH   4   7
ATOM      7  N   UNL     1       3.698   5.346  19.215  0.00  0.00    +0.000 N 
ATOM      8  N   UNL     1       5.043   5.551  19.215  0.00  0.00    +0.000 NA
ATOM      9  N   UNL     1       5.652   4.380  19.221  0.00  0.00    +0.000 NA
ATOM     10  C   UNL     1       4.700   3.427  19.077  0.00  0.00    +0.000 A 
ATOM     11  C   UNL     1       3.437   3.996  18.976  0.00  0.00    +0.000 A 
BRANCH  11  12
ATOM     12  C   UNL     1       2.135   3.321  18.556  0.00  0.00    +0.000 C 
ATOM     13  C   UNL     1       2.425   1.994  17.833  0.00  0.00    +0.000 C 
ATOM     14  C   UNL     1       1.137   3.113  19.709  0.00  0.00    +0.000 C 
ATOM     15  C   UNL     1       1.393   4.240  17.544  0.00  0.00    +0.000 C 
ENDBRANCH  11  12
ENDBRANCH   4   7
BRANCH   1  18
ATOM     16  C   UNL     1       0.218  10.425  21.462  0.00  0.00    +0.000 C 
ATOM     17  O   UNL     1       1.013  10.351  22.393  0.00  0.00    +0.000 OA
ATOM     18  N   UNL     1       0.252   9.685  20.292  0.00  0.00    +0.000 N 
ATOM     19  H   UNL     1      -0.316   9.999  19.515  0.00  0.00    +0.000 HD
BRANCH  16  23
ATOM     20  C   UNL     1      -2.722  13.526  21.677  0.00  0.00    +0.000 A 
ATOM     21  C   UNL     1      -2.108  13.195  20.471  0.00  0.00    +0.000 A 
ATOM     22  C   UNL     1      -1.183  12.156  20.416  0.00  0.00    +0.000 A 
ATOM     23  C   UNL     1      -0.857  11.441  21.575  0.00  0.00    +0.000 A 
ATOM     24  C   UNL     1      -1.458  11.776  22.791  0.00  0.00    +0.000 A 
ATOM     25  C   UNL     1      -2.392  12.822  22.839  0.00  0.00    +0.000 A 
BRANCH  20  27
ATOM     26  C   UNL     1      -4.952  14.298  21.775  0.00  0.00    +0.000 C 
ATOM     27  O   UNL     1      -3.571  14.595  21.611  0.00  0.00    +0.000 OA
ENDBRANCH  20  27
ENDBRANCH  16  23
ENDBRANCH   1  18
TORSDOF 5
ENDMDL
MODEL 7
REMARK VINA RESULT:      -7.3      2.452      3.327
REMARK  Name = 
REMARK  9 active torsions:
REMARK  status: ('A' for Active; 'I' for Inactive)
REMARK    1  A    between atoms: C_1  and  O_2
REMARK    2  A    between atoms: O_2  and  C_3
REMARK    3  A    between atoms: C_6  and  C_7
REMARK    4  A    between atoms: N_9  and  C_10
REMARK    5  A    between atoms: C_13  and  N_14
REMARK    6  A    between atoms: C_18  and  C_19
REMARK    7  A    between atoms: C_19  and  C_20
REMARK    8  A    between atoms: C_19  and  C_21
REMARK    9  A    between atoms: C_19  and  C_22
REMARK                            x       y       z     vdW  Elec       q    Type
REMARK                         _______ _______ _______ _____ _____    ______ ____
ROOT
ATOM      1  C   UNL     1       1.493   9.019  19.195  0.00  0.00    +0.000 A 
ATOM      2  C   UNL     1       2.184   8.591  18.059  0.00  0.00    +0.000 A 
ATOM      3  C   UNL     1       2.896   7.392  18.060  0.00  0.00    +0.000 A 
ATOM      4  C   UNL     1       2.906   6.583  19.199  0.00  0.00    +0.000 A 
ATOM      5  C   UNL     1       2.248   7.016  20.352  0.00  0.00    +0.000 A 
ATOM      6  C   UNL     1       1.538   8.227  20.346  0.00  0.00    +0.000 A 
ENDROOT
BRANCH   4   7
ATOM      7  N   UNL     1       3.650   5.381  19.158  0.00  0.00    +0.000 N 
ATOM      8  N   UNL     1       5.005   5.471  19.082  0.00  0.00    +0.000 NA
ATOM      9  N   UNL     1       5.526   4.281  19.314  0.00  0.00    +0.000 NA
ATOM     10  C   UNL     1       4.501   3.399  19.394  0.00  0.00    +0.000 A 
ATOM     11  C   UNL     1       3.280   4.036  19.209  0.00  0.00    +0.000 A 
BRANCH  11  12
ATOM     12  C   UNL     1       1.916   3.397  18.970  0.00  0.00    +0.000 C 
ATOM     13  C   UNL     1       2.067   1.890  18.698  0.00  0.00    +0.000 C 
ATOM     14  C   UNL     1       0.897   3.654  20.096  0.00  0.00    +0.000 C 
ATOM     15  C   UNL     1       1.276   4.028  17.701  0.00  0.00    +0.000 C 
ENDBRANCH  11  12
ENDBRANCH   4   7
BRANCH   1  18
ATOM     16  C   UNL     1       1.282  11.466  18.836  0.00  0.00    +0.000 C 
ATOM     17  O   UNL     1       2.341  11.659  18.247  0.00  0.00    +0.000 OA
ATOM     18  N   UNL     1       0.781  10.240  19.243  0.00  0.00    +0.000 N 
ATOM     19  H   UNL     1      -0.195  10.191  19.508  0.00  0.00    +0.000 HD
BRANCH  16  23
ATOM     20  C   UNL     1      -0.969  15.007  19.668  0.00  0.00    +0.000 A 
ATOM     21  C   UNL     1       0.185  15.051  18.889  0.00  0.00    +0.000 A 
ATOM     22  C   UNL     1       0.880  13.881  18.598  0.00  0.00    +0.000 A 
ATOM     23  C   UNL     1       0.429  12.651  19.092  0.00  0.00    +0.000 A 
ATOM     24  C   UNL     1      -0.721  12.601  19.886  0.00  0.00    +0.000 A 
ATOM     25  C   UNL     1      -1.419  13.783  20.173  0.00  0.00    +0.000 A 
BRANCH  20  27
ATOM     26  C   UNL     1      -1.142  17.282  19.055  0.00  0.00    +0.000 C 
ATOM     27  O   UNL     1      -1.531  16.227  19.924  0.00  0.00    +0.000 OA
ENDBRANCH  20  27
ENDBRANCH  16  23
ENDBRANCH   1  18
TORSDOF 5
ENDMDL
MODEL 8
REMARK VINA RESULT:      -7.3      0.853      1.258
REMARK  Name = 
REMARK  9 active torsions:
REMARK  status: ('A' for Active; 'I' for Inactive)
REMARK    1  A    between atoms: C_1  and  O_2
REMARK    2  A    between atoms: O_2  and  C_3
REMARK    3  A    between atoms: C_6  and  C_7
REMARK    4  A    between atoms: N_9  and  C_10
REMARK    5  A    between atoms: C_13  and  N_14
REMARK    6  A    between atoms: C_18  and  C_19
REMARK    7  A    between atoms: C_19  and  C_20
REMARK    8  A    between atoms: C_19  and  C_21
REMARK    9  A    between atoms: C_19  and  C_22
REMARK                            x       y       z     vdW  Elec       q    Type
REMARK                         _______ _______ _______ _____ _____    ______ ____
ROOT
ATOM      1  C   UNL     1       1.226   8.853  19.620  0.00  0.00    +0.000 A 
ATOM      2  C   UNL     1       1.616   7.771  20.413  0.00  0.00    +0.000 A 
ATOM      3  C   UNL     1       2.505   6.811  19.933  0.00  0.00    +0.000 A 
ATOM      4  C   UNL     1       3.044   6.933  18.649  0.00  0.00    +0.000 A 
ATOM      5  C   UNL     1       2.635   7.990  17.834  0.00  0.00    +0.000 A 
ATOM      6  C   UNL     1       1.735   8.950  18.321  0.00  0.00    +0.000 A 
ENDROOT
BRANCH   4   7
ATOM      7  N   UNL     1       3.934   5.930  18.200  0.00  0.00    +0.000 N 
ATOM      8  N   UNL     1       5.128   6.323  17.679  0.00  0.00    +0.000 NA
ATOM      9  N   UNL     1       5.911   5.267  17.562  0.00  0.00    +0.000 NA
ATOM     10  C   UNL     1       5.169   4.176  17.871  0.00  0.00    +0.000 A 
ATOM     11  C   UNL     1       3.867   4.536  18.198  0.00  0.00    +0.000 A 
BRANCH  11  12
ATOM     12  C   UNL     1       2.655   3.624  18.358  0.00  0.00    +0.000 C 
ATOM     13  C   UNL     1       2.368   3.363  19.847  0.00  0.00    +0.000 C 
ATOM     14  C   UNL     1       1.393   4.126  17.633  0.00  0.00    +0.000 C 
ATOM     15  C   UNL     1       2.969   2.247  17.705  0.00  0.00    +0.000 C 
ENDBRANCH  11  12
ENDBRANCH   4   7
BRANCH   1  18
ATOM     16  C   UNL     1       0.285  10.385  21.330  0.00  0.00    +0.000 C 
ATOM     17  O   UNL     1       1.128  10.224  22.207  0.00  0.00    +0.000 OA
ATOM     18  N   UNL     1       0.307   9.833  20.060  0.00  0.00    +0.000 N 
ATOM     19  H   UNL     1      -0.316  10.222  19.363  0.00  0.00    +0.000 HD
BRANCH  16  23
ATOM     20  C   UNL     1      -2.835  13.209  22.100  0.00  0.00    +0.000 A 
ATOM     21  C   UNL     1      -2.372  12.979  20.807  0.00  0.00    +0.000 A 
ATOM     22  C   UNL     1      -1.383  12.027  20.574  0.00  0.00    +0.000 A 
ATOM     23  C   UNL     1      -0.841  11.298  21.639  0.00  0.00    +0.000 A 
ATOM     24  C   UNL     1      -1.292  11.533  22.942  0.00  0.00    +0.000 A 
ATOM     25  C   UNL     1      -2.290  12.491  23.169  0.00  0.00    +0.000 A 
BRANCH  20  27
ATOM     26  C   UNL     1      -5.072  13.786  22.588  0.00  0.00    +0.000 C 
ATOM     27  O   UNL     1      -3.769  14.201  22.204  0.00  0.00    +0.000 OA
ENDBRANCH  20  27
ENDBRANCH  16  23
ENDBRANCH   1  18
TORSDOF 5
ENDMDL
MODEL 9
REMARK VINA RESULT:      -7.3      0.536      1.423
REMARK  Name = 
REMARK  9 active torsions:
REMARK  status: ('A' for Active; 'I' for Inactive)
REMARK    1  A    between atoms: C_1  and  O_2
REMARK    2  A    between atoms: O_2  and  C_3
REMARK    3  A    between atoms: C_6  and  C_7
REMARK    4  A    between atoms: N_9  and  C_10
REMARK    5  A    between atoms: C_13  and  N_14
REMARK    6  A    between atoms: C_18  and  C_19
REMARK    7  A    between atoms: C_19  and  C_20
REMARK    8  A    between atoms: C_19  and  C_21
REMARK    9  A    between atoms: C_19  and  C_22
REMARK                            x       y       z     vdW  Elec       q    Type
REMARK                         _______ _______ _______ _____ _____    ______ ____
ROOT
ATOM      1  C   UNL     1       0.899   9.173  19.447  0.00  0.00    +0.000 A 
ATOM      2  C   UNL     1       1.395   9.264  18.144  0.00  0.00    +0.000 A 
ATOM      3  C   UNL     1       2.345   8.360  17.672  0.00  0.00    +0.000 A 
ATOM      4  C   UNL     1       2.799   7.325  18.494  0.00  0.00    +0.000 A 
ATOM      5  C   UNL     1       2.336   7.243  19.809  0.00  0.00    +0.000 A 
ATOM      6  C   UNL     1       1.384   8.160  20.280  0.00  0.00    +0.000 A 
ENDROOT
BRANCH   4   7
ATOM      7  N   UNL     1       3.771   6.437  17.976  0.00  0.00    +0.000 N 
ATOM      8  N   UNL     1       4.835   6.970  17.317  0.00  0.00    +0.000 NA
ATOM      9  N   UNL     1       5.743   6.029  17.142  0.00  0.00    +0.000 NA
ATOM     10  C   UNL     1       5.201   4.860  17.559  0.00  0.00    +0.000 A 
ATOM     11  C   UNL     1       3.903   5.048  18.018  0.00  0.00    +0.000 A 
BRANCH  11  12
ATOM     12  C   UNL     1       2.857   3.985  18.334  0.00  0.00    +0.000 C 
ATOM     13  C   UNL     1       2.730   3.787  19.854  0.00  0.00    +0.000 C 
ATOM     14  C   UNL     1       1.480   4.250  17.696  0.00  0.00    +0.000 C 
ATOM     15  C   UNL     1       3.319   2.627  17.733  0.00  0.00    +0.000 C 
ENDBRANCH  11  12
ENDBRANCH   4   7
BRANCH   1  18
ATOM     16  C   UNL     1       0.214  11.004  20.975  0.00  0.00    +0.000 C 
ATOM     17  O   UNL     1       1.314  11.268  21.453  0.00  0.00    +0.000 OA
ATOM     18  N   UNL     1      -0.046  10.085  19.972  0.00  0.00    +0.000 N 
ATOM     19  H   UNL     1      -0.946  10.126  19.513  0.00  0.00    +0.000 HD
BRANCH  16  23
ATOM     20  C   UNL     1      -3.045  13.440  22.296  0.00  0.00    +0.000 A 
ATOM     21  C   UNL     1      -2.801  13.233  20.940  0.00  0.00    +0.000 A 
ATOM     22  C   UNL     1      -1.759  12.405  20.533  0.00  0.00    +0.000 A 
ATOM     23  C   UNL     1      -0.943  11.779  21.483  0.00  0.00    +0.000 A 
ATOM     24  C   UNL     1      -1.173  11.993  22.846  0.00  0.00    +0.000 A 
ATOM     25  C   UNL     1      -2.227  12.826  23.249  0.00  0.00    +0.000 A 
BRANCH  20  27
ATOM     26  C   UNL     1      -4.705  14.142  23.822  0.00  0.00    +0.000 C 
ATOM     27  O   UNL     1      -4.063  14.312  22.566  0.00  0.00    +0.000 OA
ENDBRANCH  20  27
ENDBRANCH  16  23
ENDBRANCH   1  18
TORSDOF 5
ENDMDL
