MODEL 1
REMARK VINA RESULT:      -7.3      0.000      0.000
REMARK  Name = 
REMARK  7 active torsions:
REMARK  status: ('A' for Active; 'I' for Inactive)
REMARK    1  A    between atoms: C_1  and  C_2
REMARK    2  A    between atoms: C_8  and  S_9
REMARK    3  A    between atoms: S_9  and  C_10
REMARK    4  A    between atoms: C_10  and  C_11
REMARK    5  A    between atoms: C_14  and  C_16
REMARK    6  A    between atoms: N_20  and  C_21
REMARK    7  A    between atoms: C_23  and  C_24
REMARK                            x       y       z     vdW  Elec       q    Type
REMARK                         _______ _______ _______ _____ _____    ______ ____
ROOT
ATOM      1  C   UNL     1       1.420   4.852  19.978  0.00  0.00    +0.000 C 
ENDROOT
BRANCH   1   2
ATOM      2  C   UNL     1       2.688   3.997  19.896  0.00  0.00    +0.000 C 
ATOM      3  O   UNL     1       2.662   2.807  20.197  0.00  0.00    +0.000 OA
ATOM      4  N   UNL     1       3.825   4.709  19.527  0.00  0.00    +0.000 N 
ATOM      5  C   UNL     1       5.084   4.175  19.293  0.00  0.00    +0.000 C 
ATOM      6  O   UNL     1       5.382   3.008  19.529  0.00  0.00    +0.000 OA
ATOM      7  H   UNL     1       3.666   5.656  19.221  0.00  0.00    +0.000 HD
BRANCH   5   8
ATOM      8  C   UNL     1       6.062   5.127  18.750  0.00  0.00    +0.000 A 
ATOM      9  C   UNL     1       7.176   5.713  19.350  0.00  0.00    +0.000 A 
ATOM     10  C   UNL     1       7.819   6.552  18.410  0.00  0.00    +0.000 A 
ATOM     11  C   UNL     1       7.101   6.471  17.243  0.00  0.00    +0.000 A 
ATOM     12  N   UNL     1       6.043   5.619  17.450  0.00  0.00    +0.000 N 
ATOM     13  C   UNL     1       5.060   5.316  16.428  0.00  0.00    +0.000 C 
ENDBRANCH   5   8
ENDBRANCH   1   2
BRANCH   1  14
ATOM     14  S   UNL     1       1.801   6.366  20.915  0.00  0.00    +0.000 S 
BRANCH  14  22
ATOM     15  C   UNL     1      -1.061  11.593  21.190  0.00  0.00    +0.000 C 
ATOM     16  C   UNL     1      -0.141  10.682  20.436  0.00  0.00    +0.000 A 
ATOM     17  S   UNL     1       0.454  11.147  18.913  0.00  0.00    +0.000 S 
ATOM     18  C   UNL     1       1.335   9.705  18.742  0.00  0.00    +0.000 A 
ATOM     19  N   UNL     1       2.061   9.511  17.628  0.00  0.00    +0.000 NA
ATOM     20  C   UNL     1       2.690   8.336  17.619  0.00  0.00    +0.000 A 
ATOM     21  N   UNL     1       2.647   7.385  18.563  0.00  0.00    +0.000 NA
ATOM     22  C   UNL     1       1.910   7.620  19.670  0.00  0.00    +0.000 A 
ATOM     23  C   UNL     1       1.198   8.834  19.818  0.00  0.00    +0.000 A 
ATOM     24  C   UNL     1       0.326   9.433  20.834  0.00  0.00    +0.000 A 
ATOM     25  C   UNL     1      -0.074   8.859  22.159  0.00  0.00    +0.000 C 
ENDBRANCH  14  22
ENDBRANCH   1  14
TORSDOF 4
ENDMDL
MODEL 2
REMARK VINA RESULT:      -7.1      0.651      1.389
REMARK  Name = 
REMARK  7 active torsions:
REMARK  status: ('A' for Active; 'I' for Inactive)
REMARK    1  A    between atoms: C_1  and  C_2
REMARK    2  A    between atoms: C_8  and  S_9
REMARK    3  A    between atoms: S_9  and  C_10
REMARK    4  A    between atoms: C_10  and  C_11
REMARK    5  A    between atoms: C_14  and  C_16
REMARK    6  A    between atoms: N_20  and  C_21
REMARK    7  A    between atoms: C_23  and  C_24
REMARK                            x       y       z     vdW  Elec       q    Type
REMARK                         _______ _______ _______ _____ _____    ______ ____
ROOT
ATOM      1  C   UNL     1       1.321   5.023  20.323  0.00  0.00    +0.000 C 
ENDROOT
BRANCH   1   2
ATOM      2  C   UNL     1       2.558   4.120  20.298  0.00  0.00    +0.000 C 
ATOM      3  O   UNL     1       2.690   3.216  21.117  0.00  0.00    +0.000 OA
ATOM      4  N   UNL     1       3.495   4.476  19.333  0.00  0.00    +0.000 N 
ATOM      5  C   UNL     1       4.662   3.787  19.033  0.00  0.00    +0.000 C 
ATOM      6  O   UNL     1       5.083   2.843  19.696  0.00  0.00    +0.000 OA
ATOM      7  H   UNL     1       3.199   5.182  18.677  0.00  0.00    +0.000 HD
BRANCH   5   8
ATOM      8  C   UNL     1       5.383   4.287  17.856  0.00  0.00    +0.000 A 
ATOM      9  C   UNL     1       5.153   4.066  16.499  0.00  0.00    +0.000 A 
ATOM     10  C   UNL     1       6.113   4.783  15.745  0.00  0.00    +0.000 A 
ATOM     11  C   UNL     1       6.917   5.440  16.641  0.00  0.00    +0.000 A 
ATOM     12  N   UNL     1       6.482   5.138  17.909  0.00  0.00    +0.000 N 
ATOM     13  C   UNL     1       7.120   5.647  19.107  0.00  0.00    +0.000 C 
ENDBRANCH   5   8
ENDBRANCH   1   2
BRANCH   1  14
ATOM     14  S   UNL     1       1.762   6.592  21.132  0.00  0.00    +0.000 S 
BRANCH  14  22
ATOM     15  C   UNL     1      -1.160  11.792  21.049  0.00  0.00    +0.000 C 
ATOM     16  C   UNL     1      -0.236  10.838  20.356  0.00  0.00    +0.000 A 
ATOM     17  S   UNL     1       0.338  11.196  18.796  0.00  0.00    +0.000 S 
ATOM     18  C   UNL     1       1.235   9.755  18.723  0.00  0.00    +0.000 A 
ATOM     19  N   UNL     1       1.952   9.487  17.619  0.00  0.00    +0.000 NA
ATOM     20  C   UNL     1       2.596   8.322  17.691  0.00  0.00    +0.000 A 
ATOM     21  N   UNL     1       2.574   7.444  18.703  0.00  0.00    +0.000 NA
ATOM     22  C   UNL     1       1.844   7.752  19.797  0.00  0.00    +0.000 A 
ATOM     23  C   UNL     1       1.119   8.965  19.862  0.00  0.00    +0.000 A 
ATOM     24  C   UNL     1       0.250   9.627  20.840  0.00  0.00    +0.000 A 
ATOM     25  C   UNL     1      -0.131   9.149  22.208  0.00  0.00    +0.000 C 
ENDBRANCH  14  22
ENDBRANCH   1  14
TORSDOF 4
ENDMDL
MODEL 3
REMARK VINA RESULT:      -7.0      1.917      2.557
REMARK  Name = 
REMARK  7 active torsions:
REMARK  status: ('A' for Active; 'I' for Inactive)
REMARK    1  A    between atoms: C_1  and  C_2
REMARK    2  A    between atoms: C_8  and  S_9
REMARK    3  A    between atoms: S_9  and  C_10
REMARK    4  A    between atoms: C_10  and  C_11
REMARK    5  A    between atoms: C_14  and  C_16
REMARK    6  A    between atoms: N_20  and  C_21
REMARK    7  A    between atoms: C_23  and  C_24
REMARK                            x       y       z     vdW  Elec       q    Type
REMARK                         _______ _______ _______ _____ _____    ______ ____
ROOT
ATOM      1  C   UNL     1       1.617   5.956  20.748  0.00  0.00    +0.000 C 
ENDROOT
BRANCH   1   2
ATOM      2  C   UNL     1       2.575   4.923  20.149  0.00  0.00    +0.000 C 
ATOM      3  O   UNL     1       2.256   3.740  20.074  0.00  0.00    +0.000 OA
ATOM      4  N   UNL     1       3.813   5.447  19.787  0.00  0.00    +0.000 N 
ATOM      5  C   UNL     1       4.835   4.761  19.147  0.00  0.00    +0.000 C 
ATOM      6  O   UNL     1       4.822   3.549  18.950  0.00  0.00    +0.000 OA
ATOM      7  H   UNL     1       3.888   6.450  19.823  0.00  0.00    +0.000 HD
BRANCH   5   8
ATOM      8  C   UNL     1       5.967   5.598  18.729  0.00  0.00    +0.000 A 
ATOM      9  C   UNL     1       7.239   5.733  19.282  0.00  0.00    +0.000 A 
ATOM     10  C   UNL     1       7.984   6.653  18.507  0.00  0.00    +0.000 A 
ATOM     11  C   UNL     1       7.169   7.069  17.486  0.00  0.00    +0.000 A 
ATOM     12  N   UNL     1       5.956   6.440  17.622  0.00  0.00    +0.000 N 
ATOM     13  C   UNL     1       4.843   6.665  16.721  0.00  0.00    +0.000 C 
ENDBRANCH   5   8
ENDBRANCH   1   2
BRANCH   1  14
ATOM     14  S   UNL     1       1.967   7.577  19.999  0.00  0.00    +0.000 S 
BRANCH  14  22
ATOM     15  C   UNL     1      -1.354  12.102  17.980  0.00  0.00    +0.000 C 
ATOM     16  C   UNL     1      -0.802  11.351  19.152  0.00  0.00    +0.000 A 
ATOM     17  S   UNL     1      -1.123  11.889  20.733  0.00  0.00    +0.000 S 
ATOM     18  C   UNL     1      -0.227  10.620  21.419  0.00  0.00    +0.000 A 
ATOM     19  N   UNL     1      -0.127  10.539  22.757  0.00  0.00    +0.000 NA
ATOM     20  C   UNL     1       0.613   9.506  23.158  0.00  0.00    +0.000 A 
ATOM     21  N   UNL     1       1.242   8.609  22.386  0.00  0.00    +0.000 NA
ATOM     22  C   UNL     1       1.114   8.722  21.045  0.00  0.00    +0.000 A 
ATOM     23  C   UNL     1       0.345   9.767  20.480  0.00  0.00    +0.000 A 
ATOM     24  C   UNL     1      -0.017  10.202  19.128  0.00  0.00    +0.000 A 
ATOM     25  C   UNL     1       0.356   9.566  17.823  0.00  0.00    +0.000 C 
ENDBRANCH  14  22
ENDBRANCH   1  14
TORSDOF 4
ENDMDL
MODEL 4
REMARK VINA RESULT:      -6.9      3.672      8.036
REMARK  Name = 
REMARK  7 active torsions:
REMARK  status: ('A' for Active; 'I' for Inactive)
REMARK    1  A    between atoms: C_1  and  C_2
REMARK    2  A    between atoms: C_8  and  S_9
REMARK    3  A    between atoms: S_9  and  C_10
REMARK    4  A    between atoms: C_10  and  C_11
REMARK    5  A    between atoms: C_14  and  C_16
REMARK    6  A    between atoms: N_20  and  C_21
REMARK    7  A    between atoms: C_23  and  C_24
REMARK                            x       y       z     vdW  Elec       q    Type
REMARK                         _______ _______ _______ _____ _____    ______ ____
ROOT
ATOM      1  C   UNL     1       1.363   8.109  21.372  0.00  0.00    +0.000 C 
ENDROOT
BRANCH   1   2
ATOM      2  C   UNL     1       0.848   9.547  21.269  0.00  0.00    +0.000 C 
ATOM      3  O   UNL     1       1.255  10.415  22.036  0.00  0.00    +0.000 OA
ATOM      4  N   UNL     1      -0.136   9.725  20.301  0.00  0.00    +0.000 N 
ATOM      5  C   UNL     1      -0.715  10.932  19.936  0.00  0.00    +0.000 C 
ATOM      6  O   UNL     1      -0.526  11.986  20.537  0.00  0.00    +0.000 OA
ATOM      7  H   UNL     1      -0.294   8.939  19.691  0.00  0.00    +0.000 HD
BRANCH   5   8
ATOM      8  C   UNL     1      -1.603  10.858  18.769  0.00  0.00    +0.000 A 
ATOM      9  C   UNL     1      -1.466  10.148  17.577  0.00  0.00    +0.000 A 
ATOM     10  C   UNL     1      -2.600  10.385  16.765  0.00  0.00    +0.000 A 
ATOM     11  C   UNL     1      -3.423  11.231  17.464  0.00  0.00    +0.000 A 
ATOM     12  N   UNL     1      -2.822  11.519  18.665  0.00  0.00    +0.000 N 
ATOM     13  C   UNL     1      -3.409  12.406  19.651  0.00  0.00    +0.000 C 
ENDBRANCH   5   8
ENDBRANCH   1   2
BRANCH   1  14
ATOM     14  S   UNL     1       2.074   7.629  19.767  0.00  0.00    +0.000 S 
BRANCH  14  22
ATOM     15  C   UNL     1       5.176   4.226  15.975  0.00  0.00    +0.000 C 
ATOM     16  C   UNL     1       4.254   4.306  17.153  0.00  0.00    +0.000 A 
ATOM     17  S   UNL     1       3.675   2.881  17.876  0.00  0.00    +0.000 S 
ATOM     18  C   UNL     1       2.776   3.750  19.027  0.00  0.00    +0.000 A 
ATOM     19  N   UNL     1       2.054   3.076  19.937  0.00  0.00    +0.000 NA
ATOM     20  C   UNL     1       1.390   3.879  20.768  0.00  0.00    +0.000 A 
ATOM     21  N   UNL     1       1.371   5.219  20.759  0.00  0.00    +0.000 NA
ATOM     22  C   UNL     1       2.114   5.860  19.830  0.00  0.00    +0.000 A 
ATOM     23  C   UNL     1       2.880   5.131  18.891  0.00  0.00    +0.000 A 
ATOM     24  C   UNL     1       3.778   5.455  17.778  0.00  0.00    +0.000 A 
ATOM     25  C   UNL     1       4.193   6.811  17.293  0.00  0.00    +0.000 C 
ENDBRANCH  14  22
ENDBRANCH   1  14
TORSDOF 4
ENDMDL
MODEL 5
REMARK VINA RESULT:      -6.7      4.182      8.522
REMARK  Name = 
REMARK  7 active torsions:
REMARK  status: ('A' for Active; 'I' for Inactive)
REMARK    1  A    between atoms: C_1  and  C_2
REMARK    2  A    between atoms: C_8  and  S_9
REMARK    3  A    between atoms: S_9  and  C_10
REMARK    4  A    between atoms: C_10  and  C_11
REMARK    5  A    between atoms: C_14  and  C_16
REMARK    6  A    between atoms: N_20  and  C_21
REMARK    7  A    between atoms: C_23  and  C_24
REMARK                            x       y       z     vdW  Elec       q    Type
REMARK                         _______ _______ _______ _____ _____    ______ ____
ROOT
ATOM      1  C   UNL     1       1.022   9.128  19.921  0.00  0.00    +0.000 C 
ENDROOT
BRANCH   1   2
ATOM      2  C   UNL     1       0.649  10.520  19.404  0.00  0.00    +0.000 C 
ATOM      3  O   UNL     1       1.383  11.483  19.609  0.00  0.00    +0.000 OA
ATOM      4  N   UNL     1      -0.589  10.572  18.770  0.00  0.00    +0.000 N 
ATOM      5  C   UNL     1      -1.137  11.678  18.136  0.00  0.00    +0.000 C 
ATOM      6  O   UNL     1      -0.646  12.802  18.185  0.00  0.00    +0.000 OA
ATOM      7  H   UNL     1      -1.028   9.682  18.598  0.00  0.00    +0.000 HD
BRANCH   5   8
ATOM      8  C   UNL     1      -2.381  11.410  17.403  0.00  0.00    +0.000 A 
ATOM      9  C   UNL     1      -2.577  10.922  16.112  0.00  0.00    +0.000 A 
ATOM     10  C   UNL     1      -3.966  10.819  15.864  0.00  0.00    +0.000 A 
ATOM     11  C   UNL     1      -4.609  11.238  17.001  0.00  0.00    +0.000 A 
ATOM     12  N   UNL     1      -3.656  11.598  17.923  0.00  0.00    +0.000 N 
ATOM     13  C   UNL     1      -3.984  12.111  19.239  0.00  0.00    +0.000 C 
ENDBRANCH   5   8
ENDBRANCH   1   2
BRANCH   1  14
ATOM     14  S   UNL     1       2.072   8.309  18.681  0.00  0.00    +0.000 S 
BRANCH  14  22
ATOM     15  C   UNL     1       5.996   4.412  16.445  0.00  0.00    +0.000 C 
ATOM     16  C   UNL     1       4.975   4.733  17.493  0.00  0.00    +0.000 A 
ATOM     17  S   UNL     1       4.573   3.573  18.669  0.00  0.00    +0.000 S 
ATOM     18  C   UNL     1       3.451   4.613  19.407  0.00  0.00    +0.000 A 
ATOM     19  N   UNL     1       2.771   4.183  20.483  0.00  0.00    +0.000 NA
ATOM     20  C   UNL     1       1.917   5.092  20.953  0.00  0.00    +0.000 A 
ATOM     21  N   UNL     1       1.683   6.316  20.460  0.00  0.00    +0.000 NA
ATOM     22  C   UNL     1       2.390   6.713  19.379  0.00  0.00    +0.000 A 
ATOM     23  C   UNL     1       3.342   5.852  18.784  0.00  0.00    +0.000 A 
ATOM     24  C   UNL     1       4.268   5.921  17.650  0.00  0.00    +0.000 A 
ATOM     25  C   UNL     1       4.501   7.072  16.718  0.00  0.00    +0.000 C 
ENDBRANCH  14  22
ENDBRANCH   1  14
TORSDOF 4
ENDMDL
MODEL 6
REMARK VINA RESULT:      -6.7      4.140      8.595
REMARK  Name = 
REMARK  7 active torsions:
REMARK  status: ('A' for Active; 'I' for Inactive)
REMARK    1  A    between atoms: C_1  and  C_2
REMARK    2  A    between atoms: C_8  and  S_9
REMARK    3  A    between atoms: S_9  and  C_10
REMARK    4  A    between atoms: C_10  and  C_11
REMARK    5  A    between atoms: C_14  and  C_16
REMARK    6  A    between atoms: N_20  and  C_21
REMARK    7  A    between atoms: C_23  and  C_24
REMARK                            x       y       z     vdW  Elec       q    Type
REMARK                         _______ _______ _______ _____ _____    ______ ____
ROOT
ATOM      1  C   UNL     1       1.155   9.320  19.597  0.00  0.00    +0.000 C 
ENDROOT
BRANCH   1   2
ATOM      2  C   UNL     1       0.737  10.647  18.957  0.00  0.00    +0.000 C 
ATOM      3  O   UNL     1       1.578  11.485  18.645  0.00  0.00    +0.000 OA
ATOM      4  N   UNL     1      -0.641  10.808  18.844  0.00  0.00    +0.000 N 
ATOM      5  C   UNL     1      -1.292  11.868  18.229  0.00  0.00    +0.000 C 
ATOM      6  O   UNL     1      -0.719  12.879  17.832  0.00  0.00    +0.000 OA
ATOM      7  H   UNL     1      -1.194   9.993  19.057  0.00  0.00    +0.000 HD
BRANCH   5   8
ATOM      8  C   UNL     1      -2.745  11.703  18.101  0.00  0.00    +0.000 A 
ATOM      9  C   UNL     1      -3.764  11.954  19.019  0.00  0.00    +0.000 A 
ATOM     10  C   UNL     1      -5.010  11.654  18.419  0.00  0.00    +0.000 A 
ATOM     11  C   UNL     1      -4.748  11.230  17.141  0.00  0.00    +0.000 A 
ATOM     12  N   UNL     1      -3.388  11.254  16.952  0.00  0.00    +0.000 N 
ATOM     13  C   UNL     1      -2.754  10.844  15.714  0.00  0.00    +0.000 C 
ENDBRANCH   5   8
ENDBRANCH   1   2
BRANCH   1  14
ATOM     14  S   UNL     1       2.172   8.394  18.406  0.00  0.00    +0.000 S 
BRANCH  14  22
ATOM     15  C   UNL     1       6.159   4.367  16.542  0.00  0.00    +0.000 C 
ATOM     16  C   UNL     1       5.103   4.750  17.533  0.00  0.00    +0.000 A 
ATOM     17  S   UNL     1       4.656   3.663  18.760  0.00  0.00    +0.000 S 
ATOM     18  C   UNL     1       3.512   4.745  19.396  0.00  0.00    +0.000 A 
ATOM     19  N   UNL     1       2.793   4.380  20.471  0.00  0.00    +0.000 NA
ATOM     20  C   UNL     1       1.926   5.317  20.856  0.00  0.00    +0.000 A 
ATOM     21  N   UNL     1       1.714   6.510  20.284  0.00  0.00    +0.000 NA
ATOM     22  C   UNL     1       2.460   6.842  19.207  0.00  0.00    +0.000 A 
ATOM     23  C   UNL     1       3.429   5.945  18.698  0.00  0.00    +0.000 A 
ATOM     24  C   UNL     1       4.395   5.947  17.595  0.00  0.00    +0.000 A 
ATOM     25  C   UNL     1       4.663   7.040  16.605  0.00  0.00    +0.000 C 
ENDBRANCH  14  22
ENDBRANCH   1  14
TORSDOF 4
ENDMDL
MODEL 7
REMARK VINA RESULT:      -6.6      2.307      3.033
REMARK  Name = 
REMARK  7 active torsions:
REMARK  status: ('A' for Active; 'I' for Inactive)
REMARK    1  A    between atoms: C_1  and  C_2
REMARK    2  A    between atoms: C_8  and  S_9
REMARK    3  A    between atoms: S_9  and  C_10
REMARK    4  A    between atoms: C_10  and  C_11
REMARK    5  A    between atoms: C_14  and  C_16
REMARK    6  A    between atoms: N_20  and  C_21
REMARK    7  A    between atoms: C_23  and  C_24
REMARK                            x       y       z     vdW  Elec       q    Type
REMARK                         _______ _______ _______ _____ _____    ______ ____
ROOT
ATOM      1  C   UNL     1       1.558   6.750  21.018  0.00  0.00    +0.000 C 
ENDROOT
BRANCH   1   2
ATOM      2  C   UNL     1       2.147   5.654  20.125  0.00  0.00    +0.000 C 
ATOM      3  O   UNL     1       1.472   4.682  19.797  0.00  0.00    +0.000 OA
ATOM      4  N   UNL     1       3.488   5.845  19.809  0.00  0.00    +0.000 N 
ATOM      5  C   UNL     1       4.247   5.059  18.953  0.00  0.00    +0.000 C 
ATOM      6  O   UNL     1       3.854   3.997  18.479  0.00  0.00    +0.000 OA
ATOM      7  H   UNL     1       3.876   6.736  20.075  0.00  0.00    +0.000 HD
BRANCH   5   8
ATOM      8  C   UNL     1       5.587   5.585  18.664  0.00  0.00    +0.000 A 
ATOM      9  C   UNL     1       6.756   5.535  19.422  0.00  0.00    +0.000 A 
ATOM     10  C   UNL     1       7.798   6.170  18.706  0.00  0.00    +0.000 A 
ATOM     11  C   UNL     1       7.264   6.597  17.516  0.00  0.00    +0.000 A 
ATOM     12  N   UNL     1       5.935   6.251  17.494  0.00  0.00    +0.000 N 
ATOM     13  C   UNL     1       5.053   6.569  16.388  0.00  0.00    +0.000 C 
ENDBRANCH   5   8
ENDBRANCH   1   2
BRANCH   1  14
ATOM     14  S   UNL     1       1.504   8.303  20.072  0.00  0.00    +0.000 S 
BRANCH  14  22
ATOM     15  C   UNL     1       1.068  14.168  19.072  0.00  0.00    +0.000 C 
ATOM     16  C   UNL     1       0.762  13.001  19.959  0.00  0.00    +0.000 A 
ATOM     17  S   UNL     1      -0.051  13.244  21.432  0.00  0.00    +0.000 S 
ATOM     18  C   UNL     1      -0.012  11.588  21.806  0.00  0.00    +0.000 A 
ATOM     19  N   UNL     1      -0.559  11.164  22.957  0.00  0.00    +0.000 NA
ATOM     20  C   UNL     1      -0.448   9.847  23.129  0.00  0.00    +0.000 A 
ATOM     21  N   UNL     1       0.144   8.969  22.307  0.00  0.00    +0.000 NA
ATOM     22  C   UNL     1       0.679   9.434  21.157  0.00  0.00    +0.000 A 
ATOM     23  C   UNL     1       0.621  10.812  20.840  0.00  0.00    +0.000 A 
ATOM     24  C   UNL     1       1.067  11.662  19.732  0.00  0.00    +0.000 A 
ATOM     25  C   UNL     1       1.769  11.246  18.475  0.00  0.00    +0.000 C 
ENDBRANCH  14  22
ENDBRANCH   1  14
TORSDOF 4
ENDMDL
MODEL 8
REMARK VINA RESULT:      -6.6      4.106      8.285
REMARK  Name = 
REMARK  7 active torsions:
REMARK  status: ('A' for Active; 'I' for Inactive)
REMARK    1  A    between atoms: C_1  and  C_2
REMARK    2  A    between atoms: C_8  and  S_9
REMARK    3  A    between atoms: S_9  and  C_10
REMARK    4  A    between atoms: C_10  and  C_11
REMARK    5  A    between atoms: C_14  and  C_16
REMARK    6  A    between atoms: N_20  and  C_21
REMARK    7  A    between atoms: C_23  and  C_24
REMARK                            x       y       z     vdW  Elec       q    Type
REMARK                         _______ _______ _______ _____ _____    ______ ____
ROOT
ATOM      1  C   UNL     1       1.842   9.215  17.765  0.00  0.00    +0.000 C 
ENDROOT
BRANCH   1   2
ATOM      2  C   UNL     1       0.991  10.362  18.317  0.00  0.00    +0.000 C 
ATOM      3  O   UNL     1       1.440  11.120  19.172  0.00  0.00    +0.000 OA
ATOM      4  N   UNL     1      -0.306  10.393  17.814  0.00  0.00    +0.000 N 
ATOM      5  C   UNL     1      -1.261  11.366  18.075  0.00  0.00    +0.000 C 
ATOM      6  O   UNL     1      -1.116  12.254  18.911  0.00  0.00    +0.000 OA
ATOM      7  H   UNL     1      -0.493   9.762  17.052  0.00  0.00    +0.000 HD
BRANCH   5   8
ATOM      8  C   UNL     1      -2.489  11.248  17.279  0.00  0.00    +0.000 A 
ATOM      9  C   UNL     1      -2.669  10.851  15.955  0.00  0.00    +0.000 A 
ATOM     10  C   UNL     1      -4.050  10.882  15.648  0.00  0.00    +0.000 A 
ATOM     11  C   UNL     1      -4.704  11.291  16.782  0.00  0.00    +0.000 A 
ATOM     12  N   UNL     1      -3.766  11.516  17.760  0.00  0.00    +0.000 N 
ATOM     13  C   UNL     1      -4.107  11.981  19.091  0.00  0.00    +0.000 C 
ENDBRANCH   5   8
ENDBRANCH   1   2
BRANCH   1  14
ATOM     14  S   UNL     1       2.138   8.014  19.100  0.00  0.00    +0.000 S 
BRANCH  14  22
ATOM     15  C   UNL     1       2.778   2.440  21.124  0.00  0.00    +0.000 C 
ATOM     16  C   UNL     1       3.160   3.481  20.118  0.00  0.00    +0.000 A 
ATOM     17  S   UNL     1       4.329   3.130  18.935  0.00  0.00    +0.000 S 
ATOM     18  C   UNL     1       4.206   4.682  18.256  0.00  0.00    +0.000 A 
ATOM     19  N   UNL     1       4.970   4.995  17.196  0.00  0.00    +0.000 NA
ATOM     20  C   UNL     1       4.782   6.245  16.774  0.00  0.00    +0.000 A 
ATOM     21  N   UNL     1       3.959   7.163  17.298  0.00  0.00    +0.000 NA
ATOM     22  C   UNL     1       3.204   6.809  18.361  0.00  0.00    +0.000 A 
ATOM     23  C   UNL     1       3.292   5.506  18.906  0.00  0.00    +0.000 A 
ATOM     24  C   UNL     1       2.660   4.776  20.009  0.00  0.00    +0.000 A 
ATOM     25  C   UNL     1       1.605   5.264  20.954  0.00  0.00    +0.000 C 
ENDBRANCH  14  22
ENDBRANCH   1  14
TORSDOF 4
ENDMDL
MODEL 9
REMARK VINA RESULT:      -6.6      2.938      5.675
REMARK  Name = 
REMARK  7 active torsions:
REMARK  status: ('A' for Active; 'I' for Inactive)
REMARK    1  A    between atoms: C_1  and  C_2
REMARK    2  A    between atoms: C_8  and  S_9
REMARK    3  A    between atoms: S_9  and  C_10
REMARK    4  A    between atoms: C_10  and  C_11
REMARK    5  A    between atoms: C_14  and  C_16
REMARK    6  A    between atoms: N_20  and  C_21
REMARK    7  A    between atoms: C_23  and  C_24
REMARK                            x       y       z     vdW  Elec       q    Type
REMARK                         _______ _______ _______ _____ _____    ______ ____
ROOT
ATOM      1  C   UNL     1       5.396   7.702  17.576  0.00  0.00    +0.000 C 
ENDROOT
BRANCH   1   2
ATOM      2  C   UNL     1       6.391   6.559  17.361  0.00  0.00    +0.000 C 
ATOM      3  O   UNL     1       7.165   6.225  18.254  0.00  0.00    +0.000 OA
ATOM      4  N   UNL     1       6.363   6.022  16.077  0.00  0.00    +0.000 N 
ATOM      5  C   UNL     1       7.092   4.928  15.633  0.00  0.00    +0.000 C 
ATOM      6  O   UNL     1       7.973   4.384  16.294  0.00  0.00    +0.000 OA
ATOM      7  H   UNL     1       5.610   6.339  15.489  0.00  0.00    +0.000 HD
BRANCH   5   8
ATOM      8  C   UNL     1       6.745   4.468  14.283  0.00  0.00    +0.000 A 
ATOM      9  C   UNL     1       5.731   3.611  13.857  0.00  0.00    +0.000 A 
ATOM     10  C   UNL     1       5.791   3.488  12.449  0.00  0.00    +0.000 A 
ATOM     11  C   UNL     1       6.833   4.272  12.022  0.00  0.00    +0.000 A 
ATOM     12  N   UNL     1       7.409   4.856  13.124  0.00  0.00    +0.000 N 
ATOM     13  C   UNL     1       8.558   5.736  13.043  0.00  0.00    +0.000 C 
ENDBRANCH   5   8
ENDBRANCH   1   2
BRANCH   1  14
ATOM     14  S   UNL     1       3.753   7.156  17.015  0.00  0.00    +0.000 S 
BRANCH  14  22
ATOM     15  C   UNL     1       2.530   1.624  18.881  0.00  0.00    +0.000 C 
ATOM     16  C   UNL     1       2.433   3.099  19.119  0.00  0.00    +0.000 A 
ATOM     17  S   UNL     1       1.598   3.687  20.479  0.00  0.00    +0.000 S 
ATOM     18  C   UNL     1       1.915   5.302  20.060  0.00  0.00    +0.000 A 
ATOM     19  N   UNL     1       1.451   6.285  20.850  0.00  0.00    +0.000 NA
ATOM     20  C   UNL     1       1.760   7.501  20.398  0.00  0.00    +0.000 A 
ATOM     21  N   UNL     1       2.438   7.803  19.282  0.00  0.00    +0.000 NA
ATOM     22  C   UNL     1       2.891   6.786  18.517  0.00  0.00    +0.000 A 
ATOM     23  C   UNL     1       2.646   5.442  18.885  0.00  0.00    +0.000 A 
ATOM     24  C   UNL     1       2.965   4.120  18.337  0.00  0.00    +0.000 A 
ATOM     25  C   UNL     1       3.752   3.799  17.103  0.00  0.00    +0.000 C 
ENDBRANCH  14  22
ENDBRANCH   1  14
TORSDOF 4
ENDMDL
