MODEL 1
REMARK VINA RESULT:      -7.4      0.000      0.000
REMARK  Name = 
REMARK  4 active torsions:
REMARK  status: ('A' for Active; 'I' for Inactive)
REMARK    1  A    between atoms: N_10  and  C1*_11
REMARK    2  A    between atoms: C3*_13  and  O3*_14
REMARK    3  A    between atoms: C4*_15  and  C5*_16
REMARK    4  A    between atoms: C5*_16  and  O5*_17
REMARK                            x       y       z     vdW  Elec       q    Type
REMARK                         _______ _______ _______ _____ _____    ______ ____
ROOT
ATOM      1  O   UNL     1       7.874   5.364  14.197  0.00  0.00    +0.000 OA
ATOM      2  N   UNL     1       7.013   5.025  15.066  0.00  0.00    +0.000 N 
ATOM      3  C   UNL     1       5.719   4.702  14.675  0.00  0.00    +0.000 A 
ATOM      4  C   UNL     1       4.723   4.318  15.581  0.00  0.00    +0.000 A 
ATOM      5  C   UNL     1       5.100   4.284  16.925  0.00  0.00    +0.000 A 
ATOM      6  C   UNL     1       6.391   4.604  17.343  0.00  0.00    +0.000 A 
ATOM      7  C   UNL     1       7.330   4.972  16.392  0.00  0.00    +0.000 A 
ATOM      8  N   UNL     1       6.516   4.486  18.702  0.00  0.00    +0.000 NA
ATOM      9  C   UNL     1       5.329   4.114  19.124  0.00  0.00    +0.000 A 
ATOM     10  N   UNL     1       4.441   3.970  18.093  0.00  0.00    +0.000 N 
ENDROOT
BRANCH  10  11
ATOM     11  C1* UNL     1       3.063   3.531  18.216  0.00  0.00    +0.000 C 
ATOM     12  C2* UNL     1       2.921   2.114  18.747  0.00  0.00    +0.000 C 
ATOM     13  C3* UNL     1       1.556   2.156  19.394  0.00  0.00    +0.000 C 
ATOM     14  C4* UNL     1       1.459   3.582  19.934  0.00  0.00    +0.000 C 
ATOM     15  O4* UNL     1       2.355   4.393  19.131  0.00  0.00    +0.000 OA
BRANCH  13  16
ATOM     16  O3* UNL     1       0.578   1.900  18.384  0.00  0.00    +0.000 OA
ATOM     17  H3* UNL     1       0.466   2.687  17.821  0.00  0.00    +0.000 HD
ENDBRANCH  13  16
BRANCH  14  18
ATOM     18  C5* UNL     1       1.893   3.686  21.399  0.00  0.00    +0.000 C 
BRANCH  18  19
ATOM     19  O5* UNL     1       1.628   2.462  22.081  0.00  0.00    +0.000 OA
ATOM     20  H5* UNL     1       2.059   1.753  21.569  0.00  0.00    +0.000 HD
ENDBRANCH  18  19
ENDBRANCH  14  18
ENDBRANCH  10  11
TORSDOF 4
ENDMDL
MODEL 2
REMARK VINA RESULT:      -7.3      2.521      6.162
REMARK  Name = 
REMARK  4 active torsions:
REMARK  status: ('A' for Active; 'I' for Inactive)
REMARK    1  A    between atoms: N_10  and  C1*_11
REMARK    2  A    between atoms: C3*_13  and  O3*_14
REMARK    3  A    between atoms: C4*_15  and  C5*_16
REMARK    4  A    between atoms: C5*_16  and  O5*_17
REMARK                            x       y       z     vdW  Elec       q    Type
REMARK                         _______ _______ _______ _____ _____    ______ ____
ROOT
ATOM      1  O   UNL     1       1.198   2.549  22.288  0.00  0.00    +0.000 OA
ATOM      2  N   UNL     1       1.919   3.058  21.375  0.00  0.00    +0.000 N 
ATOM      3  C   UNL     1       3.093   2.427  20.982  0.00  0.00    +0.000 A 
ATOM      4  C   UNL     1       3.932   2.933  19.982  0.00  0.00    +0.000 A 
ATOM      5  C   UNL     1       3.525   4.130  19.391  0.00  0.00    +0.000 A 
ATOM      6  C   UNL     1       2.352   4.783  19.767  0.00  0.00    +0.000 A 
ATOM      7  C   UNL     1       1.565   4.225  20.763  0.00  0.00    +0.000 A 
ATOM      8  N   UNL     1       2.167   5.929  19.039  0.00  0.00    +0.000 NA
ATOM      9  C   UNL     1       3.205   5.996  18.237  0.00  0.00    +0.000 A 
ATOM     10  N   UNL     1       4.051   4.934  18.403  0.00  0.00    +0.000 N 
ENDROOT
BRANCH  10  11
ATOM     11  C1* UNL     1       5.263   4.689  17.645  0.00  0.00    +0.000 C 
ATOM     12  C2* UNL     1       5.708   5.877  16.808  0.00  0.00    +0.000 C 
ATOM     13  C3* UNL     1       7.198   5.648  16.704  0.00  0.00    +0.000 C 
ATOM     14  C4* UNL     1       7.557   5.010  18.046  0.00  0.00    +0.000 C 
ATOM     15  O4* UNL     1       6.348   4.381  18.543  0.00  0.00    +0.000 OA
BRANCH  13  16
ATOM     16  O3* UNL     1       7.436   4.760  15.610  0.00  0.00    +0.000 OA
ATOM     17  H3* UNL     1       8.392   4.599  15.514  0.00  0.00    +0.000 HD
ENDBRANCH  13  16
BRANCH  14  18
ATOM     18  C5* UNL     1       8.029   6.038  19.078  0.00  0.00    +0.000 C 
BRANCH  18  19
ATOM     19  O5* UNL     1       8.072   5.452  20.377  0.00  0.00    +0.000 OA
ATOM     20  H5* UNL     1       8.096   6.186  21.019  0.00  0.00    +0.000 HD
ENDBRANCH  18  19
ENDBRANCH  14  18
ENDBRANCH  10  11
TORSDOF 4
ENDMDL
MODEL 3
REMARK VINA RESULT:      -6.9      1.990      2.376
REMARK  Name = 
REMARK  4 active torsions:
REMARK  status: ('A' for Active; 'I' for Inactive)
REMARK    1  A    between atoms: N_10  and  C1*_11
REMARK    2  A    between atoms: C3*_13  and  O3*_14
REMARK    3  A    between atoms: C4*_15  and  C5*_16
REMARK    4  A    between atoms: C5*_16  and  O5*_17
REMARK                            x       y       z     vdW  Elec       q    Type
REMARK                         _______ _______ _______ _____ _____    ______ ____
ROOT
ATOM      1  O   UNL     1       7.357   5.454  14.893  0.00  0.00    +0.000 OA
ATOM      2  N   UNL     1       6.358   5.412  15.675  0.00  0.00    +0.000 N 
ATOM      3  C   UNL     1       5.901   4.191  16.156  0.00  0.00    +0.000 A 
ATOM      4  C   UNL     1       4.807   4.075  17.022  0.00  0.00    +0.000 A 
ATOM      5  C   UNL     1       4.182   5.270  17.380  0.00  0.00    +0.000 A 
ATOM      6  C   UNL     1       4.621   6.508  16.912  0.00  0.00    +0.000 A 
ATOM      7  C   UNL     1       5.713   6.552  16.059  0.00  0.00    +0.000 A 
ATOM      8  N   UNL     1       3.853   7.527  17.410  0.00  0.00    +0.000 NA
ATOM      9  C   UNL     1       2.950   6.940  18.162  0.00  0.00    +0.000 A 
ATOM     10  N   UNL     1       3.107   5.581  18.185  0.00  0.00    +0.000 N 
ENDROOT
BRANCH  10  11
ATOM     11  C1* UNL     1       2.302   4.647  18.949  0.00  0.00    +0.000 C 
ATOM     12  C2* UNL     1       1.487   3.698  18.086  0.00  0.00    +0.000 C 
ATOM     13  C3* UNL     1       1.327   2.503  18.997  0.00  0.00    +0.000 C 
ATOM     14  C4* UNL     1       2.636   2.476  19.785  0.00  0.00    +0.000 C 
ATOM     15  O4* UNL     1       3.154   3.831  19.778  0.00  0.00    +0.000 OA
BRANCH  13  16
ATOM     16  O3* UNL     1       0.199   2.737  19.843  0.00  0.00    +0.000 OA
ATOM     17  H3* UNL     1      -0.064   3.673  19.795  0.00  0.00    +0.000 HD
ENDBRANCH  13  16
BRANCH  14  18
ATOM     18  C5* UNL     1       3.682   1.553  19.154  0.00  0.00    +0.000 C 
BRANCH  18  19
ATOM     19  O5* UNL     1       4.935   1.696  19.820  0.00  0.00    +0.000 OA
ATOM     20  H5* UNL     1       5.511   2.220  19.232  0.00  0.00    +0.000 HD
ENDBRANCH  18  19
ENDBRANCH  14  18
ENDBRANCH  10  11
TORSDOF 4
ENDMDL
MODEL 4
REMARK VINA RESULT:      -6.8      1.707      2.681
REMARK  Name = 
REMARK  4 active torsions:
REMARK  status: ('A' for Active; 'I' for Inactive)
REMARK    1  A    between atoms: N_10  and  C1*_11
REMARK    2  A    between atoms: C3*_13  and  O3*_14
REMARK    3  A    between atoms: C4*_15  and  C5*_16
REMARK    4  A    between atoms: C5*_16  and  O5*_17
REMARK                            x       y       z     vdW  Elec       q    Type
REMARK                         _______ _______ _______ _____ _____    ______ ____
ROOT
ATOM      1  O   UNL     1       7.432   5.704  14.958  0.00  0.00    +0.000 OA
ATOM      2  N   UNL     1       6.578   5.570  15.888  0.00  0.00    +0.000 N 
ATOM      3  C   UNL     1       6.578   4.425  16.675  0.00  0.00    +0.000 A 
ATOM      4  C   UNL     1       5.666   4.216  17.716  0.00  0.00    +0.000 A 
ATOM      5  C   UNL     1       4.733   5.233  17.924  0.00  0.00    +0.000 A 
ATOM      6  C   UNL     1       4.711   6.391  17.149  0.00  0.00    +0.000 A 
ATOM      7  C   UNL     1       5.646   6.536  16.135  0.00  0.00    +0.000 A 
ATOM      8  N   UNL     1       3.713   7.239  17.552  0.00  0.00    +0.000 NA
ATOM      9  C   UNL     1       3.119   6.620  18.546  0.00  0.00    +0.000 A 
ATOM     10  N   UNL     1       3.698   5.410  18.816  0.00  0.00    +0.000 N 
ENDROOT
BRANCH  10  11
ATOM     11  C1* UNL     1       3.307   4.501  19.877  0.00  0.00    +0.000 C 
ATOM     12  C2* UNL     1       1.946   4.814  20.476  0.00  0.00    +0.000 C 
ATOM     13  C3* UNL     1       1.506   3.460  20.984  0.00  0.00    +0.000 C 
ATOM     14  C4* UNL     1       2.099   2.486  19.966  0.00  0.00    +0.000 C 
ATOM     15  O4* UNL     1       3.238   3.154  19.367  0.00  0.00    +0.000 OA
BRANCH  13  16
ATOM     16  O3* UNL     1       2.061   3.273  22.287  0.00  0.00    +0.000 OA
ATOM     17  H3* UNL     1       2.415   2.370  22.372  0.00  0.00    +0.000 HD
ENDBRANCH  13  16
BRANCH  14  18
ATOM     18  C5* UNL     1       1.109   2.125  18.855  0.00  0.00    +0.000 C 
BRANCH  18  19
ATOM     19  O5* UNL     1       1.802   1.898  17.629  0.00  0.00    +0.000 OA
ATOM     20  H5* UNL     1       1.846   2.755  17.165  0.00  0.00    +0.000 HD
ENDBRANCH  18  19
ENDBRANCH  14  18
ENDBRANCH  10  11
TORSDOF 4
ENDMDL
MODEL 5
REMARK VINA RESULT:      -6.7      2.360      6.368
REMARK  Name = 
REMARK  4 active torsions:
REMARK  status: ('A' for Active; 'I' for Inactive)
REMARK    1  A    between atoms: N_10  and  C1*_11
REMARK    2  A    between atoms: C3*_13  and  O3*_14
REMARK    3  A    between atoms: C4*_15  and  C5*_16
REMARK    4  A    between atoms: C5*_16  and  O5*_17
REMARK                            x       y       z     vdW  Elec       q    Type
REMARK                         _______ _______ _______ _____ _____    ______ ____
ROOT
ATOM      1  O   UNL     1       1.231   2.618  22.260  0.00  0.00    +0.000 OA
ATOM      2  N   UNL     1       1.964   3.146  21.367  0.00  0.00    +0.000 N 
ATOM      3  C   UNL     1       3.086   2.473  20.901  0.00  0.00    +0.000 A 
ATOM      4  C   UNL     1       3.934   2.997  19.917  0.00  0.00    +0.000 A 
ATOM      5  C   UNL     1       3.592   4.257  19.423  0.00  0.00    +0.000 A 
ATOM      6  C   UNL     1       2.471   4.952  19.875  0.00  0.00    +0.000 A 
ATOM      7  C   UNL     1       1.672   4.374  20.849  0.00  0.00    +0.000 A 
ATOM      8  N   UNL     1       2.343   6.157  19.235  0.00  0.00    +0.000 NA
ATOM      9  C   UNL     1       3.366   6.217  18.413  0.00  0.00    +0.000 A 
ATOM     10  N   UNL     1       4.146   5.096  18.481  0.00  0.00    +0.000 N 
ENDROOT
BRANCH  10  11
ATOM     11  C1* UNL     1       5.323   4.831  17.676  0.00  0.00    +0.000 C 
ATOM     12  C2* UNL     1       5.446   5.736  16.462  0.00  0.00    +0.000 C 
ATOM     13  C3* UNL     1       6.939   5.751  16.230  0.00  0.00    +0.000 C 
ATOM     14  C4* UNL     1       7.522   5.662  17.639  0.00  0.00    +0.000 C 
ATOM     15  O4* UNL     1       6.512   5.030  18.467  0.00  0.00    +0.000 OA
BRANCH  13  16
ATOM     16  O3* UNL     1       7.277   4.609  15.439  0.00  0.00    +0.000 OA
ATOM     17  H3* UNL     1       8.189   4.691  15.108  0.00  0.00    +0.000 HD
ENDBRANCH  13  16
BRANCH  14  18
ATOM     18  C5* UNL     1       7.842   7.038  18.230  0.00  0.00    +0.000 C 
BRANCH  18  19
ATOM     19  O5* UNL     1       7.859   8.026  17.202  0.00  0.00    +0.000 OA
ATOM     20  H5* UNL     1       6.933   8.170  16.931  0.00  0.00    +0.000 HD
ENDBRANCH  18  19
ENDBRANCH  14  18
ENDBRANCH  10  11
TORSDOF 4
ENDMDL
MODEL 6
REMARK VINA RESULT:      -6.7      2.515      5.909
REMARK  Name = 
REMARK  4 active torsions:
REMARK  status: ('A' for Active; 'I' for Inactive)
REMARK    1  A    between atoms: N_10  and  C1*_11
REMARK    2  A    between atoms: C3*_13  and  O3*_14
REMARK    3  A    between atoms: C4*_15  and  C5*_16
REMARK    4  A    between atoms: C5*_16  and  O5*_17
REMARK                            x       y       z     vdW  Elec       q    Type
REMARK                         _______ _______ _______ _____ _____    ______ ____
ROOT
ATOM      1  O   UNL     1      -0.008   1.828  19.054  0.00  0.00    +0.000 OA
ATOM      2  N   UNL     1       1.013   2.555  18.851  0.00  0.00    +0.000 N 
ATOM      3  C   UNL     1       2.016   2.122  17.993  0.00  0.00    +0.000 A 
ATOM      4  C   UNL     1       3.166   2.875  17.724  0.00  0.00    +0.000 A 
ATOM      5  C   UNL     1       3.258   4.104  18.379  0.00  0.00    +0.000 A 
ATOM      6  C   UNL     1       2.265   4.561  19.245  0.00  0.00    +0.000 A 
ATOM      7  C   UNL     1       1.151   3.766  19.464  0.00  0.00    +0.000 A 
ATOM      8  N   UNL     1       2.580   5.793  19.754  0.00  0.00    +0.000 NA
ATOM      9  C   UNL     1       3.746   6.093  19.230  0.00  0.00    +0.000 A 
ATOM     10  N   UNL     1       4.196   5.113  18.388  0.00  0.00    +0.000 N 
ENDROOT
BRANCH  10  11
ATOM     11  C1* UNL     1       5.427   5.154  17.620  0.00  0.00    +0.000 C 
ATOM     12  C2* UNL     1       5.815   6.552  17.168  0.00  0.00    +0.000 C 
ATOM     13  C3* UNL     1       7.316   6.435  17.038  0.00  0.00    +0.000 C 
ATOM     14  C4* UNL     1       7.697   5.458  18.150  0.00  0.00    +0.000 C 
ATOM     15  O4* UNL     1       6.519   4.655  18.419  0.00  0.00    +0.000 OA
BRANCH  13  16
ATOM     16  O3* UNL     1       7.611   5.910  15.742  0.00  0.00    +0.000 OA
ATOM     17  H3* UNL     1       6.784   5.739  15.256  0.00  0.00    +0.000 HD
ENDBRANCH  13  16
BRANCH  14  18
ATOM     18  C5* UNL     1       8.104   6.170  19.443  0.00  0.00    +0.000 C 
BRANCH  18  19
ATOM     19  O5* UNL     1       8.017   5.275  20.549  0.00  0.00    +0.000 OA
ATOM     20  H5* UNL     1       8.931   5.037  20.795  0.00  0.00    +0.000 HD
ENDBRANCH  18  19
ENDBRANCH  14  18
ENDBRANCH  10  11
TORSDOF 4
ENDMDL
MODEL 7
REMARK VINA RESULT:      -6.7      1.723      1.916
REMARK  Name = 
REMARK  4 active torsions:
REMARK  status: ('A' for Active; 'I' for Inactive)
REMARK    1  A    between atoms: N_10  and  C1*_11
REMARK    2  A    between atoms: C3*_13  and  O3*_14
REMARK    3  A    between atoms: C4*_15  and  C5*_16
REMARK    4  A    between atoms: C5*_16  and  O5*_17
REMARK                            x       y       z     vdW  Elec       q    Type
REMARK                         _______ _______ _______ _____ _____    ______ ____
ROOT
ATOM      1  O   UNL     1       7.639   5.672  15.516  0.00  0.00    +0.000 OA
ATOM      2  N   UNL     1       6.498   5.520  16.052  0.00  0.00    +0.000 N 
ATOM      3  C   UNL     1       5.898   4.267  16.069  0.00  0.00    +0.000 A 
ATOM      4  C   UNL     1       4.644   4.029  16.645  0.00  0.00    +0.000 A 
ATOM      5  C   UNL     1       4.010   5.139  17.206  0.00  0.00    +0.000 A 
ATOM      6  C   UNL     1       4.590   6.407  17.202  0.00  0.00    +0.000 A 
ATOM      7  C   UNL     1       5.836   6.571  16.618  0.00  0.00    +0.000 A 
ATOM      8  N   UNL     1       3.781   7.325  17.818  0.00  0.00    +0.000 NA
ATOM      9  C   UNL     1       2.716   6.649  18.187  0.00  0.00    +0.000 A 
ATOM     10  N   UNL     1       2.806   5.326  17.849  0.00  0.00    +0.000 N 
ENDROOT
BRANCH  10  11
ATOM     11  C1* UNL     1       1.820   4.305  18.150  0.00  0.00    +0.000 C 
ATOM     12  C2* UNL     1       2.402   2.904  18.234  0.00  0.00    +0.000 C 
ATOM     13  C3* UNL     1       1.429   2.215  19.163  0.00  0.00    +0.000 C 
ATOM     14  C4* UNL     1       1.004   3.325  20.124  0.00  0.00    +0.000 C 
ATOM     15  O4* UNL     1       1.204   4.579  19.425  0.00  0.00    +0.000 OA
BRANCH  13  16
ATOM     16  O3* UNL     1       0.333   1.736  18.383  0.00  0.00    +0.000 OA
ATOM     17  H3* UNL     1      -0.417   2.354  18.447  0.00  0.00    +0.000 HD
ENDBRANCH  13  16
BRANCH  14  18
ATOM     18  C5* UNL     1       1.843   3.345  21.405  0.00  0.00    +0.000 C 
BRANCH  18  19
ATOM     19  O5* UNL     1       2.466   4.617  21.569  0.00  0.00    +0.000 OA
ATOM     20  H5* UNL     1       1.763   5.289  21.501  0.00  0.00    +0.000 HD
ENDBRANCH  18  19
ENDBRANCH  14  18
ENDBRANCH  10  11
TORSDOF 4
ENDMDL
MODEL 8
REMARK VINA RESULT:      -6.6      1.198      1.204
REMARK  Name = 
REMARK  4 active torsions:
REMARK  status: ('A' for Active; 'I' for Inactive)
REMARK    1  A    between atoms: N_10  and  C1*_11
REMARK    2  A    between atoms: C3*_13  and  O3*_14
REMARK    3  A    between atoms: C4*_15  and  C5*_16
REMARK    4  A    between atoms: C5*_16  and  O5*_17
REMARK                            x       y       z     vdW  Elec       q    Type
REMARK                         _______ _______ _______ _____ _____    ______ ____
ROOT
ATOM      1  O   UNL     1       7.966   5.362  14.221  0.00  0.00    +0.000 OA
ATOM      2  N   UNL     1       6.973   5.190  14.994  0.00  0.00    +0.000 N 
ATOM      3  C   UNL     1       6.214   4.030  14.905  0.00  0.00    +0.000 A 
ATOM      4  C   UNL     1       5.109   3.778  15.727  0.00  0.00    +0.000 A 
ATOM      5  C   UNL     1       4.799   4.773  16.655  0.00  0.00    +0.000 A 
ATOM      6  C   UNL     1       5.544   5.946  16.764  0.00  0.00    +0.000 A 
ATOM      7  C   UNL     1       6.629   6.131  15.921  0.00  0.00    +0.000 A 
ATOM      8  N   UNL     1       5.049   6.759  17.750  0.00  0.00    +0.000 NA
ATOM      9  C   UNL     1       4.013   6.115  18.236  0.00  0.00    +0.000 A 
ATOM     10  N   UNL     1       3.822   4.910  17.617  0.00  0.00    +0.000 N 
ENDROOT
BRANCH  10  11
ATOM     11  C1* UNL     1       2.793   3.941  17.946  0.00  0.00    +0.000 C 
ATOM     12  C2* UNL     1       3.323   2.710  18.662  0.00  0.00    +0.000 C 
ATOM     13  C3* UNL     1       2.113   2.256  19.446  0.00  0.00    +0.000 C 
ATOM     14  C4* UNL     1       1.411   3.564  19.810  0.00  0.00    +0.000 C 
ATOM     15  O4* UNL     1       1.815   4.543  18.818  0.00  0.00    +0.000 OA
BRANCH  13  16
ATOM     16  O3* UNL     1       1.309   1.440  18.591  0.00  0.00    +0.000 OA
ATOM     17  H3* UNL     1       1.866   0.781  18.141  0.00  0.00    +0.000 HD
ENDBRANCH  13  16
BRANCH  14  18
ATOM     18  C5* UNL     1       1.816   4.081  21.194  0.00  0.00    +0.000 C 
BRANCH  18  19
ATOM     19  O5* UNL     1       2.258   3.003  22.015  0.00  0.00    +0.000 OA
ATOM     20  H5* UNL     1       2.794   2.416  21.450  0.00  0.00    +0.000 HD
ENDBRANCH  18  19
ENDBRANCH  14  18
ENDBRANCH  10  11
TORSDOF 4
ENDMDL
MODEL 9
REMARK VINA RESULT:      -6.6      1.625      2.414
REMARK  Name = 
REMARK  4 active torsions:
REMARK  status: ('A' for Active; 'I' for Inactive)
REMARK    1  A    between atoms: N_10  and  C1*_11
REMARK    2  A    between atoms: C3*_13  and  O3*_14
REMARK    3  A    between atoms: C4*_15  and  C5*_16
REMARK    4  A    between atoms: C5*_16  and  O5*_17
REMARK                            x       y       z     vdW  Elec       q    Type
REMARK                         _______ _______ _______ _____ _____    ______ ____
ROOT
ATOM      1  O   UNL     1       6.865   4.442  13.337  0.00  0.00    +0.000 OA
ATOM      2  N   UNL     1       6.568   4.510  14.570  0.00  0.00    +0.000 N 
ATOM      3  C   UNL     1       5.393   3.934  15.036  0.00  0.00    +0.000 A 
ATOM      4  C   UNL     1       5.009   3.971  16.382  0.00  0.00    +0.000 A 
ATOM      5  C   UNL     1       5.879   4.635  17.248  0.00  0.00    +0.000 A 
ATOM      6  C   UNL     1       7.064   5.221  16.805  0.00  0.00    +0.000 A 
ATOM      7  C   UNL     1       7.386   5.145  15.459  0.00  0.00    +0.000 A 
ATOM      8  N   UNL     1       7.748   5.801  17.841  0.00  0.00    +0.000 NA
ATOM      9  C   UNL     1       7.003   5.593  18.902  0.00  0.00    +0.000 A 
ATOM     10  N   UNL     1       5.869   4.889  18.602  0.00  0.00    +0.000 N 
ENDROOT
BRANCH  10  11
ATOM     11  C1* UNL     1       4.860   4.460  19.553  0.00  0.00    +0.000 C 
ATOM     12  C2* UNL     1       3.451   4.889  19.178  0.00  0.00    +0.000 C 
ATOM     13  C3* UNL     1       2.610   3.829  19.851  0.00  0.00    +0.000 C 
ATOM     14  C4* UNL     1       3.474   2.572  19.755  0.00  0.00    +0.000 C 
ATOM     15  O4* UNL     1       4.849   3.021  19.640  0.00  0.00    +0.000 OA
BRANCH  13  16
ATOM     16  O3* UNL     1       2.394   4.226  21.207  0.00  0.00    +0.000 OA
ATOM     17  H3* UNL     1       3.047   3.796  21.788  0.00  0.00    +0.000 HD
ENDBRANCH  13  16
BRANCH  14  18
ATOM     18  C5* UNL     1       3.138   1.721  18.527  0.00  0.00    +0.000 C 
BRANCH  18  19
ATOM     19  O5* UNL     1       4.085   0.664  18.383  0.00  0.00    +0.000 OA
ATOM     20  H5* UNL     1       3.578  -0.146  18.188  0.00  0.00    +0.000 HD
ENDBRANCH  18  19
ENDBRANCH  14  18
ENDBRANCH  10  11
TORSDOF 4
ENDMDL
