MODEL 1
REMARK VINA RESULT:      -7.0      0.000      0.000
REMARK  Name = 
REMARK  9 active torsions:
REMARK  status: ('A' for Active; 'I' for Inactive)
REMARK    1  A    between atoms: N_1  and  C_2
REMARK    2  A    between atoms: C_2  and  C_3
REMARK    3  A    between atoms: C_2  and  C_20
REMARK    4  A    between atoms: C_3  and  C_4
REMARK    5  A    between atoms: C_4  and  N_5
REMARK    6  A    between atoms: C_9  and  C_10
REMARK    7  A    between atoms: C_10  and  N_11
REMARK    8  A    between atoms: C_12  and  C_14
REMARK    9  A    between atoms: C_20  and  C_21
REMARK                            x       y       z     vdW  Elec       q    Type
REMARK                         _______ _______ _______ _____ _____    ______ ____
ROOT
ATOM      1  N   UNL     1       6.868   4.675  16.008  0.00  0.00    +0.000 NA
ATOM      2  C   UNL     1       7.597   4.845  14.751  0.00  0.00    +0.000 C 
ATOM      3  C   UNL     1       6.536   5.032  13.686  0.00  0.00    +0.000 C 
ATOM      4  C   UNL     1       5.402   4.151  14.176  0.00  0.00    +0.000 C 
ATOM      5  C   UNL     1       5.502   4.206  15.705  0.00  0.00    +0.000 C 
ENDROOT
BRANCH   1   6
ATOM      6  C   UNL     1       6.896   5.830  16.914  0.00  0.00    +0.000 C 
BRANCH   6   7
ATOM      7  C   UNL     1       5.637   6.711  16.899  0.00  0.00    +0.000 C 
BRANCH   7   8
ATOM      8  C   UNL     1       4.817   6.662  18.204  0.00  0.00    +0.000 C 
BRANCH   8   9
ATOM      9  N   UNL     1       5.342   5.540  19.005  0.00  0.00    +0.000 NA
ATOM     10  H   UNL     1       6.202   5.194  18.579  0.00  0.00    +0.000 HD
ATOM     11  H   UNL     1       4.683   4.763  18.983  0.00  0.00    +0.000 HD
ENDBRANCH   8   9
BRANCH   8  12
ATOM     12  C   UNL     1       3.308   6.487  17.923  0.00  0.00    +0.000 C 
BRANCH  12  13
ATOM     13  C   UNL     1       2.415   7.532  18.542  0.00  0.00    +0.000 A 
ATOM     14  C   UNL     1       1.991   8.642  17.798  0.00  0.00    +0.000 A 
ATOM     15  C   UNL     1       1.220   9.641  18.395  0.00  0.00    +0.000 A 
ATOM     16  C   UNL     1       0.860   9.539  19.739  0.00  0.00    +0.000 A 
ATOM     17  C   UNL     1       1.251   8.425  20.480  0.00  0.00    +0.000 A 
ATOM     18  C   UNL     1       2.015   7.431  19.877  0.00  0.00    +0.000 A 
ATOM     19  F   UNL     1       2.390   6.371  20.608  0.00  0.00    +0.000 F 
ENDBRANCH  12  13
ENDBRANCH   8  12
ENDBRANCH   7   8
ENDBRANCH   6   7
ENDBRANCH   1   6
BRANCH   5  20
ATOM     20  C   UNL     1       5.293   2.835  16.369  0.00  0.00    +0.000 C 
BRANCH  20  21
ATOM     21  N   UNL     1       4.549   2.909  17.608  0.00  0.00    +0.000 N 
ATOM     22  C   UNL     1       3.174   2.994  17.630  0.00  0.00    +0.000 C 
ATOM     23  O   UNL     1       2.471   2.960  16.630  0.00  0.00    +0.000 OA
ATOM     24  H   UNL     1       5.048   2.721  18.465  0.00  0.00    +0.000 HD
BRANCH  22  25
ATOM     25  C   UNL     1       2.568   3.088  18.984  0.00  0.00    +0.000 A 
ATOM     26  C   UNL     1       3.283   2.711  20.130  0.00  0.00    +0.000 A 
ATOM     27  C   UNL     1       2.679   2.782  21.385  0.00  0.00    +0.000 A 
ATOM     28  C   UNL     1       1.368   3.241  21.498  0.00  0.00    +0.000 A 
ATOM     29  C   UNL     1       0.662   3.644  20.364  0.00  0.00    +0.000 A 
ATOM     30  C   UNL     1       1.264   3.574  19.108  0.00  0.00    +0.000 A 
ENDBRANCH  22  25
ENDBRANCH  20  21
ENDBRANCH   5  20
TORSDOF 9
ENDMDL
MODEL 2
REMARK VINA RESULT:      -6.9      4.874      6.019
REMARK  Name = 
REMARK  9 active torsions:
REMARK  status: ('A' for Active; 'I' for Inactive)
REMARK    1  A    between atoms: N_1  and  C_2
REMARK    2  A    between atoms: C_2  and  C_3
REMARK    3  A    between atoms: C_2  and  C_20
REMARK    4  A    between atoms: C_3  and  C_4
REMARK    5  A    between atoms: C_4  and  N_5
REMARK    6  A    between atoms: C_9  and  C_10
REMARK    7  A    between atoms: C_10  and  N_11
REMARK    8  A    between atoms: C_12  and  C_14
REMARK    9  A    between atoms: C_20  and  C_21
REMARK                            x       y       z     vdW  Elec       q    Type
REMARK                         _______ _______ _______ _____ _____    ______ ____
ROOT
ATOM      1  N   UNL     1       6.854   6.346  17.946  0.00  0.00    +0.000 NA
ATOM      2  C   UNL     1       7.244   4.939  17.867  0.00  0.00    +0.000 C 
ATOM      3  C   UNL     1       7.203   4.586  16.394  0.00  0.00    +0.000 C 
ATOM      4  C   UNL     1       6.052   5.426  15.875  0.00  0.00    +0.000 C 
ATOM      5  C   UNL     1       6.074   6.691  16.741  0.00  0.00    +0.000 C 
ENDROOT
BRANCH   1   6
ATOM      6  C   UNL     1       7.945   7.289  18.217  0.00  0.00    +0.000 C 
BRANCH   6   7
ATOM      7  C   UNL     1       7.725   8.720  17.702  0.00  0.00    +0.000 C 
BRANCH   7   8
ATOM      8  C   UNL     1       8.794   9.730  18.166  0.00  0.00    +0.000 C 
BRANCH   8   9
ATOM      9  N   UNL     1       9.026   9.486  19.603  0.00  0.00    +0.000 NA
ATOM     10  H   UNL     1       9.607  10.234  19.983  0.00  0.00    +0.000 HD
ATOM     11  H   UNL     1       9.558   8.626  19.724  0.00  0.00    +0.000 HD
ENDBRANCH   8   9
BRANCH   8  12
ATOM     12  C   UNL     1       8.350  11.187  17.913  0.00  0.00    +0.000 C 
BRANCH  12  13
ATOM     13  C   UNL     1       9.469  12.193  17.822  0.00  0.00    +0.000 A 
ATOM     14  C   UNL     1      10.792  11.773  17.627  0.00  0.00    +0.000 A 
ATOM     15  C   UNL     1      11.835  12.703  17.611  0.00  0.00    +0.000 A 
ATOM     16  C   UNL     1      11.565  14.060  17.785  0.00  0.00    +0.000 A 
ATOM     17  C   UNL     1      10.249  14.491  17.950  0.00  0.00    +0.000 A 
ATOM     18  C   UNL     1       9.216  13.560  17.960  0.00  0.00    +0.000 A 
ATOM     19  F   UNL     1       7.958  13.992  18.131  0.00  0.00    +0.000 F 
ENDBRANCH  12  13
ENDBRANCH   8  12
ENDBRANCH   7   8
ENDBRANCH   6   7
ENDBRANCH   1   6
BRANCH   5  20
ATOM     20  C   UNL     1       4.670   7.144  17.175  0.00  0.00    +0.000 C 
BRANCH  20  21
ATOM     21  N   UNL     1       3.836   6.054  17.633  0.00  0.00    +0.000 N 
ATOM     22  C   UNL     1       2.970   6.194  18.694  0.00  0.00    +0.000 C 
ATOM     23  O   UNL     1       2.792   7.243  19.298  0.00  0.00    +0.000 OA
ATOM     24  H   UNL     1       3.772   5.235  17.045  0.00  0.00    +0.000 HD
BRANCH  22  25
ATOM     25  C   UNL     1       2.205   4.971  19.052  0.00  0.00    +0.000 A 
ATOM     26  C   UNL     1       1.749   4.754  20.360  0.00  0.00    +0.000 A 
ATOM     27  C   UNL     1       1.060   3.583  20.675  0.00  0.00    +0.000 A 
ATOM     28  C   UNL     1       0.814   2.635  19.681  0.00  0.00    +0.000 A 
ATOM     29  C   UNL     1       1.242   2.859  18.372  0.00  0.00    +0.000 A 
ATOM     30  C   UNL     1       1.931   4.030  18.056  0.00  0.00    +0.000 A 
ENDBRANCH  22  25
ENDBRANCH  20  21
ENDBRANCH   5  20
TORSDOF 9
ENDMDL
MODEL 3
REMARK VINA RESULT:      -6.8      2.654      7.090
REMARK  Name = 
REMARK  9 active torsions:
REMARK  status: ('A' for Active; 'I' for Inactive)
REMARK    1  A    between atoms: N_1  and  C_2
REMARK    2  A    between atoms: C_2  and  C_3
REMARK    3  A    between atoms: C_2  and  C_20
REMARK    4  A    between atoms: C_3  and  C_4
REMARK    5  A    between atoms: C_4  and  N_5
REMARK    6  A    between atoms: C_9  and  C_10
REMARK    7  A    between atoms: C_10  and  N_11
REMARK    8  A    between atoms: C_12  and  C_14
REMARK    9  A    between atoms: C_20  and  C_21
REMARK                            x       y       z     vdW  Elec       q    Type
REMARK                         _______ _______ _______ _____ _____    ______ ____
ROOT
ATOM      1  N   UNL     1       3.095   3.581  19.309  0.00  0.00    +0.000 NA
ATOM      2  C   UNL     1       2.890   2.633  20.404  0.00  0.00    +0.000 C 
ATOM      3  C   UNL     1       1.435   2.774  20.800  0.00  0.00    +0.000 C 
ATOM      4  C   UNL     1       1.162   4.249  20.574  0.00  0.00    +0.000 C 
ATOM      5  C   UNL     1       2.062   4.632  19.393  0.00  0.00    +0.000 C 
ENDROOT
BRANCH   1   6
ATOM      6  C   UNL     1       3.206   2.986  17.972  0.00  0.00    +0.000 C 
BRANCH   6   7
ATOM      7  C   UNL     1       3.628   3.950  16.852  0.00  0.00    +0.000 C 
BRANCH   7   8
ATOM      8  C   UNL     1       5.130   3.905  16.512  0.00  0.00    +0.000 C 
BRANCH   8   9
ATOM      9  N   UNL     1       5.868   4.040  17.783  0.00  0.00    +0.000 NA
ATOM     10  H   UNL     1       6.443   4.881  17.753  0.00  0.00    +0.000 HD
ATOM     11  H   UNL     1       6.514   3.259  17.890  0.00  0.00    +0.000 HD
ENDBRANCH   8   9
BRANCH   8  12
ATOM     12  C   UNL     1       5.524   5.022  15.520  0.00  0.00    +0.000 C 
BRANCH  12  13
ATOM     13  C   UNL     1       5.941   4.547  14.151  0.00  0.00    +0.000 A 
ATOM     14  C   UNL     1       5.097   3.725  13.392  0.00  0.00    +0.000 A 
ATOM     15  C   UNL     1       5.516   3.231  12.155  0.00  0.00    +0.000 A 
ATOM     16  C   UNL     1       6.778   3.558  11.661  0.00  0.00    +0.000 A 
ATOM     17  C   UNL     1       7.614   4.399  12.395  0.00  0.00    +0.000 A 
ATOM     18  C   UNL     1       7.189   4.890  13.625  0.00  0.00    +0.000 A 
ATOM     19  F   UNL     1       8.010   5.690  14.321  0.00  0.00    +0.000 F 
ENDBRANCH  12  13
ENDBRANCH   8  12
ENDBRANCH   7   8
ENDBRANCH   6   7
ENDBRANCH   1   6
BRANCH   5  20
ATOM     20  C   UNL     1       2.756   5.991  19.585  0.00  0.00    +0.000 C 
BRANCH  20  21
ATOM     21  N   UNL     1       1.970   6.929  20.356  0.00  0.00    +0.000 N 
ATOM     22  C   UNL     1       1.679   8.192  19.891  0.00  0.00    +0.000 C 
ATOM     23  O   UNL     1       2.006   8.607  18.787  0.00  0.00    +0.000 OA
ATOM     24  H   UNL     1       1.488   6.577  21.171  0.00  0.00    +0.000 HD
BRANCH  22  25
ATOM     25  C   UNL     1       0.883   9.039  20.817  0.00  0.00    +0.000 A 
ATOM     26  C   UNL     1       0.138  10.130  20.348  0.00  0.00    +0.000 A 
ATOM     27  C   UNL     1      -0.576  10.926  21.244  0.00  0.00    +0.000 A 
ATOM     28  C   UNL     1      -0.556  10.626  22.606  0.00  0.00    +0.000 A 
ATOM     29  C   UNL     1       0.162   9.525  23.074  0.00  0.00    +0.000 A 
ATOM     30  C   UNL     1       0.876   8.728  22.180  0.00  0.00    +0.000 A 
ENDBRANCH  22  25
ENDBRANCH  20  21
ENDBRANCH   5  20
TORSDOF 9
ENDMDL
MODEL 4
REMARK VINA RESULT:      -6.7      4.449      7.394
REMARK  Name = 
REMARK  9 active torsions:
REMARK  status: ('A' for Active; 'I' for Inactive)
REMARK    1  A    between atoms: N_1  and  C_2
REMARK    2  A    between atoms: C_2  and  C_3
REMARK    3  A    between atoms: C_2  and  C_20
REMARK    4  A    between atoms: C_3  and  C_4
REMARK    5  A    between atoms: C_4  and  N_5
REMARK    6  A    between atoms: C_9  and  C_10
REMARK    7  A    between atoms: C_10  and  N_11
REMARK    8  A    between atoms: C_12  and  C_14
REMARK    9  A    between atoms: C_20  and  C_21
REMARK                            x       y       z     vdW  Elec       q    Type
REMARK                         _______ _______ _______ _____ _____    ______ ____
ROOT
ATOM      1  N   UNL     1       6.617   6.006  16.944  0.00  0.00    +0.000 NA
ATOM      2  C   UNL     1       7.437   4.817  17.175  0.00  0.00    +0.000 C 
ATOM      3  C   UNL     1       7.855   4.884  18.629  0.00  0.00    +0.000 C 
ATOM      4  C   UNL     1       8.007   6.374  18.872  0.00  0.00    +0.000 C 
ATOM      5  C   UNL     1       6.961   7.024  17.957  0.00  0.00    +0.000 C 
ENDROOT
BRANCH   1   6
ATOM      6  C   UNL     1       5.173   5.765  16.836  0.00  0.00    +0.000 C 
BRANCH   6   7
ATOM      7  C   UNL     1       4.273   6.880  17.390  0.00  0.00    +0.000 C 
BRANCH   7   8
ATOM      8  C   UNL     1       3.451   6.471  18.629  0.00  0.00    +0.000 C 
BRANCH   8   9
ATOM      9  N   UNL     1       4.259   5.492  19.381  0.00  0.00    +0.000 NA
ATOM     10  H   UNL     1       4.949   5.073  18.758  0.00  0.00    +0.000 HD
ATOM     11  H   UNL     1       3.664   4.727  19.699  0.00  0.00    +0.000 HD
ENDBRANCH   8   9
BRANCH   8  12
ATOM     12  C   UNL     1       2.082   5.876  18.233  0.00  0.00    +0.000 C 
BRANCH  12  13
ATOM     13  C   UNL     1       1.791   4.507  18.794  0.00  0.00    +0.000 A 
ATOM     14  C   UNL     1       1.280   4.360  20.091  0.00  0.00    +0.000 A 
ATOM     15  C   UNL     1       1.077   3.089  20.631  0.00  0.00    +0.000 A 
ATOM     16  C   UNL     1       1.375   1.953  19.880  0.00  0.00    +0.000 A 
ATOM     17  C   UNL     1       1.855   2.088  18.578  0.00  0.00    +0.000 A 
ATOM     18  C   UNL     1       2.052   3.357  18.045  0.00  0.00    +0.000 A 
ATOM     19  F   UNL     1       2.524   3.468  16.794  0.00  0.00    +0.000 F 
ENDBRANCH  12  13
ENDBRANCH   8  12
ENDBRANCH   7   8
ENDBRANCH   6   7
ENDBRANCH   1   6
BRANCH   5  20
ATOM     20  C   UNL     1       7.490   8.275  17.238  0.00  0.00    +0.000 C 
BRANCH  20  21
ATOM     21  N   UNL     1       8.463   9.012  18.015  0.00  0.00    +0.000 N 
ATOM     22  C   UNL     1       8.558  10.384  17.955  0.00  0.00    +0.000 C 
ATOM     23  O   UNL     1       7.810  11.093  17.295  0.00  0.00    +0.000 OA
ATOM     24  H   UNL     1       8.958   8.511  18.740  0.00  0.00    +0.000 HD
BRANCH  22  25
ATOM     25  C   UNL     1       9.627  10.982  18.797  0.00  0.00    +0.000 A 
ATOM     26  C   UNL     1      10.886  11.291  18.263  0.00  0.00    +0.000 A 
ATOM     27  C   UNL     1      11.881  11.823  19.083  0.00  0.00    +0.000 A 
ATOM     28  C   UNL     1      11.615  12.059  20.432  0.00  0.00    +0.000 A 
ATOM     29  C   UNL     1      10.355  11.779  20.961  0.00  0.00    +0.000 A 
ATOM     30  C   UNL     1       9.359  11.247  20.143  0.00  0.00    +0.000 A 
ENDBRANCH  22  25
ENDBRANCH  20  21
ENDBRANCH   5  20
TORSDOF 9
ENDMDL
MODEL 5
REMARK VINA RESULT:      -6.6      4.984      5.915
REMARK  Name = 
REMARK  9 active torsions:
REMARK  status: ('A' for Active; 'I' for Inactive)
REMARK    1  A    between atoms: N_1  and  C_2
REMARK    2  A    between atoms: C_2  and  C_3
REMARK    3  A    between atoms: C_2  and  C_20
REMARK    4  A    between atoms: C_3  and  C_4
REMARK    5  A    between atoms: C_4  and  N_5
REMARK    6  A    between atoms: C_9  and  C_10
REMARK    7  A    between atoms: C_10  and  N_11
REMARK    8  A    between atoms: C_12  and  C_14
REMARK    9  A    between atoms: C_20  and  C_21
REMARK                            x       y       z     vdW  Elec       q    Type
REMARK                         _______ _______ _______ _____ _____    ______ ____
ROOT
ATOM      1  N   UNL     1       7.047   6.379  18.112  0.00  0.00    +0.000 NA
ATOM      2  C   UNL     1       7.474   4.980  18.158  0.00  0.00    +0.000 C 
ATOM      3  C   UNL     1       7.522   4.520  16.716  0.00  0.00    +0.000 C 
ATOM      4  C   UNL     1       6.382   5.288  16.075  0.00  0.00    +0.000 C 
ATOM      5  C   UNL     1       6.327   6.613  16.845  0.00  0.00    +0.000 C 
ENDROOT
BRANCH   1   6
ATOM      6  C   UNL     1       8.099   7.368  18.370  0.00  0.00    +0.000 C 
BRANCH   6   7
ATOM      7  C   UNL     1       7.991   8.673  17.565  0.00  0.00    +0.000 C 
BRANCH   7   8
ATOM      8  C   UNL     1       8.183   9.951  18.405  0.00  0.00    +0.000 C 
BRANCH   8   9
ATOM      9  N   UNL     1       8.180  11.091  17.468  0.00  0.00    +0.000 NA
ATOM     10  H   UNL     1       7.600  10.863  16.661  0.00  0.00    +0.000 HD
ATOM     11  H   UNL     1       9.121  11.242  17.107  0.00  0.00    +0.000 HD
ENDBRANCH   8   9
BRANCH   8  12
ATOM     12  C   UNL     1       9.493   9.906  19.222  0.00  0.00    +0.000 C 
BRANCH  12  13
ATOM     13  C   UNL     1       9.858  11.190  19.922  0.00  0.00    +0.000 A 
ATOM     14  C   UNL     1       9.109  11.645  21.016  0.00  0.00    +0.000 A 
ATOM     15  C   UNL     1       9.408  12.869  21.619  0.00  0.00    +0.000 A 
ATOM     16  C   UNL     1      10.461  13.647  21.138  0.00  0.00    +0.000 A 
ATOM     17  C   UNL     1      11.230  13.190  20.070  0.00  0.00    +0.000 A 
ATOM     18  C   UNL     1      10.929  11.968  19.477  0.00  0.00    +0.000 A 
ATOM     19  F   UNL     1      11.675  11.550  18.443  0.00  0.00    +0.000 F 
ENDBRANCH  12  13
ENDBRANCH   8  12
ENDBRANCH   7   8
ENDBRANCH   6   7
ENDBRANCH   1   6
BRANCH   5  20
ATOM     20  C   UNL     1       4.891   7.058  17.169  0.00  0.00    +0.000 C 
BRANCH  20  21
ATOM     21  N   UNL     1       4.084   6.004  17.744  0.00  0.00    +0.000 N 
ATOM     22  C   UNL     1       2.794   6.224  18.172  0.00  0.00    +0.000 C 
ATOM     23  O   UNL     1       2.208   7.292  18.059  0.00  0.00    +0.000 OA
ATOM     24  H   UNL     1       4.425   5.057  17.664  0.00  0.00    +0.000 HD
BRANCH  22  25
ATOM     25  C   UNL     1       2.113   5.042  18.762  0.00  0.00    +0.000 A 
ATOM     26  C   UNL     1       1.723   3.955  17.967  0.00  0.00    +0.000 A 
ATOM     27  C   UNL     1       1.058   2.871  18.542  0.00  0.00    +0.000 A 
ATOM     28  C   UNL     1       0.795   2.867  19.911  0.00  0.00    +0.000 A 
ATOM     29  C   UNL     1       1.205   3.935  20.711  0.00  0.00    +0.000 A 
ATOM     30  C   UNL     1       1.870   5.019  20.138  0.00  0.00    +0.000 A 
ENDBRANCH  22  25
ENDBRANCH  20  21
ENDBRANCH   5  20
TORSDOF 9
ENDMDL
MODEL 6
REMARK VINA RESULT:      -6.6      5.034      5.972
REMARK  Name = 
REMARK  9 active torsions:
REMARK  status: ('A' for Active; 'I' for Inactive)
REMARK    1  A    between atoms: N_1  and  C_2
REMARK    2  A    between atoms: C_2  and  C_3
REMARK    3  A    between atoms: C_2  and  C_20
REMARK    4  A    between atoms: C_3  and  C_4
REMARK    5  A    between atoms: C_4  and  N_5
REMARK    6  A    between atoms: C_9  and  C_10
REMARK    7  A    between atoms: C_10  and  N_11
REMARK    8  A    between atoms: C_12  and  C_14
REMARK    9  A    between atoms: C_20  and  C_21
REMARK                            x       y       z     vdW  Elec       q    Type
REMARK                         _______ _______ _______ _____ _____    ______ ____
ROOT
ATOM      1  N   UNL     1       6.956   6.917  17.790  0.00  0.00    +0.000 NA
ATOM      2  C   UNL     1       7.370   5.918  18.775  0.00  0.00    +0.000 C 
ATOM      3  C   UNL     1       7.838   4.722  17.971  0.00  0.00    +0.000 C 
ATOM      4  C   UNL     1       6.921   4.744  16.763  0.00  0.00    +0.000 C 
ATOM      5  C   UNL     1       6.628   6.230  16.526  0.00  0.00    +0.000 C 
ENDROOT
BRANCH   1   6
ATOM      6  C   UNL     1       7.877   8.046  17.613  0.00  0.00    +0.000 C 
BRANCH   6   7
ATOM      7  C   UNL     1       8.466   8.628  18.907  0.00  0.00    +0.000 C 
BRANCH   7   8
ATOM      8  C   UNL     1       9.261   9.934  18.708  0.00  0.00    +0.000 C 
BRANCH   8   9
ATOM      9  N   UNL     1       9.497  10.507  20.048  0.00  0.00    +0.000 NA
ATOM     10  H   UNL     1      10.427  10.241  20.370  0.00  0.00    +0.000 HD
ATOM     11  H   UNL     1       8.841  10.104  20.715  0.00  0.00    +0.000 HD
ENDBRANCH   8   9
BRANCH   8  12
ATOM     12  C   UNL     1       8.504  10.930  17.803  0.00  0.00    +0.000 C 
BRANCH  12  13
ATOM     13  C   UNL     1       9.022  12.346  17.833  0.00  0.00    +0.000 A 
ATOM     14  C   UNL     1       8.173  13.410  18.167  0.00  0.00    +0.000 A 
ATOM     15  C   UNL     1       8.639  14.726  18.126  0.00  0.00    +0.000 A 
ATOM     16  C   UNL     1       9.957  14.991  17.757  0.00  0.00    +0.000 A 
ATOM     17  C   UNL     1      10.818  13.938  17.452  0.00  0.00    +0.000 A 
ATOM     18  C   UNL     1      10.348  12.629  17.498  0.00  0.00    +0.000 A 
ATOM     19  F   UNL     1      11.188  11.629  17.192  0.00  0.00    +0.000 F 
ENDBRANCH  12  13
ENDBRANCH   8  12
ENDBRANCH   7   8
ENDBRANCH   6   7
ENDBRANCH   1   6
BRANCH   5  20
ATOM     20  C   UNL     1       5.154   6.504  16.184  0.00  0.00    +0.000 C 
BRANCH  20  21
ATOM     21  N   UNL     1       4.232   5.691  16.947  0.00  0.00    +0.000 N 
ATOM     22  C   UNL     1       3.356   6.240  17.856  0.00  0.00    +0.000 C 
ATOM     23  O   UNL     1       3.242   7.441  18.058  0.00  0.00    +0.000 OA
ATOM     24  H   UNL     1       4.121   4.726  16.671  0.00  0.00    +0.000 HD
BRANCH  22  25
ATOM     25  C   UNL     1       2.495   5.264  18.574  0.00  0.00    +0.000 A 
ATOM     26  C   UNL     1       2.130   5.462  19.913  0.00  0.00    +0.000 A 
ATOM     27  C   UNL     1       1.347   4.514  20.572  0.00  0.00    +0.000 A 
ATOM     28  C   UNL     1       0.917   3.376  19.890  0.00  0.00    +0.000 A 
ATOM     29  C   UNL     1       1.255   3.188  18.549  0.00  0.00    +0.000 A 
ATOM     30  C   UNL     1       2.038   4.135  17.889  0.00  0.00    +0.000 A 
ENDBRANCH  22  25
ENDBRANCH  20  21
ENDBRANCH   5  20
TORSDOF 9
ENDMDL
MODEL 7
REMARK VINA RESULT:      -6.6      5.216      6.207
REMARK  Name = 
REMARK  9 active torsions:
REMARK  status: ('A' for Active; 'I' for Inactive)
REMARK    1  A    between atoms: N_1  and  C_2
REMARK    2  A    between atoms: C_2  and  C_3
REMARK    3  A    between atoms: C_2  and  C_20
REMARK    4  A    between atoms: C_3  and  C_4
REMARK    5  A    between atoms: C_4  and  N_5
REMARK    6  A    between atoms: C_9  and  C_10
REMARK    7  A    between atoms: C_10  and  N_11
REMARK    8  A    between atoms: C_12  and  C_14
REMARK    9  A    between atoms: C_20  and  C_21
REMARK                            x       y       z     vdW  Elec       q    Type
REMARK                         _______ _______ _______ _____ _____    ______ ____
ROOT
ATOM      1  N   UNL     1       6.919   6.970  17.814  0.00  0.00    +0.000 NA
ATOM      2  C   UNL     1       7.404   6.009  18.805  0.00  0.00    +0.000 C 
ATOM      3  C   UNL     1       7.757   4.760  18.024  0.00  0.00    +0.000 C 
ATOM      4  C   UNL     1       6.724   4.750  16.913  0.00  0.00    +0.000 C 
ATOM      5  C   UNL     1       6.448   6.231  16.627  0.00  0.00    +0.000 C 
ENDROOT
BRANCH   1   6
ATOM      6  C   UNL     1       7.847   8.059  17.487  0.00  0.00    +0.000 C 
BRANCH   6   7
ATOM      7  C   UNL     1       8.681   8.593  18.662  0.00  0.00    +0.000 C 
BRANCH   7   8
ATOM      8  C   UNL     1       8.804  10.129  18.702  0.00  0.00    +0.000 C 
BRANCH   8   9
ATOM      9  N   UNL     1       7.950  10.662  17.623  0.00  0.00    +0.000 NA
ATOM     10  H   UNL     1       7.343   9.920  17.275  0.00  0.00    +0.000 HD
ATOM     11  H   UNL     1       8.529  10.947  16.835  0.00  0.00    +0.000 HD
ENDBRANCH   8   9
BRANCH   8  12
ATOM     12  C   UNL     1      10.268  10.589  18.530  0.00  0.00    +0.000 C 
BRANCH  12  13
ATOM     13  C   UNL     1      10.505  12.065  18.724  0.00  0.00    +0.000 A 
ATOM     14  C   UNL     1      10.512  12.937  17.626  0.00  0.00    +0.000 A 
ATOM     15  C   UNL     1      10.800  14.293  17.801  0.00  0.00    +0.000 A 
ATOM     16  C   UNL     1      11.077  14.791  19.074  0.00  0.00    +0.000 A 
ATOM     17  C   UNL     1      11.043  13.938  20.176  0.00  0.00    +0.000 A 
ATOM     18  C   UNL     1      10.752  12.589  19.995  0.00  0.00    +0.000 A 
ATOM     19  F   UNL     1      10.734  11.782  21.065  0.00  0.00    +0.000 F 
ENDBRANCH  12  13
ENDBRANCH   8  12
ENDBRANCH   7   8
ENDBRANCH   6   7
ENDBRANCH   1   6
BRANCH   5  20
ATOM     20  C   UNL     1       4.955   6.533  16.419  0.00  0.00    +0.000 C 
BRANCH  20  21
ATOM     21  N   UNL     1       4.085   5.632  17.143  0.00  0.00    +0.000 N 
ATOM     22  C   UNL     1       3.176   6.085  18.073  0.00  0.00    +0.000 C 
ATOM     23  O   UNL     1       2.988   7.267  18.326  0.00  0.00    +0.000 OA
ATOM     24  H   UNL     1       4.034   4.674  16.825  0.00  0.00    +0.000 HD
BRANCH  22  25
ATOM     25  C   UNL     1       2.378   5.027  18.745  0.00  0.00    +0.000 A 
ATOM     26  C   UNL     1       2.152   5.053  20.128  0.00  0.00    +0.000 A 
ATOM     27  C   UNL     1       1.424   4.031  20.738  0.00  0.00    +0.000 A 
ATOM     28  C   UNL     1       0.912   2.989  19.965  0.00  0.00    +0.000 A 
ATOM     29  C   UNL     1       1.111   2.973  18.583  0.00  0.00    +0.000 A 
ATOM     30  C   UNL     1       1.838   3.995  17.973  0.00  0.00    +0.000 A 
ENDBRANCH  22  25
ENDBRANCH  20  21
ENDBRANCH   5  20
TORSDOF 9
ENDMDL
MODEL 8
REMARK VINA RESULT:      -6.6      2.078      5.381
REMARK  Name = 
REMARK  9 active torsions:
REMARK  status: ('A' for Active; 'I' for Inactive)
REMARK    1  A    between atoms: N_1  and  C_2
REMARK    2  A    between atoms: C_2  and  C_3
REMARK    3  A    between atoms: C_2  and  C_20
REMARK    4  A    between atoms: C_3  and  C_4
REMARK    5  A    between atoms: C_4  and  N_5
REMARK    6  A    between atoms: C_9  and  C_10
REMARK    7  A    between atoms: C_10  and  N_11
REMARK    8  A    between atoms: C_12  and  C_14
REMARK    9  A    between atoms: C_20  and  C_21
REMARK                            x       y       z     vdW  Elec       q    Type
REMARK                         _______ _______ _______ _____ _____    ______ ____
ROOT
ATOM      1  N   UNL     1       3.830   3.398  17.626  0.00  0.00    +0.000 NA
ATOM      2  C   UNL     1       3.505   1.987  17.831  0.00  0.00    +0.000 C 
ATOM      3  C   UNL     1       3.543   1.773  19.330  0.00  0.00    +0.000 C 
ATOM      4  C   UNL     1       4.648   2.710  19.780  0.00  0.00    +0.000 C 
ATOM      5  C   UNL     1       4.578   3.888  18.800  0.00  0.00    +0.000 C 
ENDROOT
BRANCH   1   6
ATOM      6  C   UNL     1       2.700   4.259  17.260  0.00  0.00    +0.000 C 
BRANCH   6   7
ATOM      7  C   UNL     1       2.110   5.098  18.405  0.00  0.00    +0.000 C 
BRANCH   7   8
ATOM      8  C   UNL     1       2.340   6.615  18.261  0.00  0.00    +0.000 C 
BRANCH   8   9
ATOM      9  N   UNL     1       3.500   6.795  17.367  0.00  0.00    +0.000 NA
ATOM     10  H   UNL     1       3.362   6.243  16.520  0.00  0.00    +0.000 HD
ATOM     11  H   UNL     1       4.339   6.425  17.812  0.00  0.00    +0.000 HD
ENDBRANCH   8   9
BRANCH   8  12
ATOM     12  C   UNL     1       2.584   7.287  19.630  0.00  0.00    +0.000 C 
BRANCH  12  13
ATOM     13  C   UNL     1       1.562   8.322  20.028  0.00  0.00    +0.000 A 
ATOM     14  C   UNL     1       0.867   8.209  21.240  0.00  0.00    +0.000 A 
ATOM     15  C   UNL     1      -0.128   9.131  21.574  0.00  0.00    +0.000 A 
ATOM     16  C   UNL     1      -0.433  10.177  20.704  0.00  0.00    +0.000 A 
ATOM     17  C   UNL     1       0.273  10.315  19.509  0.00  0.00    +0.000 A 
ATOM     18  C   UNL     1       1.265   9.395  19.186  0.00  0.00    +0.000 A 
ATOM     19  F   UNL     1       1.927   9.538  18.028  0.00  0.00    +0.000 F 
ENDBRANCH  12  13
ENDBRANCH   8  12
ENDBRANCH   7   8
ENDBRANCH   6   7
ENDBRANCH   1   6
BRANCH   5  20
ATOM     20  C   UNL     1       5.964   4.366  18.338  0.00  0.00    +0.000 C 
BRANCH  20  21
ATOM     21  N   UNL     1       6.202   4.145  16.928  0.00  0.00    +0.000 N 
ATOM     22  C   UNL     1       6.399   5.187  16.049  0.00  0.00    +0.000 C 
ATOM     23  O   UNL     1       6.443   6.363  16.382  0.00  0.00    +0.000 OA
ATOM     24  H   UNL     1       6.396   3.200  16.629  0.00  0.00    +0.000 HD
BRANCH  22  25
ATOM     25  C   UNL     1       6.604   4.789  14.632  0.00  0.00    +0.000 A 
ATOM     26  C   UNL     1       7.623   5.359  13.856  0.00  0.00    +0.000 A 
ATOM     27  C   UNL     1       7.774   4.989  12.520  0.00  0.00    +0.000 A 
ATOM     28  C   UNL     1       6.916   4.041  11.962  0.00  0.00    +0.000 A 
ATOM     29  C   UNL     1       5.918   3.451  12.738  0.00  0.00    +0.000 A 
ATOM     30  C   UNL     1       5.766   3.820  14.074  0.00  0.00    +0.000 A 
ENDBRANCH  22  25
ENDBRANCH  20  21
ENDBRANCH   5  20
TORSDOF 9
ENDMDL
MODEL 9
REMARK VINA RESULT:      -6.5      4.401      7.532
REMARK  Name = 
REMARK  9 active torsions:
REMARK  status: ('A' for Active; 'I' for Inactive)
REMARK    1  A    between atoms: N_1  and  C_2
REMARK    2  A    between atoms: C_2  and  C_3
REMARK    3  A    between atoms: C_2  and  C_20
REMARK    4  A    between atoms: C_3  and  C_4
REMARK    5  A    between atoms: C_4  and  N_5
REMARK    6  A    between atoms: C_9  and  C_10
REMARK    7  A    between atoms: C_10  and  N_11
REMARK    8  A    between atoms: C_12  and  C_14
REMARK    9  A    between atoms: C_20  and  C_21
REMARK                            x       y       z     vdW  Elec       q    Type
REMARK                         _______ _______ _______ _____ _____    ______ ____
ROOT
ATOM      1  N   UNL     1       6.566   5.911  17.055  0.00  0.00    +0.000 NA
ATOM      2  C   UNL     1       7.418   4.737  17.237  0.00  0.00    +0.000 C 
ATOM      3  C   UNL     1       7.905   4.802  18.670  0.00  0.00    +0.000 C 
ATOM      4  C   UNL     1       8.041   6.293  18.916  0.00  0.00    +0.000 C 
ATOM      5  C   UNL     1       6.940   6.928  18.058  0.00  0.00    +0.000 C 
ENDROOT
BRANCH   1   6
ATOM      6  C   UNL     1       5.124   5.643  17.015  0.00  0.00    +0.000 C 
BRANCH   6   7
ATOM      7  C   UNL     1       4.725   4.243  16.523  0.00  0.00    +0.000 C 
BRANCH   7   8
ATOM      8  C   UNL     1       3.296   3.818  16.916  0.00  0.00    +0.000 C 
BRANCH   8   9
ATOM      9  N   UNL     1       2.715   4.925  17.701  0.00  0.00    +0.000 NA
ATOM     10  H   UNL     1       3.466   5.479  18.111  0.00  0.00    +0.000 HD
ATOM     11  H   UNL     1       2.181   4.549  18.483  0.00  0.00    +0.000 HD
ENDBRANCH   8   9
BRANCH   8  12
ATOM     12  C   UNL     1       3.295   2.503  17.725  0.00  0.00    +0.000 C 
BRANCH  12  13
ATOM     13  C   UNL     1       2.623   2.578  19.073  0.00  0.00    +0.000 A 
ATOM     14  C   UNL     1       1.227   2.655  19.171  0.00  0.00    +0.000 A 
ATOM     15  C   UNL     1       0.612   2.794  20.417  0.00  0.00    +0.000 A 
ATOM     16  C   UNL     1       1.384   2.851  21.576  0.00  0.00    +0.000 A 
ATOM     17  C   UNL     1       2.772   2.746  21.492  0.00  0.00    +0.000 A 
ATOM     18  C   UNL     1       3.377   2.604  20.248  0.00  0.00    +0.000 A 
ATOM     19  F   UNL     1       4.714   2.514  20.185  0.00  0.00    +0.000 F 
ENDBRANCH  12  13
ENDBRANCH   8  12
ENDBRANCH   7   8
ENDBRANCH   6   7
ENDBRANCH   1   6
BRANCH   5  20
ATOM     20  C   UNL     1       7.410   8.194  17.323  0.00  0.00    +0.000 C 
BRANCH  20  21
ATOM     21  N   UNL     1       8.414   8.938  18.053  0.00  0.00    +0.000 N 
ATOM     22  C   UNL     1       8.509  10.309  17.972  0.00  0.00    +0.000 C 
ATOM     23  O   UNL     1       7.738  11.012  17.332  0.00  0.00    +0.000 OA
ATOM     24  H   UNL     1       8.936   8.446  18.764  0.00  0.00    +0.000 HD
BRANCH  22  25
ATOM     25  C   UNL     1       9.611  10.915  18.763  0.00  0.00    +0.000 A 
ATOM     26  C   UNL     1       9.471  11.163  20.136  0.00  0.00    +0.000 A 
ATOM     27  C   UNL     1      10.510  11.759  20.849  0.00  0.00    +0.000 A 
ATOM     28  C   UNL     1      11.695  12.097  20.194  0.00  0.00    +0.000 A 
ATOM     29  C   UNL     1      11.850  11.827  18.834  0.00  0.00    +0.000 A 
ATOM     30  C   UNL     1      10.811  11.230  18.120  0.00  0.00    +0.000 A 
ENDBRANCH  22  25
ENDBRANCH  20  21
ENDBRANCH   5  20
TORSDOF 9
ENDMDL
