MODEL 1
REMARK VINA RESULT:      -7.0      0.000      0.000
REMARK  Name = 
REMARK  6 active torsions:
REMARK  status: ('A' for Active; 'I' for Inactive)
REMARK    1  A    between atoms: C_2  and  C_3
REMARK    2  A    between atoms: C_3  and  C_4
REMARK    3  A    between atoms: C_5  and  C_6
REMARK    4  A    between atoms: C_8  and  N_9
REMARK    5  A    between atoms: N_15  and  C_16
REMARK    6  A    between atoms: C_25  and  C_26
REMARK                            x       y       z     vdW  Elec       q    Type
REMARK                         _______ _______ _______ _____ _____    ______ ____
ROOT
ATOM      1  C   UNL     1      -1.518  12.130  21.060  0.00  0.00    +0.000 A 
ATOM      2  C   UNL     1      -1.640  11.502  22.315  0.00  0.00    +0.000 A 
ATOM      3  C   UNL     1      -0.738  10.526  22.613  0.00  0.00    +0.000 A 
ATOM      4  N   UNL     1       0.152  10.158  21.693  0.00  0.00    +0.000 NA
ATOM      5  C   UNL     1       0.214  10.546  20.390  0.00  0.00    +0.000 A 
ATOM      6  N   UNL     1       1.057   9.715  19.654  0.00  0.00    +0.000 N 
ATOM      7  C   UNL     1       1.266   8.521  20.512  0.00  0.00    +0.000 C 
ATOM      8  C   UNL     1       2.312   7.661  19.915  0.00  0.00    +0.000 C 
ATOM      9  N   UNL     1       2.581   6.965  18.669  0.00  0.00    +0.000 N 
ATOM     10  C   UNL     1       2.328   8.067  17.615  0.00  0.00    +0.000 C 
ATOM     11  C   UNL     1       1.578   9.574  18.188  0.00  0.00    +0.000 C 
ATOM     12  C   UNL     1      -0.585  11.620  20.060  0.00  0.00    +0.000 A 
ENDROOT
BRANCH   9  13
ATOM     13  C   UNL     1       1.999   5.678  18.953  0.00  0.00    +0.000 A 
ATOM     14  C   UNL     1       1.730   5.144  20.207  0.00  0.00    +0.000 A 
ATOM     15  C   UNL     1       1.507   3.748  20.341  0.00  0.00    +0.000 A 
ATOM     16  C   UNL     1       1.590   2.884  19.246  0.00  0.00    +0.000 A 
ATOM     17  F   UNL     1       1.509   1.557  19.412  0.00  0.00    +0.000 F 
ATOM     18  C   UNL     1       1.749   3.388  17.979  0.00  0.00    +0.000 A 
ATOM     19  C   UNL     1       1.839   4.767  17.839  0.00  0.00    +0.000 A 
ENDBRANCH   9  13
BRANCH   3  20
ATOM     20  N   UNL     1      -0.720   9.770  23.760  0.00  0.00    +0.000 N 
ATOM     21  H   UNL     1      -1.608   9.329  23.998  0.00  0.00    +0.000 HD
ATOM     22  H   UNL     1      -0.369  10.345  24.524  0.00  0.00    +0.000 HD
ENDBRANCH   3  20
BRANCH   2  23
ATOM     23  C   UNL     1      -2.651  11.833  23.286  0.00  0.00    +0.000 C 
ATOM     24  N   UNL     1      -3.497  12.091  24.032  0.00  0.00    +0.000 NA
ENDBRANCH   2  23
BRANCH  12  25
ATOM     25  C   UNL     1      -0.516  12.204  18.735  0.00  0.00    +0.000 C 
ATOM     26  N   UNL     1      -0.463  12.709  17.708  0.00  0.00    +0.000 NA
ENDBRANCH  12  25
BRANCH   1  27
ATOM     27  C   UNL     1      -2.348  13.387  20.899  0.00  0.00    +0.000 C 
BRANCH  27  29
ATOM     28  N   UNL     1      -4.835  12.790  19.805  0.00  0.00    +0.000 NA
ATOM     29  C   UNL     1      -3.707  13.062  20.301  0.00  0.00    +0.000 C 
ENDBRANCH  27  29
ENDBRANCH   1  27
TORSDOF 6
ENDMDL
MODEL 2
REMARK VINA RESULT:      -6.9      3.423      8.957
REMARK  Name = 
REMARK  6 active torsions:
REMARK  status: ('A' for Active; 'I' for Inactive)
REMARK    1  A    between atoms: C_2  and  C_3
REMARK    2  A    between atoms: C_3  and  C_4
REMARK    3  A    between atoms: C_5  and  C_6
REMARK    4  A    between atoms: C_8  and  N_9
REMARK    5  A    between atoms: N_15  and  C_16
REMARK    6  A    between atoms: C_25  and  C_26
REMARK                            x       y       z     vdW  Elec       q    Type
REMARK                         _______ _______ _______ _____ _____    ______ ____
ROOT
ATOM      1  C   UNL     1       3.578   4.010  18.546  0.00  0.00    +0.000 A 
ATOM      2  C   UNL     1       4.243   4.681  17.500  0.00  0.00    +0.000 A 
ATOM      3  C   UNL     1       4.241   6.042  17.533  0.00  0.00    +0.000 A 
ATOM      4  N   UNL     1       3.557   6.669  18.489  0.00  0.00    +0.000 NA
ATOM      5  C   UNL     1       2.714   6.123  19.407  0.00  0.00    +0.000 A 
ATOM      6  N   UNL     1       1.930   7.100  20.019  0.00  0.00    +0.000 N 
ATOM      7  C   UNL     1       2.076   8.304  19.161  0.00  0.00    +0.000 C 
ATOM      8  C   UNL     1       1.447   9.465  19.829  0.00  0.00    +0.000 C 
ATOM      9  N   UNL     1       0.155   9.854  20.367  0.00  0.00    +0.000 N 
ATOM     10  C   UNL     1      -0.209   8.644  21.256  0.00  0.00    +0.000 C 
ATOM     11  C   UNL     1       0.815   7.197  21.108  0.00  0.00    +0.000 C 
ATOM     12  C   UNL     1       2.769   4.750  19.509  0.00  0.00    +0.000 A 
ENDROOT
BRANCH   9  13
ATOM     13  C   UNL     1      -0.435  10.481  19.212  0.00  0.00    +0.000 A 
ATOM     14  C   UNL     1      -0.791  11.817  19.079  0.00  0.00    +0.000 A 
ATOM     15  C   UNL     1      -1.685  12.205  18.046  0.00  0.00    +0.000 A 
ATOM     16  C   UNL     1      -2.251  11.268  17.177  0.00  0.00    +0.000 A 
ATOM     17  F   UNL     1      -3.193  11.633  16.296  0.00  0.00    +0.000 F 
ATOM     18  C   UNL     1      -1.843   9.958  17.212  0.00  0.00    +0.000 A 
ATOM     19  C   UNL     1      -0.873   9.608  18.142  0.00  0.00    +0.000 A 
ENDBRANCH   9  13
BRANCH   3  20
ATOM     20  N   UNL     1       4.791   6.871  16.586  0.00  0.00    +0.000 N 
ATOM     21  H   UNL     1       4.909   7.840  16.880  0.00  0.00    +0.000 HD
ATOM     22  H   UNL     1       4.240   6.801  15.732  0.00  0.00    +0.000 HD
ENDBRANCH   3  20
BRANCH   2  23
ATOM     23  C   UNL     1       4.915   4.014  16.414  0.00  0.00    +0.000 C 
ATOM     24  N   UNL     1       5.468   3.521  15.526  0.00  0.00    +0.000 NA
ENDBRANCH   2  23
BRANCH  12  25
ATOM     25  C   UNL     1       2.011   4.060  20.535  0.00  0.00    +0.000 C 
ATOM     26  N   UNL     1       1.416   3.475  21.319  0.00  0.00    +0.000 NA
ENDBRANCH  12  25
BRANCH   1  27
ATOM     27  C   UNL     1       3.855   2.521  18.619  0.00  0.00    +0.000 C 
BRANCH  27  29
ATOM     28  N   UNL     1       5.141   1.876  20.998  0.00  0.00    +0.000 NA
ATOM     29  C   UNL     1       4.558   2.168  19.919  0.00  0.00    +0.000 C 
ENDBRANCH  27  29
ENDBRANCH   1  27
TORSDOF 6
ENDMDL
MODEL 3
REMARK VINA RESULT:      -6.8      0.963      1.126
REMARK  Name = 
REMARK  6 active torsions:
REMARK  status: ('A' for Active; 'I' for Inactive)
REMARK    1  A    between atoms: C_2  and  C_3
REMARK    2  A    between atoms: C_3  and  C_4
REMARK    3  A    between atoms: C_5  and  C_6
REMARK    4  A    between atoms: C_8  and  N_9
REMARK    5  A    between atoms: N_15  and  C_16
REMARK    6  A    between atoms: C_25  and  C_26
REMARK                            x       y       z     vdW  Elec       q    Type
REMARK                         _______ _______ _______ _____ _____    ______ ____
ROOT
ATOM      1  C   UNL     1      -1.563  12.158  21.024  0.00  0.00    +0.000 A 
ATOM      2  C   UNL     1      -1.681  11.540  22.285  0.00  0.00    +0.000 A 
ATOM      3  C   UNL     1      -0.773  10.573  22.591  0.00  0.00    +0.000 A 
ATOM      4  N   UNL     1       0.120  10.203  21.675  0.00  0.00    +0.000 NA
ATOM      5  C   UNL     1       0.180  10.580  20.368  0.00  0.00    +0.000 A 
ATOM      6  N   UNL     1       1.029   9.749  19.640  0.00  0.00    +0.000 N 
ATOM      7  C   UNL     1       1.246   8.564  20.508  0.00  0.00    +0.000 C 
ATOM      8  C   UNL     1       2.298   7.706  19.918  0.00  0.00    +0.000 C 
ATOM      9  N   UNL     1       2.572   7.001  18.678  0.00  0.00    +0.000 N 
ATOM     10  C   UNL     1       2.312   8.093  17.616  0.00  0.00    +0.000 C 
ATOM     11  C   UNL     1       1.552   9.600  18.175  0.00  0.00    +0.000 C 
ATOM     12  C   UNL     1      -0.626  11.646  20.030  0.00  0.00    +0.000 A 
ENDROOT
BRANCH   9  13
ATOM     13  C   UNL     1       1.998   5.713  18.973  0.00  0.00    +0.000 A 
ATOM     14  C   UNL     1       1.759   5.176  20.231  0.00  0.00    +0.000 A 
ATOM     15  C   UNL     1       1.541   3.778  20.367  0.00  0.00    +0.000 A 
ATOM     16  C   UNL     1       1.599   2.918  19.268  0.00  0.00    +0.000 A 
ATOM     17  F   UNL     1       1.524   1.590  19.432  0.00  0.00    +0.000 F 
ATOM     18  C   UNL     1       1.727   3.425  17.999  0.00  0.00    +0.000 A 
ATOM     19  C   UNL     1       1.813   4.805  17.860  0.00  0.00    +0.000 A 
ENDBRANCH   9  13
BRANCH   3  20
ATOM     20  N   UNL     1      -0.751   9.826  23.744  0.00  0.00    +0.000 N 
ATOM     21  H   UNL     1       0.173   9.500  24.027  0.00  0.00    +0.000 HD
ATOM     22  H   UNL     1      -1.409   9.055  23.646  0.00  0.00    +0.000 HD
ENDBRANCH   3  20
BRANCH   2  23
ATOM     23  C   UNL     1      -2.695  11.872  23.252  0.00  0.00    +0.000 C 
ATOM     24  N   UNL     1      -3.542  12.143  23.994  0.00  0.00    +0.000 NA
ENDBRANCH   2  23
BRANCH  12  25
ATOM     25  C   UNL     1      -0.560  12.220  18.699  0.00  0.00    +0.000 C 
ATOM     26  N   UNL     1      -0.486  12.712  17.668  0.00  0.00    +0.000 NA
ENDBRANCH  12  25
BRANCH   1  27
ATOM     27  C   UNL     1      -2.402  13.409  20.852  0.00  0.00    +0.000 C 
BRANCH  27  29
ATOM     28  N   UNL     1      -0.900  15.684  21.405  0.00  0.00    +0.000 NA
ATOM     29  C   UNL     1      -1.581  14.652  21.154  0.00  0.00    +0.000 C 
ENDBRANCH  27  29
ENDBRANCH   1  27
TORSDOF 6
ENDMDL
MODEL 4
REMARK VINA RESULT:      -6.7      2.961      4.481
REMARK  Name = 
REMARK  6 active torsions:
REMARK  status: ('A' for Active; 'I' for Inactive)
REMARK    1  A    between atoms: C_2  and  C_3
REMARK    2  A    between atoms: C_3  and  C_4
REMARK    3  A    between atoms: C_5  and  C_6
REMARK    4  A    between atoms: C_8  and  N_9
REMARK    5  A    between atoms: N_15  and  C_16
REMARK    6  A    between atoms: C_25  and  C_26
REMARK                            x       y       z     vdW  Elec       q    Type
REMARK                         _______ _______ _______ _____ _____    ______ ____
ROOT
ATOM      1  C   UNL     1       0.682  11.869  20.802  0.00  0.00    +0.000 A 
ATOM      2  C   UNL     1       1.295  12.477  19.688  0.00  0.00    +0.000 A 
ATOM      3  C   UNL     1       1.679  11.662  18.667  0.00  0.00    +0.000 A 
ATOM      4  N   UNL     1       1.534  10.344  18.796  0.00  0.00    +0.000 NA
ATOM      5  C   UNL     1       1.158   9.650  19.904  0.00  0.00    +0.000 A 
ATOM      6  N   UNL     1       1.437   8.291  19.771  0.00  0.00    +0.000 N 
ATOM      7  C   UNL     1       2.366   8.201  18.614  0.00  0.00    +0.000 C 
ATOM      8  C   UNL     1       2.568   6.780  18.254  0.00  0.00    +0.000 C 
ATOM      9  N   UNL     1       3.020   5.544  18.870  0.00  0.00    +0.000 N 
ATOM     10  C   UNL     1       2.190   5.506  20.174  0.00  0.00    +0.000 C 
ATOM     11  C   UNL     1       1.280   6.974  20.595  0.00  0.00    +0.000 C 
ATOM     12  C   UNL     1       0.637  10.415  20.925  0.00  0.00    +0.000 A 
ENDROOT
BRANCH   9  13
ATOM     13  C   UNL     1       4.426   5.593  18.561  0.00  0.00    +0.000 A 
ATOM     14  C   UNL     1       5.472   5.168  19.370  0.00  0.00    +0.000 A 
ATOM     15  C   UNL     1       6.793   5.611  19.097  0.00  0.00    +0.000 A 
ATOM     16  C   UNL     1       7.068   6.499  18.054  0.00  0.00    +0.000 A 
ATOM     17  F   UNL     1       8.297   7.010  17.894  0.00  0.00    +0.000 F 
ATOM     18  C   UNL     1       6.079   6.857  17.172  0.00  0.00    +0.000 A 
ATOM     19  C   UNL     1       4.813   6.319  17.369  0.00  0.00    +0.000 A 
ENDBRANCH   9  13
BRANCH   3  20
ATOM     20  N   UNL     1       2.330  12.056  17.524  0.00  0.00    +0.000 N 
ATOM     21  H   UNL     1       2.264  11.402  16.745  0.00  0.00    +0.000 HD
ATOM     22  H   UNL     1       3.299  12.267  17.758  0.00  0.00    +0.000 HD
ENDBRANCH   3  20
BRANCH   2  23
ATOM     23  C   UNL     1       1.534  13.892  19.574  0.00  0.00    +0.000 C 
ATOM     24  N   UNL     1       1.749  15.022  19.441  0.00  0.00    +0.000 NA
ENDBRANCH   2  23
BRANCH  12  25
ATOM     25  C   UNL     1       0.087   9.782  22.109  0.00  0.00    +0.000 C 
ATOM     26  N   UNL     1      -0.303   9.284  23.063  0.00  0.00    +0.000 NA
ENDBRANCH  12  25
BRANCH   1  27
ATOM     27  C   UNL     1       0.021  12.835  21.765  0.00  0.00    +0.000 C 
BRANCH  27  29
ATOM     28  N   UNL     1      -2.723  12.941  21.325  0.00  0.00    +0.000 NA
ATOM     29  C   UNL     1      -1.479  12.893  21.524  0.00  0.00    +0.000 C 
ENDBRANCH  27  29
ENDBRANCH   1  27
TORSDOF 6
ENDMDL
MODEL 5
REMARK VINA RESULT:      -6.6      2.813      4.374
REMARK  Name = 
REMARK  6 active torsions:
REMARK  status: ('A' for Active; 'I' for Inactive)
REMARK    1  A    between atoms: C_2  and  C_3
REMARK    2  A    between atoms: C_3  and  C_4
REMARK    3  A    between atoms: C_5  and  C_6
REMARK    4  A    between atoms: C_8  and  N_9
REMARK    5  A    between atoms: N_15  and  C_16
REMARK    6  A    between atoms: C_25  and  C_26
REMARK                            x       y       z     vdW  Elec       q    Type
REMARK                         _______ _______ _______ _____ _____    ______ ____
ROOT
ATOM      1  C   UNL     1       0.839  12.488  20.855  0.00  0.00    +0.000 A 
ATOM      2  C   UNL     1       1.391  13.048  19.686  0.00  0.00    +0.000 A 
ATOM      3  C   UNL     1       1.654  12.201  18.653  0.00  0.00    +0.000 A 
ATOM      4  N   UNL     1       1.457  10.894  18.817  0.00  0.00    +0.000 NA
ATOM      5  C   UNL     1       1.136  10.235  19.964  0.00  0.00    +0.000 A 
ATOM      6  N   UNL     1       1.339   8.862  19.834  0.00  0.00    +0.000 N 
ATOM      7  C   UNL     1       2.168   8.710  18.611  0.00  0.00    +0.000 C 
ATOM      8  C   UNL     1       2.273   7.276  18.262  0.00  0.00    +0.000 C 
ATOM      9  N   UNL     1       2.712   6.029  18.864  0.00  0.00    +0.000 N 
ATOM     10  C   UNL     1       1.988   6.050  20.229  0.00  0.00    +0.000 C 
ATOM     11  C   UNL     1       1.184   7.567  20.693  0.00  0.00    +0.000 C 
ATOM     12  C   UNL     1       0.735  11.040  21.008  0.00  0.00    +0.000 A 
ENDROOT
BRANCH   9  13
ATOM     13  C   UNL     1       4.091   6.004  18.445  0.00  0.00    +0.000 A 
ATOM     14  C   UNL     1       4.603   6.464  17.239  0.00  0.00    +0.000 A 
ATOM     15  C   UNL     1       5.894   6.043  16.821  0.00  0.00    +0.000 A 
ATOM     16  C   UNL     1       6.652   5.143  17.575  0.00  0.00    +0.000 A 
ATOM     17  F   UNL     1       7.806   4.654  17.101  0.00  0.00    +0.000 F 
ATOM     18  C   UNL     1       6.223   4.750  18.818  0.00  0.00    +0.000 A 
ATOM     19  C   UNL     1       5.018   5.265  19.278  0.00  0.00    +0.000 A 
ENDBRANCH   9  13
BRANCH   3  20
ATOM     20  N   UNL     1       2.231  12.546  17.456  0.00  0.00    +0.000 N 
ATOM     21  H   UNL     1       2.654  11.772  16.943  0.00  0.00    +0.000 HD
ATOM     22  H   UNL     1       2.899  13.297  17.621  0.00  0.00    +0.000 HD
ENDBRANCH   3  20
BRANCH   2  23
ATOM     23  C   UNL     1       1.687  14.449  19.527  0.00  0.00    +0.000 C 
ATOM     24  N   UNL     1       1.891  15.577  19.366  0.00  0.00    +0.000 NA
ENDBRANCH   2  23
BRANCH  12  25
ATOM     25  C   UNL     1       0.250  10.452  22.243  0.00  0.00    +0.000 C 
ATOM     26  N   UNL     1      -0.086   9.985  23.232  0.00  0.00    +0.000 NA
ENDBRANCH  12  25
BRANCH   1  27
ATOM     27  C   UNL     1       0.303  13.499  21.849  0.00  0.00    +0.000 C 
BRANCH  27  29
ATOM     28  N   UNL     1      -2.444  13.809  21.552  0.00  0.00    +0.000 NA
ATOM     29  C   UNL     1      -1.198  13.669  21.686  0.00  0.00    +0.000 C 
ENDBRANCH  27  29
ENDBRANCH   1  27
TORSDOF 6
ENDMDL
MODEL 6
REMARK VINA RESULT:      -6.5      3.428      8.782
REMARK  Name = 
REMARK  6 active torsions:
REMARK  status: ('A' for Active; 'I' for Inactive)
REMARK    1  A    between atoms: C_2  and  C_3
REMARK    2  A    between atoms: C_3  and  C_4
REMARK    3  A    between atoms: C_5  and  C_6
REMARK    4  A    between atoms: C_8  and  N_9
REMARK    5  A    between atoms: N_15  and  C_16
REMARK    6  A    between atoms: C_25  and  C_26
REMARK                            x       y       z     vdW  Elec       q    Type
REMARK                         _______ _______ _______ _____ _____    ______ ____
ROOT
ATOM      1  C   UNL     1       4.014   4.625  18.410  0.00  0.00    +0.000 A 
ATOM      2  C   UNL     1       4.484   5.198  17.212  0.00  0.00    +0.000 A 
ATOM      3  C   UNL     1       4.316   6.540  17.055  0.00  0.00    +0.000 A 
ATOM      4  N   UNL     1       3.656   7.227  17.986  0.00  0.00    +0.000 NA
ATOM      5  C   UNL     1       2.982   6.738  19.063  0.00  0.00    +0.000 A 
ATOM      6  N   UNL     1       2.146   7.705  19.619  0.00  0.00    +0.000 N 
ATOM      7  C   UNL     1       2.056   8.774  18.590  0.00  0.00    +0.000 C 
ATOM      8  C   UNL     1       1.356   9.947  19.158  0.00  0.00    +0.000 C 
ATOM      9  N   UNL     1       0.085  10.271  19.782  0.00  0.00    +0.000 N 
ATOM     10  C   UNL     1      -0.036   9.177  20.867  0.00  0.00    +0.000 C 
ATOM     11  C   UNL     1       1.140   7.845  20.805  0.00  0.00    +0.000 C 
ATOM     12  C   UNL     1       3.218   5.411  19.348  0.00  0.00    +0.000 A 
ENDROOT
BRANCH   9  13
ATOM     13  C   UNL     1      -0.689  10.647  18.627  0.00  0.00    +0.000 A 
ATOM     14  C   UNL     1      -1.368  11.843  18.432  0.00  0.00    +0.000 A 
ATOM     15  C   UNL     1      -2.372  11.923  17.430  0.00  0.00    +0.000 A 
ATOM     16  C   UNL     1      -2.727  10.814  16.657  0.00  0.00    +0.000 A 
ATOM     17  F   UNL     1      -3.765  10.872  15.812  0.00  0.00    +0.000 F 
ATOM     18  C   UNL     1      -2.008   9.649  16.750  0.00  0.00    +0.000 A 
ATOM     19  C   UNL     1      -0.943   9.616  17.642  0.00  0.00    +0.000 A 
ENDBRANCH   9  13
BRANCH   3  20
ATOM     20  N   UNL     1       4.663   7.271  15.945  0.00  0.00    +0.000 N 
ATOM     21  H   UNL     1       5.640   7.188  15.664  0.00  0.00    +0.000 HD
ATOM     22  H   UNL     1       4.396   8.242  16.097  0.00  0.00    +0.000 HD
ENDBRANCH   3  20
BRANCH   2  23
ATOM     23  C   UNL     1       5.124   4.451  16.159  0.00  0.00    +0.000 C 
ATOM     24  N   UNL     1       5.681   3.858  15.336  0.00  0.00    +0.000 NA
ENDBRANCH   2  23
BRANCH  12  25
ATOM     25  C   UNL     1       2.655   4.806  20.540  0.00  0.00    +0.000 C 
ATOM     26  N   UNL     1       2.189   4.297  21.454  0.00  0.00    +0.000 NA
ENDBRANCH  12  25
BRANCH   1  27
ATOM     27  C   UNL     1       4.480   3.204  18.657  0.00  0.00    +0.000 C 
BRANCH  27  29
ATOM     28  N   UNL     1       2.345   1.429  18.519  0.00  0.00    +0.000 NA
ATOM     29  C   UNL     1       3.313   2.234  18.581  0.00  0.00    +0.000 C 
ENDBRANCH  27  29
ENDBRANCH   1  27
TORSDOF 6
ENDMDL
MODEL 7
REMARK VINA RESULT:      -6.4      0.564      1.074
REMARK  Name = 
REMARK  6 active torsions:
REMARK  status: ('A' for Active; 'I' for Inactive)
REMARK    1  A    between atoms: C_2  and  C_3
REMARK    2  A    between atoms: C_3  and  C_4
REMARK    3  A    between atoms: C_5  and  C_6
REMARK    4  A    between atoms: C_8  and  N_9
REMARK    5  A    between atoms: N_15  and  C_16
REMARK    6  A    between atoms: C_25  and  C_26
REMARK                            x       y       z     vdW  Elec       q    Type
REMARK                         _______ _______ _______ _____ _____    ______ ____
ROOT
ATOM      1  C   UNL     1      -1.573  11.978  20.979  0.00  0.00    +0.000 A 
ATOM      2  C   UNL     1      -1.592  11.356  22.244  0.00  0.00    +0.000 A 
ATOM      3  C   UNL     1      -0.600  10.464  22.513  0.00  0.00    +0.000 A 
ATOM      4  N   UNL     1       0.281  10.162  21.561  0.00  0.00    +0.000 NA
ATOM      5  C   UNL     1       0.259  10.539  20.253  0.00  0.00    +0.000 A 
ATOM      6  N   UNL     1       1.140   9.774  19.490  0.00  0.00    +0.000 N 
ATOM      7  C   UNL     1       1.483   8.611  20.349  0.00  0.00    +0.000 C 
ATOM      8  C   UNL     1       2.574   7.836  19.717  0.00  0.00    +0.000 C 
ATOM      9  N   UNL     1       2.852   7.151  18.467  0.00  0.00    +0.000 N 
ATOM     10  C   UNL     1       2.465   8.216  17.416  0.00  0.00    +0.000 C 
ATOM     11  C   UNL     1       1.613   9.661  18.006  0.00  0.00    +0.000 C 
ATOM     12  C   UNL     1      -0.640  11.537  19.948  0.00  0.00    +0.000 A 
ENDROOT
BRANCH   9  13
ATOM     13  C   UNL     1       2.392   5.823  18.784  0.00  0.00    +0.000 A 
ATOM     14  C   UNL     1       1.956   4.856  17.888  0.00  0.00    +0.000 A 
ATOM     15  C   UNL     1       1.198   3.752  18.363  0.00  0.00    +0.000 A 
ATOM     16  C   UNL     1       0.843   3.632  19.709  0.00  0.00    +0.000 A 
ATOM     17  F   UNL     1       0.017   2.658  20.115  0.00  0.00    +0.000 F 
ATOM     18  C   UNL     1       1.343   4.510  20.637  0.00  0.00    +0.000 A 
ATOM     19  C   UNL     1       2.189   5.515  20.185  0.00  0.00    +0.000 A 
ENDBRANCH   9  13
BRANCH   3  20
ATOM     20  N   UNL     1      -0.473   9.724  23.664  0.00  0.00    +0.000 N 
ATOM     21  H   UNL     1      -1.354   9.448  24.097  0.00  0.00    +0.000 HD
ATOM     22  H   UNL     1       0.122  10.235  24.315  0.00  0.00    +0.000 HD
ENDBRANCH   3  20
BRANCH   2  23
ATOM     23  C   UNL     1      -2.589  11.612  23.252  0.00  0.00    +0.000 C 
ATOM     24  N   UNL     1      -3.403  11.856  24.037  0.00  0.00    +0.000 NA
ENDBRANCH   2  23
BRANCH  12  25
ATOM     25  C   UNL     1      -0.673  12.111  18.615  0.00  0.00    +0.000 C 
ATOM     26  N   UNL     1      -0.742  12.584  17.575  0.00  0.00    +0.000 NA
ENDBRANCH  12  25
BRANCH   1  27
ATOM     27  C   UNL     1      -2.513  13.159  20.842  0.00  0.00    +0.000 C 
BRANCH  27  29
ATOM     28  N   UNL     1      -4.878  12.394  19.594  0.00  0.00    +0.000 NA
ATOM     29  C   UNL     1      -3.806  12.742  20.160  0.00  0.00    +0.000 C 
ENDBRANCH  27  29
ENDBRANCH   1  27
TORSDOF 6
ENDMDL
MODEL 8
REMARK VINA RESULT:      -6.2      3.370      8.743
REMARK  Name = 
REMARK  6 active torsions:
REMARK  status: ('A' for Active; 'I' for Inactive)
REMARK    1  A    between atoms: C_2  and  C_3
REMARK    2  A    between atoms: C_3  and  C_4
REMARK    3  A    between atoms: C_5  and  C_6
REMARK    4  A    between atoms: C_8  and  N_9
REMARK    5  A    between atoms: N_15  and  C_16
REMARK    6  A    between atoms: C_25  and  C_26
REMARK                            x       y       z     vdW  Elec       q    Type
REMARK                         _______ _______ _______ _____ _____    ______ ____
ROOT
ATOM      1  C   UNL     1       3.926   4.690  18.601  0.00  0.00    +0.000 A 
ATOM      2  C   UNL     1       4.292   5.332  17.401  0.00  0.00    +0.000 A 
ATOM      3  C   UNL     1       4.027   6.664  17.303  0.00  0.00    +0.000 A 
ATOM      4  N   UNL     1       3.374   7.273  18.291  0.00  0.00    +0.000 NA
ATOM      5  C   UNL     1       2.792   6.705  19.382  0.00  0.00    +0.000 A 
ATOM      6  N   UNL     1       1.925   7.593  20.015  0.00  0.00    +0.000 N 
ATOM      7  C   UNL     1       1.709   8.687  19.032  0.00  0.00    +0.000 C 
ATOM      8  C   UNL     1       0.964   9.790  19.678  0.00  0.00    +0.000 C 
ATOM      9  N   UNL     1      -0.291  10.006  20.377  0.00  0.00    +0.000 N 
ATOM     10  C   UNL     1      -0.281   8.871  21.426  0.00  0.00    +0.000 C 
ATOM     11  C   UNL     1       0.976   7.624  21.255  0.00  0.00    +0.000 C 
ATOM     12  C   UNL     1       3.130   5.388  19.605  0.00  0.00    +0.000 A 
ENDROOT
BRANCH   9  13
ATOM     13  C   UNL     1      -1.149  10.366  19.277  0.00  0.00    +0.000 A 
ATOM     14  C   UNL     1      -1.942   9.510  18.524  0.00  0.00    +0.000 A 
ATOM     15  C   UNL     1      -2.435   9.939  17.263  0.00  0.00    +0.000 A 
ATOM     16  C   UNL     1      -2.110  11.192  16.737  0.00  0.00    +0.000 A 
ATOM     17  F   UNL     1      -2.473  11.527  15.491  0.00  0.00    +0.000 F 
ATOM     18  C   UNL     1      -1.418  12.102  17.496  0.00  0.00    +0.000 A 
ATOM     19  C   UNL     1      -1.047  11.722  18.780  0.00  0.00    +0.000 A 
ENDBRANCH   9  13
BRANCH   3  20
ATOM     20  N   UNL     1       4.265   7.453  16.203  0.00  0.00    +0.000 N 
ATOM     21  H   UNL     1       3.490   8.057  15.932  0.00  0.00    +0.000 HD
ATOM     22  H   UNL     1       4.565   6.857  15.434  0.00  0.00    +0.000 HD
ENDBRANCH   3  20
BRANCH   2  23
ATOM     23  C   UNL     1       4.923   4.666  16.291  0.00  0.00    +0.000 C 
ATOM     24  N   UNL     1       5.450   4.173  15.387  0.00  0.00    +0.000 NA
ENDBRANCH   2  23
BRANCH  12  25
ATOM     25  C   UNL     1       2.674   4.707  20.802  0.00  0.00    +0.000 C 
ATOM     26  N   UNL     1       2.307   4.130  21.721  0.00  0.00    +0.000 NA
ENDBRANCH  12  25
BRANCH   1  27
ATOM     27  C   UNL     1       4.498   3.296  18.771  0.00  0.00    +0.000 C 
BRANCH  27  29
ATOM     28  N   UNL     1       2.505   1.375  18.506  0.00  0.00    +0.000 NA
ATOM     29  C   UNL     1       3.409   2.246  18.625  0.00  0.00    +0.000 C 
ENDBRANCH  27  29
ENDBRANCH   1  27
TORSDOF 6
ENDMDL
MODEL 9
REMARK VINA RESULT:      -6.2      3.311      5.054
REMARK  Name = 
REMARK  6 active torsions:
REMARK  status: ('A' for Active; 'I' for Inactive)
REMARK    1  A    between atoms: C_2  and  C_3
REMARK    2  A    between atoms: C_3  and  C_4
REMARK    3  A    between atoms: C_5  and  C_6
REMARK    4  A    between atoms: C_8  and  N_9
REMARK    5  A    between atoms: N_15  and  C_16
REMARK    6  A    between atoms: C_25  and  C_26
REMARK                            x       y       z     vdW  Elec       q    Type
REMARK                         _______ _______ _______ _____ _____    ______ ____
ROOT
ATOM      1  C   UNL     1       0.289  11.038  19.994  0.00  0.00    +0.000 A 
ATOM      2  C   UNL     1       1.024  11.899  19.155  0.00  0.00    +0.000 A 
ATOM      3  C   UNL     1       1.789  11.321  18.188  0.00  0.00    +0.000 A 
ATOM      4  N   UNL     1       1.871   9.992  18.130  0.00  0.00    +0.000 NA
ATOM      5  C   UNL     1       1.379   9.086  19.017  0.00  0.00    +0.000 A 
ATOM      6  N   UNL     1       1.935   7.824  18.814  0.00  0.00    +0.000 N 
ATOM      7  C   UNL     1       3.114   8.059  17.941  0.00  0.00    +0.000 C 
ATOM      8  C   UNL     1       3.664   6.760  17.493  0.00  0.00    +0.000 C 
ATOM      9  N   UNL     1       4.181   5.531  18.068  0.00  0.00    +0.000 N 
ATOM     10  C   UNL     1       3.086   5.163  19.095  0.00  0.00    +0.000 C 
ATOM     11  C   UNL     1       1.839   6.388  19.420  0.00  0.00    +0.000 C 
ATOM     12  C   UNL     1       0.493   9.594  19.942  0.00  0.00    +0.000 A 
ENDROOT
BRANCH   9  13
ATOM     13  C   UNL     1       5.584   5.845  18.148  0.00  0.00    +0.000 A 
ATOM     14  C   UNL     1       6.484   5.404  19.109  0.00  0.00    +0.000 A 
ATOM     15  C   UNL     1       7.723   6.079  19.272  0.00  0.00    +0.000 A 
ATOM     16  C   UNL     1       8.048   7.206  18.513  0.00  0.00    +0.000 A 
ATOM     17  F   UNL     1       9.160   7.909  18.772  0.00  0.00    +0.000 F 
ATOM     18  C   UNL     1       7.233   7.606  17.485  0.00  0.00    +0.000 A 
ATOM     19  C   UNL     1       6.082   6.865  17.247  0.00  0.00    +0.000 A 
ENDBRANCH   9  13
BRANCH   3  20
ATOM     20  N   UNL     1       2.609  11.983  17.307  0.00  0.00    +0.000 N 
ATOM     21  H   UNL     1       3.091  11.386  16.637  0.00  0.00    +0.000 HD
ATOM     22  H   UNL     1       3.262  12.557  17.838  0.00  0.00    +0.000 HD
ENDBRANCH   3  20
BRANCH   2  23
ATOM     23  C   UNL     1       1.009  13.335  19.263  0.00  0.00    +0.000 C 
ATOM     24  N   UNL     1       0.989  14.484  19.396  0.00  0.00    +0.000 NA
ENDBRANCH   2  23
BRANCH  12  25
ATOM     25  C   UNL     1      -0.194   8.708  20.863  0.00  0.00    +0.000 C 
ATOM     26  N   UNL     1      -0.714   8.031  21.626  0.00  0.00    +0.000 NA
ENDBRANCH  12  25
BRANCH   1  27
ATOM     27  C   UNL     1      -0.755  11.729  20.849  0.00  0.00    +0.000 C 
BRANCH  27  29
ATOM     28  N   UNL     1      -0.520  10.956  23.510  0.00  0.00    +0.000 NA
ATOM     29  C   UNL     1      -0.626  11.306  22.303  0.00  0.00    +0.000 C 
ENDBRANCH  27  29
ENDBRANCH   1  27
TORSDOF 6
ENDMDL
