MODEL 1
REMARK VINA RESULT:      -7.3      0.000      0.000
REMARK  Name = 
REMARK  7 active torsions:
REMARK  status: ('A' for Active; 'I' for Inactive)
REMARK    1  A    between atoms: C_2  and  O_3
REMARK    2  A    between atoms: C_2  and  C_4
REMARK    3  A    between atoms: C_9  and  C_10
REMARK    4  A    between atoms: C_10  and  N_11
REMARK    5  A    between atoms: C_15  and  C_16
REMARK    6  A    between atoms: C_16  and  C_17
REMARK    7  A    between atoms: C_17  and  C_18
REMARK                            x       y       z     vdW  Elec       q    Type
REMARK                         _______ _______ _______ _____ _____    ______ ____
ROOT
ATOM      1  N   UNL     1       5.152   4.468  17.890  0.00  0.00    +0.000 NA
ATOM      2  C   UNL     1       6.557   4.502  17.463  0.00  0.00    +0.000 C 
ATOM      3  C   UNL     1       7.134   5.860  17.049  0.00  0.00    +0.000 C 
ATOM      4  O   UNL     1       6.275   6.859  16.505  0.00  0.00    +0.000 OA
ATOM      5  C   UNL     1       4.865   6.652  16.483  0.00  0.00    +0.000 C 
ATOM      6  C   UNL     1       4.362   5.247  16.920  0.00  0.00    +0.000 C 
ENDROOT
BRANCH   1   7
ATOM      7  C   UNL     1       4.933   4.877  19.289  0.00  0.00    +0.000 C 
BRANCH   7  13
ATOM      8  C   UNL     1       3.466   2.913  20.155  0.00  0.00    +0.000 A 
ATOM      9  C   UNL     1       2.268   2.501  20.773  0.00  0.00    +0.000 A 
ATOM     10  C   UNL     1       1.259   3.415  21.062  0.00  0.00    +0.000 A 
ATOM     11  C   UNL     1       1.406   4.745  20.705  0.00  0.00    +0.000 A 
ATOM     12  C   UNL     1       2.579   5.177  20.088  0.00  0.00    +0.000 A 
ATOM     13  C   UNL     1       3.643   4.279  19.826  0.00  0.00    +0.000 A 
BRANCH   8  15
ATOM     14  O   UNL     1       5.293   1.477  20.689  0.00  0.00    +0.000 OA
ATOM     15  C   UNL     1       4.437   1.805  19.877  0.00  0.00    +0.000 C 
BRANCH  15  16
ATOM     16  O   UNL     1       4.372   1.252  18.657  0.00  0.00    +0.000 OA
ATOM     17  H   UNL     1       5.077   0.592  18.465  0.00  0.00    +0.000 HD
ENDBRANCH  15  16
ENDBRANCH   8  15
ENDBRANCH   7  13
ENDBRANCH   1   7
BRANCH   5  18
ATOM     18  C   UNL     1       4.135   7.776  17.254  0.00  0.00    +0.000 C 
BRANCH  18  19
ATOM     19  C   UNL     1       2.669   7.493  17.658  0.00  0.00    +0.000 C 
BRANCH  19  20
ATOM     20  C   UNL     1       2.011   8.684  18.345  0.00  0.00    +0.000 A 
ATOM     21  C   UNL     1       1.415   8.554  19.586  0.00  0.00    +0.000 A 
ATOM     22  C   UNL     1       0.874   9.698  20.145  0.00  0.00    +0.000 A 
ATOM     23  N   UNL     1       0.916  10.904  19.553  0.00  0.00    +0.000 NA
ATOM     24  C   UNL     1       1.541  10.931  18.367  0.00  0.00    +0.000 A 
ATOM     25  N   UNL     1       2.092   9.889  17.733  0.00  0.00    +0.000 NA
ENDBRANCH  19  20
ENDBRANCH  18  19
ENDBRANCH   5  18
TORSDOF 7
ENDMDL
MODEL 2
REMARK VINA RESULT:      -7.3      1.699      4.827
REMARK  Name = 
REMARK  7 active torsions:
REMARK  status: ('A' for Active; 'I' for Inactive)
REMARK    1  A    between atoms: C_2  and  O_3
REMARK    2  A    between atoms: C_2  and  C_4
REMARK    3  A    between atoms: C_9  and  C_10
REMARK    4  A    between atoms: C_10  and  N_11
REMARK    5  A    between atoms: C_15  and  C_16
REMARK    6  A    between atoms: C_16  and  C_17
REMARK    7  A    between atoms: C_17  and  C_18
REMARK                            x       y       z     vdW  Elec       q    Type
REMARK                         _______ _______ _______ _____ _____    ______ ____
ROOT
ATOM      1  N   UNL     1       4.128   3.148  18.876  0.00  0.00    +0.000 NA
ATOM      2  C   UNL     1       3.514   1.922  18.349  0.00  0.00    +0.000 C 
ATOM      3  C   UNL     1       1.984   1.840  18.362  0.00  0.00    +0.000 C 
ATOM      4  O   UNL     1       1.244   2.556  19.348  0.00  0.00    +0.000 OA
ATOM      5  C   UNL     1       1.911   3.458  20.226  0.00  0.00    +0.000 C 
ATOM      6  C   UNL     1       3.464   3.480  20.150  0.00  0.00    +0.000 C 
ENDROOT
BRANCH   1   7
ATOM      7  C   UNL     1       4.159   4.270  17.920  0.00  0.00    +0.000 C 
BRANCH   7  13
ATOM      8  C   UNL     1       6.023   5.812  16.968  0.00  0.00    +0.000 A 
ATOM      9  C   UNL     1       7.196   6.556  17.211  0.00  0.00    +0.000 A 
ATOM     10  C   UNL     1       7.832   6.508  18.448  0.00  0.00    +0.000 A 
ATOM     11  C   UNL     1       7.338   5.690  19.450  0.00  0.00    +0.000 A 
ATOM     12  C   UNL     1       6.182   4.941  19.234  0.00  0.00    +0.000 A 
ATOM     13  C   UNL     1       5.486   5.006  18.002  0.00  0.00    +0.000 A 
BRANCH   8  15
ATOM     14  O   UNL     1       4.989   6.987  15.169  0.00  0.00    +0.000 OA
ATOM     15  C   UNL     1       5.480   5.942  15.578  0.00  0.00    +0.000 C 
BRANCH  15  16
ATOM     16  O   UNL     1       5.482   4.825  14.834  0.00  0.00    +0.000 OA
ATOM     17  H   UNL     1       4.968   4.885  13.997  0.00  0.00    +0.000 HD
ENDBRANCH  15  16
ENDBRANCH   8  15
ENDBRANCH   7  13
ENDBRANCH   1   7
BRANCH   5  18
ATOM     18  C   UNL     1       1.322   4.881  20.101  0.00  0.00    +0.000 C 
BRANCH  18  19
ATOM     19  C   UNL     1       2.225   6.045  20.573  0.00  0.00    +0.000 C 
BRANCH  19  20
ATOM     20  C   UNL     1       2.059   7.297  19.721  0.00  0.00    +0.000 A 
ATOM     21  C   UNL     1       2.506   7.338  18.413  0.00  0.00    +0.000 A 
ATOM     22  C   UNL     1       2.280   8.507  17.709  0.00  0.00    +0.000 A 
ATOM     23  N   UNL     1       1.647   9.574  18.226  0.00  0.00    +0.000 NA
ATOM     24  C   UNL     1       1.227   9.425  19.490  0.00  0.00    +0.000 A 
ATOM     25  N   UNL     1       1.396   8.346  20.264  0.00  0.00    +0.000 NA
ENDBRANCH  19  20
ENDBRANCH  18  19
ENDBRANCH   5  18
TORSDOF 7
ENDMDL
MODEL 3
REMARK VINA RESULT:      -7.2      2.842      6.214
REMARK  Name = 
REMARK  7 active torsions:
REMARK  status: ('A' for Active; 'I' for Inactive)
REMARK    1  A    between atoms: C_2  and  O_3
REMARK    2  A    between atoms: C_2  and  C_4
REMARK    3  A    between atoms: C_9  and  C_10
REMARK    4  A    between atoms: C_10  and  N_11
REMARK    5  A    between atoms: C_15  and  C_16
REMARK    6  A    between atoms: C_16  and  C_17
REMARK    7  A    between atoms: C_17  and  C_18
REMARK                            x       y       z     vdW  Elec       q    Type
REMARK                         _______ _______ _______ _____ _____    ______ ____
ROOT
ATOM      1  N   UNL     1       1.445   4.738  20.249  0.00  0.00    +0.000 NA
ATOM      2  C   UNL     1       1.411   3.727  21.315  0.00  0.00    +0.000 C 
ATOM      3  C   UNL     1       2.345   2.521  21.171  0.00  0.00    +0.000 C 
ATOM      4  O   UNL     1       2.728   2.071  19.873  0.00  0.00    +0.000 OA
ATOM      5  C   UNL     1       2.363   2.826  18.720  0.00  0.00    +0.000 C 
ATOM      6  C   UNL     1       1.413   4.035  18.954  0.00  0.00    +0.000 C 
ENDROOT
BRANCH   1   7
ATOM      7  C   UNL     1       2.550   5.705  20.366  0.00  0.00    +0.000 C 
BRANCH   7  13
ATOM      8  C   UNL     1       1.621   8.105  19.995  0.00  0.00    +0.000 A 
ATOM      9  C   UNL     1       1.543   9.238  19.160  0.00  0.00    +0.000 A 
ATOM     10  C   UNL     1       2.093   9.226  17.881  0.00  0.00    +0.000 A 
ATOM     11  C   UNL     1       2.695   8.076  17.397  0.00  0.00    +0.000 A 
ATOM     12  C   UNL     1       2.781   6.941  18.201  0.00  0.00    +0.000 A 
ATOM     13  C   UNL     1       2.273   6.939  19.522  0.00  0.00    +0.000 A 
BRANCH   8  15
ATOM     14  O   UNL     1      -0.252   8.080  21.470  0.00  0.00    +0.000 OA
ATOM     15  C   UNL     1       0.950   8.264  21.325  0.00  0.00    +0.000 C 
BRANCH  15  16
ATOM     16  O   UNL     1       1.723   8.702  22.330  0.00  0.00    +0.000 OA
ATOM     17  H   UNL     1       2.682   8.507  22.229  0.00  0.00    +0.000 HD
ENDBRANCH  15  16
ENDBRANCH   8  15
ENDBRANCH   7  13
ENDBRANCH   1   7
BRANCH   5  18
ATOM     18  C   UNL     1       3.618   3.244  17.920  0.00  0.00    +0.000 C 
BRANCH  18  19
ATOM     19  C   UNL     1       4.881   3.582  18.746  0.00  0.00    +0.000 C 
BRANCH  19  20
ATOM     20  C   UNL     1       5.796   4.573  18.037  0.00  0.00    +0.000 A 
ATOM     21  C   UNL     1       5.581   4.929  16.718  0.00  0.00    +0.000 A 
ATOM     22  C   UNL     1       6.444   5.862  16.171  0.00  0.00    +0.000 A 
ATOM     23  N   UNL     1       7.451   6.432  16.855  0.00  0.00    +0.000 NA
ATOM     24  C   UNL     1       7.558   6.042  18.134  0.00  0.00    +0.000 A 
ATOM     25  N   UNL     1       6.786   5.147  18.761  0.00  0.00    +0.000 NA
ENDBRANCH  19  20
ENDBRANCH  18  19
ENDBRANCH   5  18
TORSDOF 7
ENDMDL
MODEL 4
REMARK VINA RESULT:      -7.2      3.282      5.330
REMARK  Name = 
REMARK  7 active torsions:
REMARK  status: ('A' for Active; 'I' for Inactive)
REMARK    1  A    between atoms: C_2  and  O_3
REMARK    2  A    between atoms: C_2  and  C_4
REMARK    3  A    between atoms: C_9  and  C_10
REMARK    4  A    between atoms: C_10  and  N_11
REMARK    5  A    between atoms: C_15  and  C_16
REMARK    6  A    between atoms: C_16  and  C_17
REMARK    7  A    between atoms: C_17  and  C_18
REMARK                            x       y       z     vdW  Elec       q    Type
REMARK                         _______ _______ _______ _____ _____    ______ ____
ROOT
ATOM      1  N   UNL     1       6.113   4.619  19.248  0.00  0.00    +0.000 NA
ATOM      2  C   UNL     1       7.294   5.318  19.770  0.00  0.00    +0.000 C 
ATOM      3  C   UNL     1       7.892   6.433  18.905  0.00  0.00    +0.000 C 
ATOM      4  O   UNL     1       7.752   6.383  17.488  0.00  0.00    +0.000 OA
ATOM      5  C   UNL     1       6.936   5.381  16.887  0.00  0.00    +0.000 C 
ATOM      6  C   UNL     1       6.368   4.287  17.834  0.00  0.00    +0.000 C 
ENDROOT
BRANCH   1   7
ATOM      7  C   UNL     1       4.841   5.332  19.464  0.00  0.00    +0.000 C 
BRANCH   7  13
ATOM      8  C   UNL     1       3.324   3.221  19.460  0.00  0.00    +0.000 A 
ATOM      9  C   UNL     1       2.136   2.607  19.015  0.00  0.00    +0.000 A 
ATOM     10  C   UNL     1       1.302   3.239  18.096  0.00  0.00    +0.000 A 
ATOM     11  C   UNL     1       1.656   4.472  17.574  0.00  0.00    +0.000 A 
ATOM     12  C   UNL     1       2.828   5.099  17.995  0.00  0.00    +0.000 A 
ATOM     13  C   UNL     1       3.670   4.503  18.964  0.00  0.00    +0.000 A 
BRANCH   8  15
ATOM     14  O   UNL     1       3.801   2.267  21.593  0.00  0.00    +0.000 OA
ATOM     15  C   UNL     1       4.129   2.399  20.420  0.00  0.00    +0.000 C 
BRANCH  15  16
ATOM     16  O   UNL     1       5.274   1.886  19.945  0.00  0.00    +0.000 OA
ATOM     17  H   UNL     1       5.661   1.164  20.491  0.00  0.00    +0.000 HD
ENDBRANCH  15  16
ENDBRANCH   8  15
ENDBRANCH   7  13
ENDBRANCH   1   7
BRANCH   5  18
ATOM     18  C   UNL     1       5.817   6.024  16.036  0.00  0.00    +0.000 C 
BRANCH  18  19
ATOM     19  C   UNL     1       5.015   5.072  15.118  0.00  0.00    +0.000 C 
BRANCH  19  20
ATOM     20  C   UNL     1       5.830   4.583  13.927  0.00  0.00    +0.000 A 
ATOM     21  C   UNL     1       5.365   3.570  13.109  0.00  0.00    +0.000 A 
ATOM     22  C   UNL     1       6.159   3.218  12.032  0.00  0.00    +0.000 A 
ATOM     23  N   UNL     1       7.329   3.816  11.746  0.00  0.00    +0.000 NA
ATOM     24  C   UNL     1       7.677   4.806  12.581  0.00  0.00    +0.000 A 
ATOM     25  N   UNL     1       6.991   5.223  13.653  0.00  0.00    +0.000 NA
ENDBRANCH  19  20
ENDBRANCH  18  19
ENDBRANCH   5  18
TORSDOF 7
ENDMDL
MODEL 5
REMARK VINA RESULT:      -7.1      2.970      6.440
REMARK  Name = 
REMARK  7 active torsions:
REMARK  status: ('A' for Active; 'I' for Inactive)
REMARK    1  A    between atoms: C_2  and  O_3
REMARK    2  A    between atoms: C_2  and  C_4
REMARK    3  A    between atoms: C_9  and  C_10
REMARK    4  A    between atoms: C_10  and  N_11
REMARK    5  A    between atoms: C_15  and  C_16
REMARK    6  A    between atoms: C_16  and  C_17
REMARK    7  A    between atoms: C_17  and  C_18
REMARK                            x       y       z     vdW  Elec       q    Type
REMARK                         _______ _______ _______ _____ _____    ______ ____
ROOT
ATOM      1  N   UNL     1       1.542   4.802  20.278  0.00  0.00    +0.000 NA
ATOM      2  C   UNL     1       1.446   3.818  21.364  0.00  0.00    +0.000 C 
ATOM      3  C   UNL     1       2.506   2.711  21.406  0.00  0.00    +0.000 C 
ATOM      4  O   UNL     1       3.123   2.275  20.197  0.00  0.00    +0.000 OA
ATOM      5  C   UNL     1       2.865   2.963  18.976  0.00  0.00    +0.000 C 
ATOM      6  C   UNL     1       1.776   4.072  19.020  0.00  0.00    +0.000 C 
ENDROOT
BRANCH   1   7
ATOM      7  C   UNL     1       2.516   5.881  20.522  0.00  0.00    +0.000 C 
BRANCH   7  13
ATOM      8  C   UNL     1       1.524   8.243  20.078  0.00  0.00    +0.000 A 
ATOM      9  C   UNL     1       1.423   9.351  19.212  0.00  0.00    +0.000 A 
ATOM     10  C   UNL     1       1.987   9.321  17.939  0.00  0.00    +0.000 A 
ATOM     11  C   UNL     1       2.625   8.175  17.491  0.00  0.00    +0.000 A 
ATOM     12  C   UNL     1       2.735   7.065  18.326  0.00  0.00    +0.000 A 
ATOM     13  C   UNL     1       2.213   7.084  19.643  0.00  0.00    +0.000 A 
BRANCH   8  15
ATOM     14  O   UNL     1      -0.375   8.277  21.518  0.00  0.00    +0.000 OA
ATOM     15  C   UNL     1       0.835   8.418  21.396  0.00  0.00    +0.000 C 
BRANCH  15  16
ATOM     16  O   UNL     1       1.604   8.823  22.418  0.00  0.00    +0.000 OA
ATOM     17  H   UNL     1       1.280   8.561  23.309  0.00  0.00    +0.000 HD
ENDBRANCH  15  16
ENDBRANCH   8  15
ENDBRANCH   7  13
ENDBRANCH   1   7
BRANCH   5  18
ATOM     18  C   UNL     1       4.180   3.490  18.356  0.00  0.00    +0.000 C 
BRANCH  18  19
ATOM     19  C   UNL     1       4.281   3.442  16.813  0.00  0.00    +0.000 C 
BRANCH  19  20
ATOM     20  C   UNL     1       5.444   4.269  16.277  0.00  0.00    +0.000 A 
ATOM     21  C   UNL     1       6.063   5.225  17.060  0.00  0.00    +0.000 A 
ATOM     22  C   UNL     1       7.131   5.901  16.498  0.00  0.00    +0.000 A 
ATOM     23  N   UNL     1       7.590   5.662  15.257  0.00  0.00    +0.000 NA
ATOM     24  C   UNL     1       6.941   4.697  14.590  0.00  0.00    +0.000 A 
ATOM     25  N   UNL     1       5.896   3.987  15.032  0.00  0.00    +0.000 NA
ENDBRANCH  19  20
ENDBRANCH  18  19
ENDBRANCH   5  18
TORSDOF 7
ENDMDL
MODEL 6
REMARK VINA RESULT:      -7.1      2.889      6.048
REMARK  Name = 
REMARK  7 active torsions:
REMARK  status: ('A' for Active; 'I' for Inactive)
REMARK    1  A    between atoms: C_2  and  O_3
REMARK    2  A    between atoms: C_2  and  C_4
REMARK    3  A    between atoms: C_9  and  C_10
REMARK    4  A    between atoms: C_10  and  N_11
REMARK    5  A    between atoms: C_15  and  C_16
REMARK    6  A    between atoms: C_16  and  C_17
REMARK    7  A    between atoms: C_17  and  C_18
REMARK                            x       y       z     vdW  Elec       q    Type
REMARK                         _______ _______ _______ _____ _____    ______ ____
ROOT
ATOM      1  N   UNL     1       1.634   5.102  19.845  0.00  0.00    +0.000 NA
ATOM      2  C   UNL     1       1.493   4.217  21.009  0.00  0.00    +0.000 C 
ATOM      3  C   UNL     1       2.521   3.090  21.165  0.00  0.00    +0.000 C 
ATOM      4  O   UNL     1       3.146   2.536  20.010  0.00  0.00    +0.000 OA
ATOM      5  C   UNL     1       2.928   3.123  18.730  0.00  0.00    +0.000 C 
ATOM      6  C   UNL     1       1.870   4.260  18.658  0.00  0.00    +0.000 C 
ENDROOT
BRANCH   1   7
ATOM      7  C   UNL     1       2.634   6.172  20.014  0.00  0.00    +0.000 C 
BRANCH   7  13
ATOM      8  C   UNL     1       1.434   8.477  20.080  0.00  0.00    +0.000 A 
ATOM      9  C   UNL     1       1.152   9.694  19.426  0.00  0.00    +0.000 A 
ATOM     10  C   UNL     1       1.558   9.914  18.113  0.00  0.00    +0.000 A 
ATOM     11  C   UNL     1       2.216   8.914  17.415  0.00  0.00    +0.000 A 
ATOM     12  C   UNL     1       2.502   7.700  18.036  0.00  0.00    +0.000 A 
ATOM     13  C   UNL     1       2.144   7.466  19.386  0.00  0.00    +0.000 A 
BRANCH   8  15
ATOM     14  O   UNL     1      -0.273   8.111  21.703  0.00  0.00    +0.000 OA
ATOM     15  C   UNL     1       0.899   8.381  21.476  0.00  0.00    +0.000 C 
BRANCH  15  16
ATOM     16  O   UNL     1       1.755   8.692  22.461  0.00  0.00    +0.000 OA
ATOM     17  H   UNL     1       2.604   9.089  22.161  0.00  0.00    +0.000 HD
ENDBRANCH  15  16
ENDBRANCH   8  15
ENDBRANCH   7  13
ENDBRANCH   1   7
BRANCH   5  18
ATOM     18  C   UNL     1       4.267   3.560  18.092  0.00  0.00    +0.000 C 
BRANCH  18  19
ATOM     19  C   UNL     1       5.333   4.134  19.054  0.00  0.00    +0.000 C 
BRANCH  19  20
ATOM     20  C   UNL     1       6.056   5.343  18.472  0.00  0.00    +0.000 A 
ATOM     21  C   UNL     1       7.290   5.739  18.955  0.00  0.00    +0.000 A 
ATOM     22  C   UNL     1       7.884   6.827  18.341  0.00  0.00    +0.000 A 
ATOM     23  N   UNL     1       7.332   7.490  17.310  0.00  0.00    +0.000 NA
ATOM     24  C   UNL     1       6.149   7.011  16.897  0.00  0.00    +0.000 A 
ATOM     25  N   UNL     1       5.484   5.974  17.420  0.00  0.00    +0.000 NA
ENDBRANCH  19  20
ENDBRANCH  18  19
ENDBRANCH   5  18
TORSDOF 7
ENDMDL
MODEL 7
REMARK VINA RESULT:      -7.1      1.839      4.551
REMARK  Name = 
REMARK  7 active torsions:
REMARK  status: ('A' for Active; 'I' for Inactive)
REMARK    1  A    between atoms: C_2  and  O_3
REMARK    2  A    between atoms: C_2  and  C_4
REMARK    3  A    between atoms: C_9  and  C_10
REMARK    4  A    between atoms: C_10  and  N_11
REMARK    5  A    between atoms: C_15  and  C_16
REMARK    6  A    between atoms: C_16  and  C_17
REMARK    7  A    between atoms: C_17  and  C_18
REMARK                            x       y       z     vdW  Elec       q    Type
REMARK                         _______ _______ _______ _____ _____    ______ ____
ROOT
ATOM      1  N   UNL     1       4.424   3.397  18.783  0.00  0.00    +0.000 NA
ATOM      2  C   UNL     1       3.709   2.119  18.673  0.00  0.00    +0.000 C 
ATOM      3  C   UNL     1       2.272   2.161  18.140  0.00  0.00    +0.000 C 
ATOM      4  O   UNL     1       1.476   3.327  18.340  0.00  0.00    +0.000 OA
ATOM      5  C   UNL     1       2.057   4.501  18.900  0.00  0.00    +0.000 C 
ATOM      6  C   UNL     1       3.519   4.374  19.416  0.00  0.00    +0.000 C 
ENDROOT
BRANCH   1   7
ATOM      7  C   UNL     1       5.012   3.875  17.519  0.00  0.00    +0.000 C 
BRANCH   7  13
ATOM      8  C   UNL     1       6.477   5.933  16.904  0.00  0.00    +0.000 A 
ATOM      9  C   UNL     1       7.419   6.895  17.323  0.00  0.00    +0.000 A 
ATOM     10  C   UNL     1       7.995   6.831  18.589  0.00  0.00    +0.000 A 
ATOM     11  C   UNL     1       7.675   5.789  19.443  0.00  0.00    +0.000 A 
ATOM     12  C   UNL     1       6.750   4.822  19.052  0.00  0.00    +0.000 A 
ATOM     13  C   UNL     1       6.112   4.888  17.789  0.00  0.00    +0.000 A 
BRANCH   8  15
ATOM     14  O   UNL     1       4.976   6.779  15.256  0.00  0.00    +0.000 OA
ATOM     15  C   UNL     1       5.977   6.119  15.504  0.00  0.00    +0.000 C 
BRANCH  15  16
ATOM     16  O   UNL     1       6.637   5.451  14.546  0.00  0.00    +0.000 OA
ATOM     17  H   UNL     1       6.856   5.983  13.747  0.00  0.00    +0.000 HD
ENDBRANCH  15  16
ENDBRANCH   8  15
ENDBRANCH   7  13
ENDBRANCH   1   7
BRANCH   5  18
ATOM     18  C   UNL     1       1.903   5.702  17.940  0.00  0.00    +0.000 C 
BRANCH  18  19
ATOM     19  C   UNL     1       2.828   6.914  18.198  0.00  0.00    +0.000 C 
BRANCH  19  20
ATOM     20  C   UNL     1       2.078   8.111  18.771  0.00  0.00    +0.000 A 
ATOM     21  C   UNL     1       1.698   8.148  20.100  0.00  0.00    +0.000 A 
ATOM     22  C   UNL     1       1.052   9.291  20.536  0.00  0.00    +0.000 A 
ATOM     23  N   UNL     1       0.797  10.347  19.744  0.00  0.00    +0.000 NA
ATOM     24  C   UNL     1       1.230  10.225  18.481  0.00  0.00    +0.000 A 
ATOM     25  N   UNL     1       1.858   9.167  17.953  0.00  0.00    +0.000 NA
ENDBRANCH  19  20
ENDBRANCH  18  19
ENDBRANCH   5  18
TORSDOF 7
ENDMDL
MODEL 8
REMARK VINA RESULT:      -7.1      3.243      4.172
REMARK  Name = 
REMARK  7 active torsions:
REMARK  status: ('A' for Active; 'I' for Inactive)
REMARK    1  A    between atoms: C_2  and  O_3
REMARK    2  A    between atoms: C_2  and  C_4
REMARK    3  A    between atoms: C_9  and  C_10
REMARK    4  A    between atoms: C_10  and  N_11
REMARK    5  A    between atoms: C_15  and  C_16
REMARK    6  A    between atoms: C_16  and  C_17
REMARK    7  A    between atoms: C_17  and  C_18
REMARK                            x       y       z     vdW  Elec       q    Type
REMARK                         _______ _______ _______ _____ _____    ______ ____
ROOT
ATOM      1  N   UNL     1       4.811   5.104  17.431  0.00  0.00    +0.000 NA
ATOM      2  C   UNL     1       5.758   4.166  16.816  0.00  0.00    +0.000 C 
ATOM      3  C   UNL     1       7.202   4.645  16.628  0.00  0.00    +0.000 C 
ATOM      4  O   UNL     1       7.470   6.034  16.453  0.00  0.00    +0.000 OA
ATOM      5  C   UNL     1       6.421   6.987  16.598  0.00  0.00    +0.000 C 
ATOM      6  C   UNL     1       4.986   6.418  16.785  0.00  0.00    +0.000 C 
ENDROOT
BRANCH   1   7
ATOM      7  C   UNL     1       4.879   5.159  18.902  0.00  0.00    +0.000 C 
BRANCH   7  13
ATOM      8  C   UNL     1       3.390   3.298  19.941  0.00  0.00    +0.000 A 
ATOM      9  C   UNL     1       2.203   2.962  20.623  0.00  0.00    +0.000 A 
ATOM     10  C   UNL     1       1.229   3.922  20.883  0.00  0.00    +0.000 A 
ATOM     11  C   UNL     1       1.400   5.221  20.436  0.00  0.00    +0.000 A 
ATOM     12  C   UNL     1       2.563   5.578  19.755  0.00  0.00    +0.000 A 
ATOM     13  C   UNL     1       3.592   4.635  19.518  0.00  0.00    +0.000 A 
BRANCH   8  15
ATOM     14  O   UNL     1       5.223   1.874  20.488  0.00  0.00    +0.000 OA
ATOM     15  C   UNL     1       4.321   2.148  19.706  0.00  0.00    +0.000 C 
BRANCH  15  16
ATOM     16  O   UNL     1       4.166   1.486  18.549  0.00  0.00    +0.000 OA
ATOM     17  H   UNL     1       4.111   2.058  17.750  0.00  0.00    +0.000 HD
ENDBRANCH  15  16
ENDBRANCH   8  15
ENDBRANCH   7  13
ENDBRANCH   1   7
BRANCH   5  18
ATOM     18  C   UNL     1       6.765   8.018  17.698  0.00  0.00    +0.000 C 
BRANCH  18  19
ATOM     19  C   UNL     1       8.260   8.158  18.067  0.00  0.00    +0.000 C 
BRANCH  19  20
ATOM     20  C   UNL     1       8.653   9.596  18.384  0.00  0.00    +0.000 A 
ATOM     21  C   UNL     1       8.277  10.639  17.558  0.00  0.00    +0.000 A 
ATOM     22  C   UNL     1       8.651  11.913  17.946  0.00  0.00    +0.000 A 
ATOM     23  N   UNL     1       9.337  12.174  19.072  0.00  0.00    +0.000 NA
ATOM     24  C   UNL     1       9.628  11.099  19.819  0.00  0.00    +0.000 A 
ATOM     25  N   UNL     1       9.323   9.827  19.538  0.00  0.00    +0.000 NA
ENDBRANCH  19  20
ENDBRANCH  18  19
ENDBRANCH   5  18
TORSDOF 7
ENDMDL
MODEL 9
REMARK VINA RESULT:      -7.1      2.897      6.304
REMARK  Name = 
REMARK  7 active torsions:
REMARK  status: ('A' for Active; 'I' for Inactive)
REMARK    1  A    between atoms: C_2  and  O_3
REMARK    2  A    between atoms: C_2  and  C_4
REMARK    3  A    between atoms: C_9  and  C_10
REMARK    4  A    between atoms: C_10  and  N_11
REMARK    5  A    between atoms: C_15  and  C_16
REMARK    6  A    between atoms: C_16  and  C_17
REMARK    7  A    between atoms: C_17  and  C_18
REMARK                            x       y       z     vdW  Elec       q    Type
REMARK                         _______ _______ _______ _____ _____    ______ ____
ROOT
ATOM      1  N   UNL     1       1.619   4.913  20.111  0.00  0.00    +0.000 NA
ATOM      2  C   UNL     1       1.534   4.062  21.305  0.00  0.00    +0.000 C 
ATOM      3  C   UNL     1       2.496   2.871  21.389  0.00  0.00    +0.000 C 
ATOM      4  O   UNL     1       2.966   2.254  20.194  0.00  0.00    +0.000 OA
ATOM      5  C   UNL     1       2.663   2.830  18.926  0.00  0.00    +0.000 C 
ATOM      6  C   UNL     1       1.680   4.035  18.928  0.00  0.00    +0.000 C 
ENDROOT
BRANCH   1   7
ATOM      7  C   UNL     1       2.698   5.915  20.155  0.00  0.00    +0.000 C 
BRANCH   7  13
ATOM      8  C   UNL     1       1.552   8.242  19.986  0.00  0.00    +0.000 A 
ATOM      9  C   UNL     1       1.349   9.421  19.240  0.00  0.00    +0.000 A 
ATOM     10  C   UNL     1       1.860   9.550  17.951  0.00  0.00    +0.000 A 
ATOM     11  C   UNL     1       2.545   8.497  17.368  0.00  0.00    +0.000 A 
ATOM     12  C   UNL     1       2.755   7.319  18.083  0.00  0.00    +0.000 A 
ATOM     13  C   UNL     1       2.289   7.176  19.413  0.00  0.00    +0.000 A 
BRANCH   8  15
ATOM     14  O   UNL     1       1.484   8.681  22.329  0.00  0.00    +0.000 OA
ATOM     15  C   UNL     1       0.910   8.244  21.340  0.00  0.00    +0.000 C 
BRANCH  15  16
ATOM     16  O   UNL     1      -0.296   7.661  21.425  0.00  0.00    +0.000 OA
ATOM     17  H   UNL     1      -0.591   7.453  22.341  0.00  0.00    +0.000 HD
ENDBRANCH  15  16
ENDBRANCH   8  15
ENDBRANCH   7  13
ENDBRANCH   1   7
BRANCH   5  18
ATOM     18  C   UNL     1       3.958   3.162  18.151  0.00  0.00    +0.000 C 
BRANCH  18  19
ATOM     19  C   UNL     1       3.809   4.101  16.931  0.00  0.00    +0.000 C 
BRANCH  19  20
ATOM     20  C   UNL     1       5.148   4.635  16.436  0.00  0.00    +0.000 A 
ATOM     21  C   UNL     1       5.660   4.257  15.209  0.00  0.00    +0.000 A 
ATOM     22  C   UNL     1       6.866   4.821  14.831  0.00  0.00    +0.000 A 
ATOM     23  N   UNL     1       7.537   5.711  15.584  0.00  0.00    +0.000 NA
ATOM     24  C   UNL     1       6.943   6.034  16.742  0.00  0.00    +0.000 A 
ATOM     25  N   UNL     1       5.786   5.547  17.207  0.00  0.00    +0.000 NA
ENDBRANCH  19  20
ENDBRANCH  18  19
ENDBRANCH   5  18
TORSDOF 7
ENDMDL
