MODEL 1
REMARK VINA RESULT:      -7.8      0.000      0.000
REMARK  Name = 
REMARK  3 active torsions:
REMARK  status: ('A' for Active; 'I' for Inactive)
REMARK    1  A    between atoms: C_2  and  O_3
REMARK    2  A    between atoms: C_2  and  C_4
REMARK    3  A    between atoms: C_9  and  C_10
REMARK                            x       y       z     vdW  Elec       q    Type
REMARK                         _______ _______ _______ _____ _____    ______ ____
ROOT
ATOM      1  C   UNL     1       2.867   3.771  19.955  0.00  0.00    +0.000 A 
ATOM      2  C   UNL     1       2.818   5.167  19.961  0.00  0.00    +0.000 A 
ATOM      3  C   UNL     1       3.429   5.905  18.943  0.00  0.00    +0.000 A 
ATOM      4  C   UNL     1       4.079   5.225  17.898  0.00  0.00    +0.000 A 
ATOM      5  C   UNL     1       4.755   5.652  16.727  0.00  0.00    +0.000 A 
ATOM      6  C   UNL     1       5.148   4.537  16.008  0.00  0.00    +0.000 A 
ATOM      7  N   UNL     1       4.769   3.442  16.755  0.00  0.00    +0.000 N 
ATOM      8  C   UNL     1       4.102   3.832  17.899  0.00  0.00    +0.000 A 
ATOM      9  C   UNL     1       3.504   3.071  18.914  0.00  0.00    +0.000 A 
ATOM     10  H   UNL     1       4.939   2.482  16.491  0.00  0.00    +0.000 HD
ENDROOT
BRANCH   6  11
ATOM     11  C   UNL     1       5.797   4.458  14.696  0.00  0.00    +0.000 A 
ATOM     12  C   UNL     1       5.237   3.662  13.686  0.00  0.00    +0.000 A 
ATOM     13  C   UNL     1       5.891   3.485  12.465  0.00  0.00    +0.000 A 
ATOM     14  C   UNL     1       7.114   4.109  12.235  0.00  0.00    +0.000 A 
ATOM     15  C   UNL     1       7.672   4.923  13.218  0.00  0.00    +0.000 A 
ATOM     16  C   UNL     1       7.016   5.100  14.442  0.00  0.00    +0.000 A 
ENDBRANCH   6  11
BRANCH   1  18
ATOM     17  O   UNL     1       2.766   2.558  22.002  0.00  0.00    +0.000 OA
ATOM     18  C   UNL     1       2.177   3.055  21.058  0.00  0.00    +0.000 C 
BRANCH  18  19
ATOM     19  O   UNL     1       0.842   2.964  20.886  0.00  0.00    +0.000 OA
ATOM     20  H   UNL     1       0.570   2.509  20.068  0.00  0.00    +0.000 HD
ENDBRANCH  18  19
ENDBRANCH   1  18
TORSDOF 3
ENDMDL
MODEL 2
REMARK VINA RESULT:      -7.7      0.208      1.154
REMARK  Name = 
REMARK  3 active torsions:
REMARK  status: ('A' for Active; 'I' for Inactive)
REMARK    1  A    between atoms: C_2  and  O_3
REMARK    2  A    between atoms: C_2  and  C_4
REMARK    3  A    between atoms: C_9  and  C_10
REMARK                            x       y       z     vdW  Elec       q    Type
REMARK                         _______ _______ _______ _____ _____    ______ ____
ROOT
ATOM      1  C   UNL     1       2.727   3.961  19.945  0.00  0.00    +0.000 A 
ATOM      2  C   UNL     1       2.710   5.357  19.886  0.00  0.00    +0.000 A 
ATOM      3  C   UNL     1       3.380   6.033  18.862  0.00  0.00    +0.000 A 
ATOM      4  C   UNL     1       4.057   5.292  17.878  0.00  0.00    +0.000 A 
ATOM      5  C   UNL     1       4.791   5.649  16.719  0.00  0.00    +0.000 A 
ATOM      6  C   UNL     1       5.188   4.494  16.069  0.00  0.00    +0.000 A 
ATOM      7  N   UNL     1       4.753   3.444  16.848  0.00  0.00    +0.000 N 
ATOM      8  C   UNL     1       4.048   3.900  17.943  0.00  0.00    +0.000 A 
ATOM      9  C   UNL     1       3.391   3.200  18.965  0.00  0.00    +0.000 A 
ATOM     10  H   UNL     1       4.912   2.469  16.635  0.00  0.00    +0.000 HD
ENDROOT
BRANCH   6  11
ATOM     11  C   UNL     1       5.890   4.341  14.791  0.00  0.00    +0.000 A 
ATOM     12  C   UNL     1       7.053   5.084  14.539  0.00  0.00    +0.000 A 
ATOM     13  C   UNL     1       7.679   5.037  13.292  0.00  0.00    +0.000 A 
ATOM     14  C   UNL     1       7.153   4.239  12.280  0.00  0.00    +0.000 A 
ATOM     15  C   UNL     1       6.013   3.475  12.521  0.00  0.00    +0.000 A 
ATOM     16  C   UNL     1       5.386   3.523  13.771  0.00  0.00    +0.000 A 
ENDBRANCH   6  11
BRANCH   1  18
ATOM     17  O   UNL     1       2.490   2.986  22.104  0.00  0.00    +0.000 OA
ATOM     18  C   UNL     1       1.976   3.312  21.049  0.00  0.00    +0.000 C 
BRANCH  18  19
ATOM     19  O   UNL     1       0.681   3.073  20.749  0.00  0.00    +0.000 OA
ATOM     20  H   UNL     1       0.486   2.148  20.513  0.00  0.00    +0.000 HD
ENDBRANCH  18  19
ENDBRANCH   1  18
TORSDOF 3
ENDMDL
MODEL 3
REMARK VINA RESULT:      -7.6      3.720      7.083
REMARK  Name = 
REMARK  3 active torsions:
REMARK  status: ('A' for Active; 'I' for Inactive)
REMARK    1  A    between atoms: C_2  and  O_3
REMARK    2  A    between atoms: C_2  and  C_4
REMARK    3  A    between atoms: C_9  and  C_10
REMARK                            x       y       z     vdW  Elec       q    Type
REMARK                         _______ _______ _______ _____ _____    ______ ____
ROOT
ATOM      1  C   UNL     1       6.643   4.606  14.609  0.00  0.00    +0.000 A 
ATOM      2  C   UNL     1       7.579   5.018  15.561  0.00  0.00    +0.000 A 
ATOM      3  C   UNL     1       7.253   5.031  16.920  0.00  0.00    +0.000 A 
ATOM      4  C   UNL     1       5.977   4.604  17.324  0.00  0.00    +0.000 A 
ATOM      5  C   UNL     1       5.347   4.465  18.586  0.00  0.00    +0.000 A 
ATOM      6  C   UNL     1       4.085   3.928  18.399  0.00  0.00    +0.000 A 
ATOM      7  N   UNL     1       3.922   3.792  17.038  0.00  0.00    +0.000 N 
ATOM      8  C   UNL     1       5.061   4.178  16.362  0.00  0.00    +0.000 A 
ATOM      9  C   UNL     1       5.363   4.166  14.993  0.00  0.00    +0.000 A 
ATOM     10  H   UNL     1       3.085   3.438  16.594  0.00  0.00    +0.000 HD
ENDROOT
BRANCH   6  11
ATOM     11  C   UNL     1       3.091   3.521  19.397  0.00  0.00    +0.000 A 
ATOM     12  C   UNL     1       1.771   3.987  19.298  0.00  0.00    +0.000 A 
ATOM     13  C   UNL     1       0.832   3.701  20.291  0.00  0.00    +0.000 A 
ATOM     14  C   UNL     1       1.201   2.939  21.396  0.00  0.00    +0.000 A 
ATOM     15  C   UNL     1       2.501   2.448  21.498  0.00  0.00    +0.000 A 
ATOM     16  C   UNL     1       3.441   2.734  20.502  0.00  0.00    +0.000 A 
ENDBRANCH   6  11
BRANCH   1  18
ATOM     17  O   UNL     1       6.659   3.790  12.372  0.00  0.00    +0.000 OA
ATOM     18  C   UNL     1       7.067   4.599  13.186  0.00  0.00    +0.000 C 
BRANCH  18  19
ATOM     19  O   UNL     1       7.986   5.545  12.896  0.00  0.00    +0.000 OA
ATOM     20  H   UNL     1       8.853   5.409  13.321  0.00  0.00    +0.000 HD
ENDBRANCH  18  19
ENDBRANCH   1  18
TORSDOF 3
ENDMDL
MODEL 4
REMARK VINA RESULT:      -7.6      4.136      7.251
REMARK  Name = 
REMARK  3 active torsions:
REMARK  status: ('A' for Active; 'I' for Inactive)
REMARK    1  A    between atoms: C_2  and  O_3
REMARK    2  A    between atoms: C_2  and  C_4
REMARK    3  A    between atoms: C_9  and  C_10
REMARK                            x       y       z     vdW  Elec       q    Type
REMARK                         _______ _______ _______ _____ _____    ______ ____
ROOT
ATOM      1  C   UNL     1       5.632   4.910  15.762  0.00  0.00    +0.000 A 
ATOM      2  C   UNL     1       4.955   3.830  16.336  0.00  0.00    +0.000 A 
ATOM      3  C   UNL     1       3.944   4.044  17.277  0.00  0.00    +0.000 A 
ATOM      4  C   UNL     1       3.600   5.361  17.628  0.00  0.00    +0.000 A 
ATOM      5  C   UNL     1       2.631   5.918  18.500  0.00  0.00    +0.000 A 
ATOM      6  C   UNL     1       2.687   7.298  18.406  0.00  0.00    +0.000 A 
ATOM      7  N   UNL     1       3.714   7.584  17.532  0.00  0.00    +0.000 N 
ATOM      8  C   UNL     1       4.273   6.426  17.032  0.00  0.00    +0.000 A 
ATOM      9  C   UNL     1       5.297   6.236  16.092  0.00  0.00    +0.000 A 
ATOM     10  H   UNL     1       4.006   8.517  17.278  0.00  0.00    +0.000 HD
ENDROOT
BRANCH   6  11
ATOM     11  C   UNL     1       1.835   8.308  19.040  0.00  0.00    +0.000 A 
ATOM     12  C   UNL     1       1.517   8.198  20.403  0.00  0.00    +0.000 A 
ATOM     13  C   UNL     1       0.623   9.085  21.005  0.00  0.00    +0.000 A 
ATOM     14  C   UNL     1       0.039  10.100  20.253  0.00  0.00    +0.000 A 
ATOM     15  C   UNL     1       0.363  10.239  18.905  0.00  0.00    +0.000 A 
ATOM     16  C   UNL     1       1.259   9.349  18.302  0.00  0.00    +0.000 A 
ENDBRANCH   6  11
BRANCH   1  18
ATOM     17  O   UNL     1       7.645   5.323  14.559  0.00  0.00    +0.000 OA
ATOM     18  C   UNL     1       6.679   4.606  14.754  0.00  0.00    +0.000 C 
BRANCH  18  19
ATOM     19  O   UNL     1       6.430   3.487  14.042  0.00  0.00    +0.000 OA
ATOM     20  H   UNL     1       6.890   3.443  13.184  0.00  0.00    +0.000 HD
ENDBRANCH  18  19
ENDBRANCH   1  18
TORSDOF 3
ENDMDL
MODEL 5
REMARK VINA RESULT:      -7.5      3.710      7.105
REMARK  Name = 
REMARK  3 active torsions:
REMARK  status: ('A' for Active; 'I' for Inactive)
REMARK    1  A    between atoms: C_2  and  O_3
REMARK    2  A    between atoms: C_2  and  C_4
REMARK    3  A    between atoms: C_9  and  C_10
REMARK                            x       y       z     vdW  Elec       q    Type
REMARK                         _______ _______ _______ _____ _____    ______ ____
ROOT
ATOM      1  C   UNL     1       6.615   4.621  14.632  0.00  0.00    +0.000 A 
ATOM      2  C   UNL     1       7.586   5.004  15.562  0.00  0.00    +0.000 A 
ATOM      3  C   UNL     1       7.284   5.051  16.926  0.00  0.00    +0.000 A 
ATOM      4  C   UNL     1       5.996   4.689  17.357  0.00  0.00    +0.000 A 
ATOM      5  C   UNL     1       5.383   4.598  18.632  0.00  0.00    +0.000 A 
ATOM      6  C   UNL     1       4.095   4.117  18.474  0.00  0.00    +0.000 A 
ATOM      7  N   UNL     1       3.902   3.969  17.118  0.00  0.00    +0.000 N 
ATOM      8  C   UNL     1       5.046   4.292  16.418  0.00  0.00    +0.000 A 
ATOM      9  C   UNL     1       5.323   4.246  15.044  0.00  0.00    +0.000 A 
ATOM     10  H   UNL     1       3.043   3.648  16.693  0.00  0.00    +0.000 HD
ENDROOT
BRANCH   6  11
ATOM     11  C   UNL     1       3.100   3.771  19.494  0.00  0.00    +0.000 A 
ATOM     12  C   UNL     1       3.445   2.900  20.539  0.00  0.00    +0.000 A 
ATOM     13  C   UNL     1       2.489   2.470  21.461  0.00  0.00    +0.000 A 
ATOM     14  C   UNL     1       1.173   2.912  21.354  0.00  0.00    +0.000 A 
ATOM     15  C   UNL     1       0.819   3.796  20.337  0.00  0.00    +0.000 A 
ATOM     16  C   UNL     1       1.778   4.226  19.413  0.00  0.00    +0.000 A 
ENDBRANCH   6  11
BRANCH   1  18
ATOM     17  O   UNL     1       6.587   3.746  12.418  0.00  0.00    +0.000 OA
ATOM     18  C   UNL     1       7.014   4.574  13.203  0.00  0.00    +0.000 C 
BRANCH  18  19
ATOM     19  O   UNL     1       7.934   5.505  12.872  0.00  0.00    +0.000 OA
ATOM     20  H   UNL     1       7.890   5.805  11.946  0.00  0.00    +0.000 HD
ENDBRANCH  18  19
ENDBRANCH   1  18
TORSDOF 3
ENDMDL
MODEL 6
REMARK VINA RESULT:      -7.5      4.405      5.842
REMARK  Name = 
REMARK  3 active torsions:
REMARK  status: ('A' for Active; 'I' for Inactive)
REMARK    1  A    between atoms: C_2  and  O_3
REMARK    2  A    between atoms: C_2  and  C_4
REMARK    3  A    between atoms: C_9  and  C_10
REMARK                            x       y       z     vdW  Elec       q    Type
REMARK                         _______ _______ _______ _____ _____    ______ ____
ROOT
ATOM      1  C   UNL     1       0.199   9.700  21.635  0.00  0.00    +0.000 A 
ATOM      2  C   UNL     1      -0.053  10.472  20.497  0.00  0.00    +0.000 A 
ATOM      3  C   UNL     1       0.527  10.139  19.269  0.00  0.00    +0.000 A 
ATOM      4  C   UNL     1       1.354   9.006  19.185  0.00  0.00    +0.000 A 
ATOM      5  C   UNL     1       2.056   8.386  18.121  0.00  0.00    +0.000 A 
ATOM      6  C   UNL     1       2.665   7.238  18.597  0.00  0.00    +0.000 A 
ATOM      7  N   UNL     1       2.387   7.185  19.946  0.00  0.00    +0.000 N 
ATOM      8  C   UNL     1       1.579   8.237  20.325  0.00  0.00    +0.000 A 
ATOM      9  C   UNL     1       1.015   8.556  21.569  0.00  0.00    +0.000 A 
ATOM     10  H   UNL     1       2.717   6.462  20.570  0.00  0.00    +0.000 HD
ENDROOT
BRANCH   6  11
ATOM     11  C   UNL     1       3.425   6.219  17.868  0.00  0.00    +0.000 A 
ATOM     12  C   UNL     1       4.503   6.600  17.055  0.00  0.00    +0.000 A 
ATOM     13  C   UNL     1       5.176   5.663  16.268  0.00  0.00    +0.000 A 
ATOM     14  C   UNL     1       4.783   4.328  16.289  0.00  0.00    +0.000 A 
ATOM     15  C   UNL     1       3.730   3.928  17.110  0.00  0.00    +0.000 A 
ATOM     16  C   UNL     1       3.057   4.868  17.898  0.00  0.00    +0.000 A 
ENDBRANCH   6  11
BRANCH   1  18
ATOM     17  O   UNL     1      -1.314  10.977  22.957  0.00  0.00    +0.000 OA
ATOM     18  C   UNL     1      -0.469  10.101  22.898  0.00  0.00    +0.000 C 
BRANCH  18  19
ATOM     19  O   UNL     1      -0.012   9.438  23.981  0.00  0.00    +0.000 OA
ATOM     20  H   UNL     1      -0.609   9.461  24.751  0.00  0.00    +0.000 HD
ENDBRANCH  18  19
ENDBRANCH   1  18
TORSDOF 3
ENDMDL
MODEL 7
REMARK VINA RESULT:      -7.5      4.087      7.262
REMARK  Name = 
REMARK  3 active torsions:
REMARK  status: ('A' for Active; 'I' for Inactive)
REMARK    1  A    between atoms: C_2  and  O_3
REMARK    2  A    between atoms: C_2  and  C_4
REMARK    3  A    between atoms: C_9  and  C_10
REMARK                            x       y       z     vdW  Elec       q    Type
REMARK                         _______ _______ _______ _____ _____    ______ ____
ROOT
ATOM      1  C   UNL     1       5.653   4.914  15.733  0.00  0.00    +0.000 A 
ATOM      2  C   UNL     1       5.065   3.796  16.331  0.00  0.00    +0.000 A 
ATOM      3  C   UNL     1       4.090   3.950  17.321  0.00  0.00    +0.000 A 
ATOM      4  C   UNL     1       3.692   5.243  17.698  0.00  0.00    +0.000 A 
ATOM      5  C   UNL     1       2.736   5.742  18.619  0.00  0.00    +0.000 A 
ATOM      6  C   UNL     1       2.712   7.123  18.533  0.00  0.00    +0.000 A 
ATOM      7  N   UNL     1       3.678   7.469  17.613  0.00  0.00    +0.000 N 
ATOM      8  C   UNL     1       4.276   6.347  17.078  0.00  0.00    +0.000 A 
ATOM      9  C   UNL     1       5.262   6.218  16.089  0.00  0.00    +0.000 A 
ATOM     10  H   UNL     1       3.905   8.419  17.351  0.00  0.00    +0.000 HD
ENDROOT
BRANCH   6  11
ATOM     11  C   UNL     1       1.837   8.081  19.214  0.00  0.00    +0.000 A 
ATOM     12  C   UNL     1       1.401   9.232  18.539  0.00  0.00    +0.000 A 
ATOM     13  C   UNL     1       0.656  10.213  19.198  0.00  0.00    +0.000 A 
ATOM     14  C   UNL     1       0.330  10.051  20.541  0.00  0.00    +0.000 A 
ATOM     15  C   UNL     1       0.734   8.903  21.220  0.00  0.00    +0.000 A 
ATOM     16  C   UNL     1       1.481   7.921  20.559  0.00  0.00    +0.000 A 
ENDBRANCH   6  11
BRANCH   1  18
ATOM     17  O   UNL     1       7.655   5.369  14.527  0.00  0.00    +0.000 OA
ATOM     18  C   UNL     1       6.666   4.674  14.674  0.00  0.00    +0.000 C 
BRANCH  18  19
ATOM     19  O   UNL     1       6.357   3.641  13.861  0.00  0.00    +0.000 OA
ATOM     20  H   UNL     1       5.921   3.900  13.029  0.00  0.00    +0.000 HD
ENDBRANCH  18  19
ENDBRANCH   1  18
TORSDOF 3
ENDMDL
MODEL 8
REMARK VINA RESULT:      -7.5      4.383      5.725
REMARK  Name = 
REMARK  3 active torsions:
REMARK  status: ('A' for Active; 'I' for Inactive)
REMARK    1  A    between atoms: C_2  and  O_3
REMARK    2  A    between atoms: C_2  and  C_4
REMARK    3  A    between atoms: C_9  and  C_10
REMARK                            x       y       z     vdW  Elec       q    Type
REMARK                         _______ _______ _______ _____ _____    ______ ____
ROOT
ATOM      1  C   UNL     1       0.294   9.771  21.483  0.00  0.00    +0.000 A 
ATOM      2  C   UNL     1       0.082  10.550  20.342  0.00  0.00    +0.000 A 
ATOM      3  C   UNL     1       0.652  10.188  19.118  0.00  0.00    +0.000 A 
ATOM      4  C   UNL     1       1.427   9.018  19.041  0.00  0.00    +0.000 A 
ATOM      5  C   UNL     1       2.105   8.363  17.982  0.00  0.00    +0.000 A 
ATOM      6  C   UNL     1       2.660   7.191  18.465  0.00  0.00    +0.000 A 
ATOM      7  N   UNL     1       2.375   7.155  19.813  0.00  0.00    +0.000 N 
ATOM      8  C   UNL     1       1.613   8.243  20.185  0.00  0.00    +0.000 A 
ATOM      9  C   UNL     1       1.058   8.592  21.426  0.00  0.00    +0.000 A 
ATOM     10  H   UNL     1       2.669   6.420  20.441  0.00  0.00    +0.000 HD
ENDROOT
BRANCH   6  11
ATOM     11  C   UNL     1       3.378   6.136  17.743  0.00  0.00    +0.000 A 
ATOM     12  C   UNL     1       2.911   4.814  17.793  0.00  0.00    +0.000 A 
ATOM     13  C   UNL     1       3.634   3.774  17.204  0.00  0.00    +0.000 A 
ATOM     14  C   UNL     1       4.832   4.045  16.550  0.00  0.00    +0.000 A 
ATOM     15  C   UNL     1       5.297   5.356  16.469  0.00  0.00    +0.000 A 
ATOM     16  C   UNL     1       4.572   6.397  17.060  0.00  0.00    +0.000 A 
ENDBRANCH   6  11
BRANCH   1  18
ATOM     17  O   UNL     1      -0.464  11.376  23.071  0.00  0.00    +0.000 OA
ATOM     18  C   UNL     1      -0.361  10.207  22.743  0.00  0.00    +0.000 C 
BRANCH  18  19
ATOM     19  O   UNL     1      -0.783   9.180  23.510  0.00  0.00    +0.000 OA
ATOM     20  H   UNL     1      -0.336   8.333  23.333  0.00  0.00    +0.000 HD
ENDBRANCH  18  19
ENDBRANCH   1  18
TORSDOF 3
ENDMDL
MODEL 9
REMARK VINA RESULT:      -7.3      3.672      7.044
REMARK  Name = 
REMARK  3 active torsions:
REMARK  status: ('A' for Active; 'I' for Inactive)
REMARK    1  A    between atoms: C_2  and  O_3
REMARK    2  A    between atoms: C_2  and  C_4
REMARK    3  A    between atoms: C_9  and  C_10
REMARK                            x       y       z     vdW  Elec       q    Type
REMARK                         _______ _______ _______ _____ _____    ______ ____
ROOT
ATOM      1  C   UNL     1       6.320   4.195  14.064  0.00  0.00    +0.000 A 
ATOM      2  C   UNL     1       7.183   5.059  14.744  0.00  0.00    +0.000 A 
ATOM      3  C   UNL     1       6.912   5.443  16.061  0.00  0.00    +0.000 A 
ATOM      4  C   UNL     1       5.770   4.935  16.703  0.00  0.00    +0.000 A 
ATOM      5  C   UNL     1       5.231   5.091  18.005  0.00  0.00    +0.000 A 
ATOM      6  C   UNL     1       4.105   4.295  18.120  0.00  0.00    +0.000 A 
ATOM      7  N   UNL     1       3.925   3.702  16.889  0.00  0.00    +0.000 N 
ATOM      8  C   UNL     1       4.931   4.060  16.016  0.00  0.00    +0.000 A 
ATOM      9  C   UNL     1       5.177   3.668  14.692  0.00  0.00    +0.000 A 
ATOM     10  H   UNL     1       3.166   3.074  16.662  0.00  0.00    +0.000 HD
ENDROOT
BRANCH   6  11
ATOM     11  C   UNL     1       3.257   4.048  19.290  0.00  0.00    +0.000 A 
ATOM     12  C   UNL     1       3.522   2.953  20.126  0.00  0.00    +0.000 A 
ATOM     13  C   UNL     1       2.668   2.633  21.184  0.00  0.00    +0.000 A 
ATOM     14  C   UNL     1       1.539   3.410  21.423  0.00  0.00    +0.000 A 
ATOM     15  C   UNL     1       1.274   4.516  20.617  0.00  0.00    +0.000 A 
ATOM     16  C   UNL     1       2.130   4.835  19.558  0.00  0.00    +0.000 A 
ENDBRANCH   6  11
BRANCH   1  18
ATOM     17  O   UNL     1       7.355   4.521  11.944  0.00  0.00    +0.000 OA
ATOM     18  C   UNL     1       6.684   3.814  12.676  0.00  0.00    +0.000 C 
BRANCH  18  19
ATOM     19  O   UNL     1       6.156   2.634  12.287  0.00  0.00    +0.000 OA
ATOM     20  H   UNL     1       6.743   1.867  12.420  0.00  0.00    +0.000 HD
ENDBRANCH  18  19
ENDBRANCH   1  18
TORSDOF 3
ENDMDL
