MODEL 1
REMARK VINA RESULT:      -8.1      0.000      0.000
REMARK  Name = 
REMARK  3 active torsions:
REMARK  status: ('A' for Active; 'I' for Inactive)
REMARK    1  A    between atoms: C_1  and  N_2
REMARK    2  A    between atoms: C_8  and  C_9
REMARK    3  A    between atoms: C_9  and  C_10
REMARK                            x       y       z     vdW  Elec       q    Type
REMARK                         _______ _______ _______ _____ _____    ______ ____
ROOT
ATOM      1  C   UNL     1       8.161   9.059  17.821  0.00  0.00    +0.000 C 
ATOM      2  N   UNL     1       8.002   7.646  18.068  0.00  0.00    +0.000 N 
ATOM      3  C   UNL     1       6.933   6.947  17.540  0.00  0.00    +0.000 A 
ATOM      4  N   UNL     1       6.348   7.361  16.435  0.00  0.00    +0.000 NA
ATOM      5  C   UNL     1       5.274   6.648  15.933  0.00  0.00    +0.000 A 
ATOM      6  C   UNL     1       4.766   5.544  16.505  0.00  0.00    +0.000 A 
ATOM      7  N   UNL     1       5.352   5.091  17.669  0.00  0.00    +0.000 N 
ATOM      8  C   UNL     1       5.128   4.041  18.529  0.00  0.00    +0.000 A 
ATOM      9  N   UNL     1       6.012   4.101  19.514  0.00  0.00    +0.000 NA
ATOM     10  N   UNL     1       6.830   5.193  19.306  0.00  0.00    +0.000 NA
ATOM     11  C   UNL     1       6.423   5.759  18.195  0.00  0.00    +0.000 A 
ATOM     12  H   UNL     1       8.260   7.343  19.004  0.00  0.00    +0.000 HD
ENDROOT
BRANCH   8  13
ATOM     13  C   UNL     1       4.094   2.984  18.341  0.00  0.00    +0.000 C 
BRANCH  13  14
ATOM     14  C   UNL     1       3.028   2.986  19.403  0.00  0.00    +0.000 A 
ATOM     15  C   UNL     1       1.766   3.528  19.159  0.00  0.00    +0.000 A 
ATOM     16  F   UNL     1       1.482   4.038  17.953  0.00  0.00    +0.000 F 
ATOM     17  C   UNL     1       0.772   3.540  20.137  0.00  0.00    +0.000 A 
ATOM     18  C   UNL     1       1.032   3.001  21.395  0.00  0.00    +0.000 A 
ATOM     19  C   UNL     1       2.286   2.451  21.660  0.00  0.00    +0.000 A 
ATOM     20  C   UNL     1       3.267   2.447  20.668  0.00  0.00    +0.000 A 
ATOM     21  F   UNL     1       4.453   1.889  20.946  0.00  0.00    +0.000 F 
ENDBRANCH  13  14
ENDBRANCH   8  13
TORSDOF 2
ENDMDL
MODEL 2
REMARK VINA RESULT:      -8.0      0.416      1.883
REMARK  Name = 
REMARK  3 active torsions:
REMARK  status: ('A' for Active; 'I' for Inactive)
REMARK    1  A    between atoms: C_1  and  N_2
REMARK    2  A    between atoms: C_8  and  C_9
REMARK    3  A    between atoms: C_9  and  C_10
REMARK                            x       y       z     vdW  Elec       q    Type
REMARK                         _______ _______ _______ _____ _____    ______ ____
ROOT
ATOM      1  C   UNL     1       8.560   9.138  18.222  0.00  0.00    +0.000 C 
ATOM      2  N   UNL     1       8.317   7.748  18.523  0.00  0.00    +0.000 N 
ATOM      3  C   UNL     1       7.325   7.041  17.873  0.00  0.00    +0.000 A 
ATOM      4  N   UNL     1       6.938   7.396  16.665  0.00  0.00    +0.000 NA
ATOM      5  C   UNL     1       5.935   6.677  16.039  0.00  0.00    +0.000 A 
ATOM      6  C   UNL     1       5.306   5.624  16.587  0.00  0.00    +0.000 A 
ATOM      7  N   UNL     1       5.683   5.233  17.855  0.00  0.00    +0.000 N 
ATOM      8  C   UNL     1       5.290   4.246  18.729  0.00  0.00    +0.000 A 
ATOM      9  N   UNL     1       6.008   4.349  19.838  0.00  0.00    +0.000 NA
ATOM     10  N   UNL     1       6.883   5.407  19.700  0.00  0.00    +0.000 NA
ATOM     11  C   UNL     1       6.678   5.909  18.506  0.00  0.00    +0.000 A 
ATOM     12  H   UNL     1       8.412   7.500  19.506  0.00  0.00    +0.000 HD
ENDROOT
BRANCH   8  13
ATOM     13  C   UNL     1       4.266   3.203  18.439  0.00  0.00    +0.000 C 
BRANCH  13  14
ATOM     14  C   UNL     1       3.144   3.164  19.441  0.00  0.00    +0.000 A 
ATOM     15  C   UNL     1       3.286   2.502  20.660  0.00  0.00    +0.000 A 
ATOM     16  F   UNL     1       4.447   1.905  20.964  0.00  0.00    +0.000 F 
ATOM     17  C   UNL     1       2.250   2.455  21.594  0.00  0.00    +0.000 A 
ATOM     18  C   UNL     1       1.037   3.081  21.314  0.00  0.00    +0.000 A 
ATOM     19  C   UNL     1       0.875   3.751  20.103  0.00  0.00    +0.000 A 
ATOM     20  C   UNL     1       1.923   3.788  19.182  0.00  0.00    +0.000 A 
ATOM     21  F   UNL     1       1.744   4.462  18.038  0.00  0.00    +0.000 F 
ENDBRANCH  13  14
ENDBRANCH   8  13
TORSDOF 2
ENDMDL
MODEL 3
REMARK VINA RESULT:      -7.6      4.660      5.439
REMARK  Name = 
REMARK  3 active torsions:
REMARK  status: ('A' for Active; 'I' for Inactive)
REMARK    1  A    between atoms: C_1  and  N_2
REMARK    2  A    between atoms: C_8  and  C_9
REMARK    3  A    between atoms: C_9  and  C_10
REMARK                            x       y       z     vdW  Elec       q    Type
REMARK                         _______ _______ _______ _____ _____    ______ ____
ROOT
ATOM      1  C   UNL     1      -0.363  12.476  18.748  0.00  0.00    +0.000 C 
ATOM      2  N   UNL     1       0.059  11.189  18.246  0.00  0.00    +0.000 N 
ATOM      3  C   UNL     1       0.476  10.192  19.106  0.00  0.00    +0.000 A 
ATOM      4  N   UNL     1       0.040  10.160  20.348  0.00  0.00    +0.000 NA
ATOM      5  C   UNL     1       0.480   9.155  21.192  0.00  0.00    +0.000 A 
ATOM      6  C   UNL     1       1.347   8.194  20.834  0.00  0.00    +0.000 A 
ATOM      7  N   UNL     1       1.830   8.207  19.541  0.00  0.00    +0.000 N 
ATOM      8  C   UNL     1       2.704   7.429  18.819  0.00  0.00    +0.000 A 
ATOM      9  N   UNL     1       2.804   7.925  17.595  0.00  0.00    +0.000 NA
ATOM     10  N   UNL     1       1.989   9.035  17.502  0.00  0.00    +0.000 NA
ATOM     11  C   UNL     1       1.412   9.175  18.670  0.00  0.00    +0.000 A 
ATOM     12  H   UNL     1       0.587  11.221  17.378  0.00  0.00    +0.000 HD
ENDROOT
BRANCH   8  13
ATOM     13  C   UNL     1       3.377   6.199  19.325  0.00  0.00    +0.000 C 
BRANCH  13  14
ATOM     14  C   UNL     1       2.557   4.950  19.157  0.00  0.00    +0.000 A 
ATOM     15  C   UNL     1       2.630   4.187  17.992  0.00  0.00    +0.000 A 
ATOM     16  F   UNL     1       3.460   4.554  17.006  0.00  0.00    +0.000 F 
ATOM     17  C   UNL     1       1.869   3.030  17.824  0.00  0.00    +0.000 A 
ATOM     18  C   UNL     1       1.010   2.613  18.838  0.00  0.00    +0.000 A 
ATOM     19  C   UNL     1       0.924   3.358  20.013  0.00  0.00    +0.000 A 
ATOM     20  C   UNL     1       1.693   4.512  20.163  0.00  0.00    +0.000 A 
ATOM     21  F   UNL     1       1.606   5.193  21.314  0.00  0.00    +0.000 F 
ENDBRANCH  13  14
ENDBRANCH   8  13
TORSDOF 2
ENDMDL
MODEL 4
REMARK VINA RESULT:      -7.6      4.812      5.702
REMARK  Name = 
REMARK  3 active torsions:
REMARK  status: ('A' for Active; 'I' for Inactive)
REMARK    1  A    between atoms: C_1  and  N_2
REMARK    2  A    between atoms: C_8  and  C_9
REMARK    3  A    between atoms: C_9  and  C_10
REMARK                            x       y       z     vdW  Elec       q    Type
REMARK                         _______ _______ _______ _____ _____    ______ ____
ROOT
ATOM      1  C   UNL     1      -0.697  12.510  18.619  0.00  0.00    +0.000 C 
ATOM      2  N   UNL     1      -0.253  11.215  18.161  0.00  0.00    +0.000 N 
ATOM      3  C   UNL     1       0.229  10.273  19.048  0.00  0.00    +0.000 A 
ATOM      4  N   UNL     1      -0.160  10.284  20.307  0.00  0.00    +0.000 NA
ATOM      5  C   UNL     1       0.345   9.335  21.178  0.00  0.00    +0.000 A 
ATOM      6  C   UNL     1       1.229   8.385  20.830  0.00  0.00    +0.000 A 
ATOM      7  N   UNL     1       1.662   8.353  19.520  0.00  0.00    +0.000 N 
ATOM      8  C   UNL     1       2.534   7.570  18.801  0.00  0.00    +0.000 A 
ATOM      9  N   UNL     1       2.572   8.011  17.552  0.00  0.00    +0.000 NA
ATOM     10  N   UNL     1       1.719   9.090  17.441  0.00  0.00    +0.000 NA
ATOM     11  C   UNL     1       1.181   9.266  18.623  0.00  0.00    +0.000 A 
ATOM     12  H   UNL     1       0.242  11.223  17.272  0.00  0.00    +0.000 HD
ENDROOT
BRANCH   8  13
ATOM     13  C   UNL     1       3.266   6.387  19.335  0.00  0.00    +0.000 C 
BRANCH  13  14
ATOM     14  C   UNL     1       2.589   5.075  19.041  0.00  0.00    +0.000 A 
ATOM     15  C   UNL     1       1.662   4.525  19.926  0.00  0.00    +0.000 A 
ATOM     16  F   UNL     1       1.345   5.180  21.051  0.00  0.00    +0.000 F 
ATOM     17  C   UNL     1       1.034   3.307  19.666  0.00  0.00    +0.000 A 
ATOM     18  C   UNL     1       1.330   2.611  18.496  0.00  0.00    +0.000 A 
ATOM     19  C   UNL     1       2.251   3.144  17.595  0.00  0.00    +0.000 A 
ATOM     20  C   UNL     1       2.869   4.364  17.873  0.00  0.00    +0.000 A 
ATOM     21  F   UNL     1       3.730   4.862  16.976  0.00  0.00    +0.000 F 
ENDBRANCH  13  14
ENDBRANCH   8  13
TORSDOF 2
ENDMDL
MODEL 5
REMARK VINA RESULT:      -7.3      4.473      5.086
REMARK  Name = 
REMARK  3 active torsions:
REMARK  status: ('A' for Active; 'I' for Inactive)
REMARK    1  A    between atoms: C_1  and  N_2
REMARK    2  A    between atoms: C_8  and  C_9
REMARK    3  A    between atoms: C_9  and  C_10
REMARK                            x       y       z     vdW  Elec       q    Type
REMARK                         _______ _______ _______ _____ _____    ______ ____
ROOT
ATOM      1  C   UNL     1      -0.795  11.168  21.380  0.00  0.00    +0.000 C 
ATOM      2  N   UNL     1       0.239  10.161  21.386  0.00  0.00    +0.000 N 
ATOM      3  C   UNL     1       0.894   9.805  20.224  0.00  0.00    +0.000 A 
ATOM      4  N   UNL     1       0.998  10.664  19.230  0.00  0.00    +0.000 NA
ATOM      5  C   UNL     1       1.652  10.280  18.073  0.00  0.00    +0.000 A 
ATOM      6  C   UNL     1       2.194   9.067  17.878  0.00  0.00    +0.000 A 
ATOM      7  N   UNL     1       2.093   8.142  18.898  0.00  0.00    +0.000 N 
ATOM      8  C   UNL     1       2.497   6.840  19.076  0.00  0.00    +0.000 A 
ATOM      9  N   UNL     1       2.112   6.436  20.278  0.00  0.00    +0.000 NA
ATOM     10  N   UNL     1       1.453   7.475  20.902  0.00  0.00    +0.000 NA
ATOM     11  C   UNL     1       1.465   8.483  20.064  0.00  0.00    +0.000 A 
ATOM     12  H   UNL     1       0.065   9.375  22.009  0.00  0.00    +0.000 HD
ENDROOT
BRANCH   8  13
ATOM     13  C   UNL     1       3.288   6.045  18.095  0.00  0.00    +0.000 C 
BRANCH  13  14
ATOM     14  C   UNL     1       3.193   4.558  18.306  0.00  0.00    +0.000 A 
ATOM     15  C   UNL     1       2.081   3.836  17.872  0.00  0.00    +0.000 A 
ATOM     16  F   UNL     1       1.084   4.467  17.235  0.00  0.00    +0.000 F 
ATOM     17  C   UNL     1       1.979   2.459  18.066  0.00  0.00    +0.000 A 
ATOM     18  C   UNL     1       3.007   1.773  18.710  0.00  0.00    +0.000 A 
ATOM     19  C   UNL     1       4.130   2.474  19.148  0.00  0.00    +0.000 A 
ATOM     20  C   UNL     1       4.214   3.851  18.944  0.00  0.00    +0.000 A 
ATOM     21  F   UNL     1       5.316   4.492  19.355  0.00  0.00    +0.000 F 
ENDBRANCH  13  14
ENDBRANCH   8  13
TORSDOF 2
ENDMDL
MODEL 6
REMARK VINA RESULT:      -7.1      2.242      3.528
REMARK  Name = 
REMARK  3 active torsions:
REMARK  status: ('A' for Active; 'I' for Inactive)
REMARK    1  A    between atoms: C_1  and  N_2
REMARK    2  A    between atoms: C_8  and  C_9
REMARK    3  A    between atoms: C_9  and  C_10
REMARK                            x       y       z     vdW  Elec       q    Type
REMARK                         _______ _______ _______ _____ _____    ______ ____
ROOT
ATOM      1  C   UNL     1       7.916   5.461  12.409  0.00  0.00    +0.000 C 
ATOM      2  N   UNL     1       8.050   5.561  13.843  0.00  0.00    +0.000 N 
ATOM      3  C   UNL     1       7.138   4.957  14.687  0.00  0.00    +0.000 A 
ATOM      4  N   UNL     1       6.467   3.896  14.291  0.00  0.00    +0.000 NA
ATOM      5  C   UNL     1       5.553   3.315  15.152  0.00  0.00    +0.000 A 
ATOM      6  C   UNL     1       5.287   3.769  16.388  0.00  0.00    +0.000 A 
ATOM      7  N   UNL     1       5.968   4.885  16.828  0.00  0.00    +0.000 N 
ATOM      8  C   UNL     1       5.972   5.633  17.983  0.00  0.00    +0.000 A 
ATOM      9  N   UNL     1       6.839   6.624  17.845  0.00  0.00    +0.000 NA
ATOM     10  N   UNL     1       7.416   6.535  16.594  0.00  0.00    +0.000 NA
ATOM     11  C   UNL     1       6.888   5.484  16.013  0.00  0.00    +0.000 A 
ATOM     12  H   UNL     1       8.376   6.464  14.179  0.00  0.00    +0.000 HD
ENDROOT
BRANCH   8  13
ATOM     13  C   UNL     1       5.172   5.331  19.204  0.00  0.00    +0.000 C 
BRANCH  13  14
ATOM     14  C   UNL     1       3.863   4.647  18.914  0.00  0.00    +0.000 A 
ATOM     15  C   UNL     1       3.638   3.324  19.294  0.00  0.00    +0.000 A 
ATOM     16  F   UNL     1       4.592   2.648  19.950  0.00  0.00    +0.000 F 
ATOM     17  C   UNL     1       2.431   2.680  19.026  0.00  0.00    +0.000 A 
ATOM     18  C   UNL     1       1.414   3.362  18.362  0.00  0.00    +0.000 A 
ATOM     19  C   UNL     1       1.616   4.687  17.976  0.00  0.00    +0.000 A 
ATOM     20  C   UNL     1       2.830   5.315  18.253  0.00  0.00    +0.000 A 
ATOM     21  F   UNL     1       2.984   6.596  17.892  0.00  0.00    +0.000 F 
ENDBRANCH  13  14
ENDBRANCH   8  13
TORSDOF 2
ENDMDL
MODEL 7
REMARK VINA RESULT:      -7.1      2.229      3.072
REMARK  Name = 
REMARK  3 active torsions:
REMARK  status: ('A' for Active; 'I' for Inactive)
REMARK    1  A    between atoms: C_1  and  N_2
REMARK    2  A    between atoms: C_8  and  C_9
REMARK    3  A    between atoms: C_9  and  C_10
REMARK                            x       y       z     vdW  Elec       q    Type
REMARK                         _______ _______ _______ _____ _____    ______ ____
ROOT
ATOM      1  C   UNL     1       7.927   5.454  12.419  0.00  0.00    +0.000 C 
ATOM      2  N   UNL     1       8.051   5.560  13.853  0.00  0.00    +0.000 N 
ATOM      3  C   UNL     1       7.134   4.960  14.694  0.00  0.00    +0.000 A 
ATOM      4  N   UNL     1       6.465   3.897  14.297  0.00  0.00    +0.000 NA
ATOM      5  C   UNL     1       5.546   3.319  15.155  0.00  0.00    +0.000 A 
ATOM      6  C   UNL     1       5.271   3.778  16.387  0.00  0.00    +0.000 A 
ATOM      7  N   UNL     1       5.948   4.897  16.827  0.00  0.00    +0.000 N 
ATOM      8  C   UNL     1       5.945   5.649  17.979  0.00  0.00    +0.000 A 
ATOM      9  N   UNL     1       6.813   6.640  17.843  0.00  0.00    +0.000 NA
ATOM     10  N   UNL     1       7.398   6.545  16.596  0.00  0.00    +0.000 NA
ATOM     11  C   UNL     1       6.874   5.493  16.016  0.00  0.00    +0.000 A 
ATOM     12  H   UNL     1       8.375   6.465  14.188  0.00  0.00    +0.000 HD
ENDROOT
BRANCH   8  13
ATOM     13  C   UNL     1       5.137   5.352  19.195  0.00  0.00    +0.000 C 
BRANCH  13  14
ATOM     14  C   UNL     1       3.853   4.623  18.904  0.00  0.00    +0.000 A 
ATOM     15  C   UNL     1       2.796   5.254  18.247  0.00  0.00    +0.000 A 
ATOM     16  F   UNL     1       2.927   6.525  17.844  0.00  0.00    +0.000 F 
ATOM     17  C   UNL     1       1.600   4.590  17.977  0.00  0.00    +0.000 A 
ATOM     18  C   UNL     1       1.441   3.262  18.368  0.00  0.00    +0.000 A 
ATOM     19  C   UNL     1       2.486   2.611  19.023  0.00  0.00    +0.000 A 
ATOM     20  C   UNL     1       3.675   3.291  19.284  0.00  0.00    +0.000 A 
ATOM     21  F   UNL     1       4.669   2.631  19.893  0.00  0.00    +0.000 F 
ENDBRANCH  13  14
ENDBRANCH   8  13
TORSDOF 2
ENDMDL
MODEL 8
REMARK VINA RESULT:      -7.1      1.250      1.895
REMARK  Name = 
REMARK  3 active torsions:
REMARK  status: ('A' for Active; 'I' for Inactive)
REMARK    1  A    between atoms: C_1  and  N_2
REMARK    2  A    between atoms: C_8  and  C_9
REMARK    3  A    between atoms: C_9  and  C_10
REMARK                            x       y       z     vdW  Elec       q    Type
REMARK                         _______ _______ _______ _____ _____    ______ ____
ROOT
ATOM      1  C   UNL     1       8.877   9.050  18.861  0.00  0.00    +0.000 C 
ATOM      2  N   UNL     1       8.541   7.648  18.919  0.00  0.00    +0.000 N 
ATOM      3  C   UNL     1       7.608   7.103  18.058  0.00  0.00    +0.000 A 
ATOM      4  N   UNL     1       7.389   7.652  16.881  0.00  0.00    +0.000 NA
ATOM      5  C   UNL     1       6.443   7.092  16.041  0.00  0.00    +0.000 A 
ATOM      6  C   UNL     1       5.708   6.010  16.347  0.00  0.00    +0.000 A 
ATOM      7  N   UNL     1       5.908   5.418  17.577  0.00  0.00    +0.000 N 
ATOM      8  C   UNL     1       5.369   4.340  18.240  0.00  0.00    +0.000 A 
ATOM      9  N   UNL     1       5.947   4.238  19.427  0.00  0.00    +0.000 NA
ATOM     10  N   UNL     1       6.876   5.250  19.554  0.00  0.00    +0.000 NA
ATOM     11  C   UNL     1       6.842   5.932  18.434  0.00  0.00    +0.000 A 
ATOM     12  H   UNL     1       8.504   7.255  19.857  0.00  0.00    +0.000 HD
ENDROOT
BRANCH   8  13
ATOM     13  C   UNL     1       4.346   3.412  17.680  0.00  0.00    +0.000 C 
BRANCH  13  14
ATOM     14  C   UNL     1       3.107   3.298  18.524  0.00  0.00    +0.000 A 
ATOM     15  C   UNL     1       2.671   2.064  19.006  0.00  0.00    +0.000 A 
ATOM     16  F   UNL     1       3.375   0.957  18.735  0.00  0.00    +0.000 F 
ATOM     17  C   UNL     1       1.520   1.947  19.786  0.00  0.00    +0.000 A 
ATOM     18  C   UNL     1       0.776   3.083  20.099  0.00  0.00    +0.000 A 
ATOM     19  C   UNL     1       1.196   4.327  19.630  0.00  0.00    +0.000 A 
ATOM     20  C   UNL     1       2.350   4.425  18.853  0.00  0.00    +0.000 A 
ATOM     21  F   UNL     1       2.741   5.638  18.439  0.00  0.00    +0.000 F 
ENDBRANCH  13  14
ENDBRANCH   8  13
TORSDOF 2
ENDMDL
MODEL 9
REMARK VINA RESULT:      -7.1      4.892      5.795
REMARK  Name = 
REMARK  3 active torsions:
REMARK  status: ('A' for Active; 'I' for Inactive)
REMARK    1  A    between atoms: C_1  and  N_2
REMARK    2  A    between atoms: C_8  and  C_9
REMARK    3  A    between atoms: C_9  and  C_10
REMARK                            x       y       z     vdW  Elec       q    Type
REMARK                         _______ _______ _______ _____ _____    ______ ____
ROOT
ATOM      1  C   UNL     1      -1.025  11.302  22.190  0.00  0.00    +0.000 C 
ATOM      2  N   UNL     1       0.033  10.335  22.019  0.00  0.00    +0.000 N 
ATOM      3  C   UNL     1       0.595  10.107  20.778  0.00  0.00    +0.000 A 
ATOM      4  N   UNL     1       0.588  11.052  19.861  0.00  0.00    +0.000 NA
ATOM      5  C   UNL     1       1.150  10.795  18.623  0.00  0.00    +0.000 A 
ATOM      6  C   UNL     1       1.706   9.623  18.275  0.00  0.00    +0.000 A 
ATOM      7  N   UNL     1       1.720   8.610  19.212  0.00  0.00    +0.000 N 
ATOM      8  C   UNL     1       2.175   7.312  19.237  0.00  0.00    +0.000 A 
ATOM      9  N   UNL     1       1.907   6.791  20.426  0.00  0.00    +0.000 NA
ATOM     10  N   UNL     1       1.275   7.747  21.194  0.00  0.00    +0.000 NA
ATOM     11  C   UNL     1       1.186   8.825  20.452  0.00  0.00    +0.000 A 
ATOM     12  H   UNL     1      -0.063   9.492  22.581  0.00  0.00    +0.000 HD
ENDROOT
BRANCH   8  13
ATOM     13  C   UNL     1       2.899   6.634  18.126  0.00  0.00    +0.000 C 
BRANCH  13  14
ATOM     14  C   UNL     1       3.074   5.154  18.332  0.00  0.00    +0.000 A 
ATOM     15  C   UNL     1       4.185   4.644  19.004  0.00  0.00    +0.000 A 
ATOM     16  F   UNL     1       5.107   5.481  19.498  0.00  0.00    +0.000 F 
ATOM     17  C   UNL     1       4.360   3.274  19.196  0.00  0.00    +0.000 A 
ATOM     18  C   UNL     1       3.409   2.379  18.709  0.00  0.00    +0.000 A 
ATOM     19  C   UNL     1       2.289   2.867  18.038  0.00  0.00    +0.000 A 
ATOM     20  C   UNL     1       2.131   4.242  17.856  0.00  0.00    +0.000 A 
ATOM     21  F   UNL     1       1.032   4.681  17.228  0.00  0.00    +0.000 F 
ENDBRANCH  13  14
ENDBRANCH   8  13
TORSDOF 2
ENDMDL
