MODEL 1
REMARK VINA RESULT:      -8.3      0.000      0.000
REMARK  Name = 
REMARK  6 active torsions:
REMARK  status: ('A' for Active; 'I' for Inactive)
REMARK    1  A    between atoms: C_1  and  C_2
REMARK    2  A    between atoms: C_2  and  C_3
REMARK    3  A    between atoms: C_5  and  S_6
REMARK    4  A    between atoms: S_6  and  C_7
REMARK    5  A    between atoms: C_7  and  C_8
REMARK    6  A    between atoms: N_10  and  C_11
REMARK                            x       y       z     vdW  Elec       q    Type
REMARK                         _______ _______ _______ _____ _____    ______ ____
ROOT
ATOM      1  C   UNL     1       7.230   6.211  17.668  0.00  0.00    +0.000 A 
ATOM      2  N   UNL     1       6.250   5.489  18.277  0.00  0.00    +0.000 NA
ATOM      3  C   UNL     1       5.560   4.582  17.534  0.00  0.00    +0.000 A 
ATOM      4  C   UNL     1       5.885   4.469  16.197  0.00  0.00    +0.000 A 
ATOM      5  O   UNL     1       5.376   3.628  15.254  0.00  0.00    +0.000 OA
ATOM      6  C   UNL     1       6.033   3.898  14.091  0.00  0.00    +0.000 A 
ATOM      7  C   UNL     1       5.826   3.244  12.879  0.00  0.00    +0.000 A 
ATOM      8  C   UNL     1       6.608   3.668  11.799  0.00  0.00    +0.000 A 
ATOM      9  C   UNL     1       7.542   4.698  11.942  0.00  0.00    +0.000 A 
ATOM     10  C   UNL     1       7.732   5.336  13.175  0.00  0.00    +0.000 A 
ATOM     11  C   UNL     1       6.958   4.921  14.274  0.00  0.00    +0.000 A 
ATOM     12  C   UNL     1       6.865   5.276  15.644  0.00  0.00    +0.000 A 
ATOM     13  N   UNL     1       7.562   6.179  16.365  0.00  0.00    +0.000 NA
ENDROOT
BRANCH   1  15
ATOM     14  C   UNL     1       8.102   8.532  17.905  0.00  0.00    +0.000 C 
ATOM     15  C   UNL     1       8.042   7.151  18.522  0.00  0.00    +0.000 C 
ENDBRANCH   1  15
BRANCH   3  16
ATOM     16  S   UNL     1       4.363   3.500  18.254  0.00  0.00    +0.000 S 
BRANCH  16  17
ATOM     17  C   UNL     1       3.965   4.350  19.805  0.00  0.00    +0.000 C 
BRANCH  17  18
ATOM     18  C   UNL     1       2.757   5.257  19.647  0.00  0.00    +0.000 C 
ATOM     19  O   UNL     1       1.627   4.917  19.971  0.00  0.00    +0.000 OA
ATOM     20  N   UNL     1       3.058   6.506  19.135  0.00  0.00    +0.000 N 
ATOM     21  H   UNL     1       3.922   6.572  18.607  0.00  0.00    +0.000 HD
BRANCH  20  22
ATOM     22  C   UNL     1       2.012   7.471  18.858  0.00  0.00    +0.000 C 
ATOM     23  C   UNL     1       1.666   8.329  20.066  0.00  0.00    +0.000 C 
ATOM     24  C   UNL     1       1.024   9.575  19.480  0.00  0.00    +0.000 C 
ATOM     25  C   UNL     1       1.575   9.718  18.063  0.00  0.00    +0.000 C 
ATOM     26  C   UNL     1       2.426   8.481  17.792  0.00  0.00    +0.000 C 
ENDBRANCH  20  22
ENDBRANCH  17  18
ENDBRANCH  16  17
ENDBRANCH   3  16
TORSDOF 5
ENDMDL
MODEL 2
REMARK VINA RESULT:      -8.3      3.447      6.859
REMARK  Name = 
REMARK  6 active torsions:
REMARK  status: ('A' for Active; 'I' for Inactive)
REMARK    1  A    between atoms: C_1  and  C_2
REMARK    2  A    between atoms: C_2  and  C_3
REMARK    3  A    between atoms: C_5  and  S_6
REMARK    4  A    between atoms: S_6  and  C_7
REMARK    5  A    between atoms: C_7  and  C_8
REMARK    6  A    between atoms: N_10  and  C_11
REMARK                            x       y       z     vdW  Elec       q    Type
REMARK                         _______ _______ _______ _____ _____    ______ ____
ROOT
ATOM      1  C   UNL     1       6.425   5.017  15.196  0.00  0.00    +0.000 A 
ATOM      2  N   UNL     1       7.219   5.822  15.951  0.00  0.00    +0.000 NA
ATOM      3  C   UNL     1       6.823   6.113  17.220  0.00  0.00    +0.000 A 
ATOM      4  C   UNL     1       5.622   5.588  17.653  0.00  0.00    +0.000 A 
ATOM      5  O   UNL     1       5.022   5.698  18.870  0.00  0.00    +0.000 OA
ATOM      6  C   UNL     1       3.858   4.992  18.799  0.00  0.00    +0.000 A 
ATOM      7  C   UNL     1       2.949   4.833  19.842  0.00  0.00    +0.000 A 
ATOM      8  C   UNL     1       1.812   4.064  19.567  0.00  0.00    +0.000 A 
ATOM      9  C   UNL     1       1.611   3.494  18.307  0.00  0.00    +0.000 A 
ATOM     10  C   UNL     1       2.545   3.668  17.277  0.00  0.00    +0.000 A 
ATOM     11  C   UNL     1       3.696   4.434  17.535  0.00  0.00    +0.000 A 
ATOM     12  C   UNL     1       4.850   4.814  16.803  0.00  0.00    +0.000 A 
ATOM     13  N   UNL     1       5.227   4.512  15.543  0.00  0.00    +0.000 NA
ENDROOT
BRANCH   1  15
ATOM     14  C   UNL     1       6.052   3.551  13.217  0.00  0.00    +0.000 C 
ATOM     15  C   UNL     1       6.917   4.635  13.823  0.00  0.00    +0.000 C 
ENDBRANCH   1  15
BRANCH   3  16
ATOM     16  S   UNL     1       7.843   7.037  18.329  0.00  0.00    +0.000 S 
BRANCH  16  17
ATOM     17  C   UNL     1       7.741   8.710  17.638  0.00  0.00    +0.000 C 
BRANCH  17  18
ATOM     18  C   UNL     1       8.659   9.671  18.372  0.00  0.00    +0.000 C 
ATOM     19  O   UNL     1       9.237   9.373  19.410  0.00  0.00    +0.000 OA
ATOM     20  N   UNL     1       8.803  10.896  17.746  0.00  0.00    +0.000 N 
ATOM     21  H   UNL     1       8.059  11.158  17.107  0.00  0.00    +0.000 HD
BRANCH  20  22
ATOM     22  C   UNL     1       9.592  11.954  18.347  0.00  0.00    +0.000 C 
ATOM     23  C   UNL     1      11.040  11.949  17.879  0.00  0.00    +0.000 C 
ATOM     24  C   UNL     1      11.529  13.364  18.134  0.00  0.00    +0.000 C 
ATOM     25  C   UNL     1      10.293  14.260  18.103  0.00  0.00    +0.000 C 
ATOM     26  C   UNL     1       9.083  13.340  17.966  0.00  0.00    +0.000 C 
ENDBRANCH  20  22
ENDBRANCH  17  18
ENDBRANCH  16  17
ENDBRANCH   3  16
TORSDOF 5
ENDMDL
MODEL 3
REMARK VINA RESULT:      -8.0      0.941      1.194
REMARK  Name = 
REMARK  6 active torsions:
REMARK  status: ('A' for Active; 'I' for Inactive)
REMARK    1  A    between atoms: C_1  and  C_2
REMARK    2  A    between atoms: C_2  and  C_3
REMARK    3  A    between atoms: C_5  and  S_6
REMARK    4  A    between atoms: S_6  and  C_7
REMARK    5  A    between atoms: C_7  and  C_8
REMARK    6  A    between atoms: N_10  and  C_11
REMARK                            x       y       z     vdW  Elec       q    Type
REMARK                         _______ _______ _______ _____ _____    ______ ____
ROOT
ATOM      1  C   UNL     1       7.047   6.495  17.446  0.00  0.00    +0.000 A 
ATOM      2  N   UNL     1       5.862   6.130  18.007  0.00  0.00    +0.000 NA
ATOM      3  C   UNL     1       5.025   5.335  17.287  0.00  0.00    +0.000 A 
ATOM      4  C   UNL     1       5.423   4.967  16.018  0.00  0.00    +0.000 A 
ATOM      5  O   UNL     1       4.795   4.163  15.116  0.00  0.00    +0.000 OA
ATOM      6  C   UNL     1       5.599   4.103  14.017  0.00  0.00    +0.000 A 
ATOM      7  C   UNL     1       5.334   3.366  12.865  0.00  0.00    +0.000 A 
ATOM      8  C   UNL     1       6.291   3.434  11.847  0.00  0.00    +0.000 A 
ATOM      9  C   UNL     1       7.447   4.206  11.990  0.00  0.00    +0.000 A 
ATOM     10  C   UNL     1       7.690   4.934  13.162  0.00  0.00    +0.000 A 
ATOM     11  C   UNL     1       6.741   4.876  14.199  0.00  0.00    +0.000 A 
ATOM     12  C   UNL     1       6.626   5.421  15.503  0.00  0.00    +0.000 A 
ATOM     13  N   UNL     1       7.470   6.208  16.202  0.00  0.00    +0.000 NA
ENDROOT
BRANCH   1  15
ATOM     14  C   UNL     1       8.020   8.753  17.841  0.00  0.00    +0.000 C 
ATOM     15  C   UNL     1       7.999   7.307  18.286  0.00  0.00    +0.000 C 
ENDBRANCH   1  15
BRANCH   3  16
ATOM     16  S   UNL     1       3.527   4.693  17.971  0.00  0.00    +0.000 S 
BRANCH  16  17
ATOM     17  C   UNL     1       3.660   5.186  19.711  0.00  0.00    +0.000 C 
BRANCH  17  18
ATOM     18  C   UNL     1       2.394   5.873  20.192  0.00  0.00    +0.000 C 
ATOM     19  O   UNL     1       1.453   5.261  20.681  0.00  0.00    +0.000 OA
ATOM     20  N   UNL     1       2.417   7.249  20.054  0.00  0.00    +0.000 N 
ATOM     21  H   UNL     1       3.064   7.615  19.363  0.00  0.00    +0.000 HD
BRANCH  20  22
ATOM     22  C   UNL     1       1.263   8.054  20.402  0.00  0.00    +0.000 C 
ATOM     23  C   UNL     1       1.323   8.586  21.827  0.00  0.00    +0.000 C 
ATOM     24  C   UNL     1       0.400   9.792  21.825  0.00  0.00    +0.000 C 
ATOM     25  C   UNL     1       0.361  10.303  20.386  0.00  0.00    +0.000 C 
ATOM     26  C   UNL     1       1.154   9.309  19.543  0.00  0.00    +0.000 C 
ENDBRANCH  20  22
ENDBRANCH  17  18
ENDBRANCH  16  17
ENDBRANCH   3  16
TORSDOF 5
ENDMDL
MODEL 4
REMARK VINA RESULT:      -7.9      1.019      1.067
REMARK  Name = 
REMARK  6 active torsions:
REMARK  status: ('A' for Active; 'I' for Inactive)
REMARK    1  A    between atoms: C_1  and  C_2
REMARK    2  A    between atoms: C_2  and  C_3
REMARK    3  A    between atoms: C_5  and  S_6
REMARK    4  A    between atoms: S_6  and  C_7
REMARK    5  A    between atoms: C_7  and  C_8
REMARK    6  A    between atoms: N_10  and  C_11
REMARK                            x       y       z     vdW  Elec       q    Type
REMARK                         _______ _______ _______ _____ _____    ______ ____
ROOT
ATOM      1  C   UNL     1       7.364   6.386  17.767  0.00  0.00    +0.000 A 
ATOM      2  N   UNL     1       6.495   5.603  18.462  0.00  0.00    +0.000 NA
ATOM      3  C   UNL     1       5.848   4.609  17.796  0.00  0.00    +0.000 A 
ATOM      4  C   UNL     1       6.099   4.473  16.445  0.00  0.00    +0.000 A 
ATOM      5  O   UNL     1       5.613   3.553  15.566  0.00  0.00    +0.000 OA
ATOM      6  C   UNL     1       6.169   3.837  14.354  0.00  0.00    +0.000 A 
ATOM      7  C   UNL     1       5.950   3.120  13.181  0.00  0.00    +0.000 A 
ATOM      8  C   UNL     1       6.621   3.571  12.039  0.00  0.00    +0.000 A 
ATOM      9  C   UNL     1       7.462   4.686  12.087  0.00  0.00    +0.000 A 
ATOM     10  C   UNL     1       7.667   5.386  13.283  0.00  0.00    +0.000 A 
ATOM     11  C   UNL     1       7.004   4.946  14.443  0.00  0.00    +0.000 A 
ATOM     12  C   UNL     1       6.964   5.343  15.803  0.00  0.00    +0.000 A 
ATOM     13  N   UNL     1       7.617   6.333  16.447  0.00  0.00    +0.000 NA
ENDROOT
BRANCH   1  15
ATOM     14  C   UNL     1       8.034   8.783  17.866  0.00  0.00    +0.000 C 
ATOM     15  C   UNL     1       8.136   7.429  18.535  0.00  0.00    +0.000 C 
ENDBRANCH   1  15
BRANCH   3  16
ATOM     16  S   UNL     1       4.804   3.451  18.628  0.00  0.00    +0.000 S 
BRANCH  16  17
ATOM     17  C   UNL     1       3.411   3.297  17.477  0.00  0.00    +0.000 C 
BRANCH  17  18
ATOM     18  C   UNL     1       2.345   4.342  17.752  0.00  0.00    +0.000 C 
ATOM     19  O   UNL     1       1.188   4.224  17.369  0.00  0.00    +0.000 OA
ATOM     20  N   UNL     1       2.793   5.417  18.498  0.00  0.00    +0.000 N 
ATOM     21  H   UNL     1       3.794   5.582  18.480  0.00  0.00    +0.000 HD
BRANCH  20  22
ATOM     22  C   UNL     1       1.921   6.537  18.793  0.00  0.00    +0.000 C 
ATOM     23  C   UNL     1       2.059   7.030  20.226  0.00  0.00    +0.000 C 
ATOM     24  C   UNL     1       1.548   8.461  20.189  0.00  0.00    +0.000 C 
ATOM     25  C   UNL     1       1.749   8.954  18.757  0.00  0.00    +0.000 C 
ATOM     26  C   UNL     1       2.247   7.762  17.945  0.00  0.00    +0.000 C 
ENDBRANCH  20  22
ENDBRANCH  17  18
ENDBRANCH  16  17
ENDBRANCH   3  16
TORSDOF 5
ENDMDL
MODEL 5
REMARK VINA RESULT:      -7.9      0.814      1.157
REMARK  Name = 
REMARK  6 active torsions:
REMARK  status: ('A' for Active; 'I' for Inactive)
REMARK    1  A    between atoms: C_1  and  C_2
REMARK    2  A    between atoms: C_2  and  C_3
REMARK    3  A    between atoms: C_5  and  S_6
REMARK    4  A    between atoms: S_6  and  C_7
REMARK    5  A    between atoms: C_7  and  C_8
REMARK    6  A    between atoms: N_10  and  C_11
REMARK                            x       y       z     vdW  Elec       q    Type
REMARK                         _______ _______ _______ _____ _____    ______ ____
ROOT
ATOM      1  C   UNL     1       7.194   6.273  17.625  0.00  0.00    +0.000 A 
ATOM      2  N   UNL     1       6.161   5.636  18.241  0.00  0.00    +0.000 NA
ATOM      3  C   UNL     1       5.422   4.753  17.515  0.00  0.00    +0.000 A 
ATOM      4  C   UNL     1       5.757   4.578  16.187  0.00  0.00    +0.000 A 
ATOM      5  O   UNL     1       5.206   3.743  15.262  0.00  0.00    +0.000 OA
ATOM      6  C   UNL     1       5.895   3.934  14.102  0.00  0.00    +0.000 A 
ATOM      7  C   UNL     1       5.661   3.257  12.907  0.00  0.00    +0.000 A 
ATOM      8  C   UNL     1       6.484   3.596  11.827  0.00  0.00    +0.000 A 
ATOM      9  C   UNL     1       7.482   4.566  11.953  0.00  0.00    +0.000 A 
ATOM     10  C   UNL     1       7.696   5.229  13.169  0.00  0.00    +0.000 A 
ATOM     11  C   UNL     1       6.883   4.899  14.268  0.00  0.00    +0.000 A 
ATOM     12  C   UNL     1       6.795   5.301  15.625  0.00  0.00    +0.000 A 
ATOM     13  N   UNL     1       7.540   6.178  16.329  0.00  0.00    +0.000 NA
ENDROOT
BRANCH   1  15
ATOM     14  C   UNL     1       8.040   8.597  17.920  0.00  0.00    +0.000 C 
ATOM     15  C   UNL     1       8.054   7.183  18.463  0.00  0.00    +0.000 C 
ENDBRANCH   1  15
BRANCH   3  16
ATOM     16  S   UNL     1       4.147   3.774  18.249  0.00  0.00    +0.000 S 
BRANCH  16  17
ATOM     17  C   UNL     1       2.680   4.809  17.998  0.00  0.00    +0.000 C 
BRANCH  17  18
ATOM     18  C   UNL     1       2.763   6.095  18.800  0.00  0.00    +0.000 C 
ATOM     19  O   UNL     1       3.266   6.149  19.915  0.00  0.00    +0.000 OA
ATOM     20  N   UNL     1       2.248   7.199  18.144  0.00  0.00    +0.000 N 
ATOM     21  H   UNL     1       1.581   7.003  17.404  0.00  0.00    +0.000 HD
BRANCH  20  22
ATOM     22  C   UNL     1       2.187   8.493  18.794  0.00  0.00    +0.000 C 
ATOM     23  C   UNL     1       1.872   9.625  17.826  0.00  0.00    +0.000 C 
ATOM     24  C   UNL     1       1.310  10.732  18.702  0.00  0.00    +0.000 C 
ATOM     25  C   UNL     1       0.723  10.050  19.936  0.00  0.00    +0.000 C 
ATOM     26  C   UNL     1       1.069   8.568  19.829  0.00  0.00    +0.000 C 
ENDBRANCH  20  22
ENDBRANCH  17  18
ENDBRANCH  16  17
ENDBRANCH   3  16
TORSDOF 5
ENDMDL
MODEL 6
REMARK VINA RESULT:      -7.8      3.335      6.797
REMARK  Name = 
REMARK  6 active torsions:
REMARK  status: ('A' for Active; 'I' for Inactive)
REMARK    1  A    between atoms: C_1  and  C_2
REMARK    2  A    between atoms: C_2  and  C_3
REMARK    3  A    between atoms: C_5  and  S_6
REMARK    4  A    between atoms: S_6  and  C_7
REMARK    5  A    between atoms: C_7  and  C_8
REMARK    6  A    between atoms: N_10  and  C_11
REMARK                            x       y       z     vdW  Elec       q    Type
REMARK                         _______ _______ _______ _____ _____    ______ ____
ROOT
ATOM      1  C   UNL     1       6.374   5.049  15.182  0.00  0.00    +0.000 A 
ATOM      2  N   UNL     1       7.203   5.818  15.939  0.00  0.00    +0.000 NA
ATOM      3  C   UNL     1       6.826   6.111  17.214  0.00  0.00    +0.000 A 
ATOM      4  C   UNL     1       5.610   5.625  17.651  0.00  0.00    +0.000 A 
ATOM      5  O   UNL     1       5.023   5.746  18.874  0.00  0.00    +0.000 OA
ATOM      6  C   UNL     1       3.834   5.083  18.805  0.00  0.00    +0.000 A 
ATOM      7  C   UNL     1       2.927   4.948  19.853  0.00  0.00    +0.000 A 
ATOM      8  C   UNL     1       1.761   4.223  19.580  0.00  0.00    +0.000 A 
ATOM      9  C   UNL     1       1.530   3.673  18.315  0.00  0.00    +0.000 A 
ATOM     10  C   UNL     1       2.463   3.823  17.280  0.00  0.00    +0.000 A 
ATOM     11  C   UNL     1       3.643   4.544  17.537  0.00  0.00    +0.000 A 
ATOM     12  C   UNL     1       4.804   4.888  16.800  0.00  0.00    +0.000 A 
ATOM     13  N   UNL     1       5.161   4.585  15.534  0.00  0.00    +0.000 NA
ENDROOT
BRANCH   1  15
ATOM     14  C   UNL     1       5.919   3.635  13.183  0.00  0.00    +0.000 C 
ATOM     15  C   UNL     1       6.842   4.663  13.802  0.00  0.00    +0.000 C 
ENDBRANCH   1  15
BRANCH   3  16
ATOM     16  S   UNL     1       7.887   6.986  18.324  0.00  0.00    +0.000 S 
BRANCH  16  17
ATOM     17  C   UNL     1       7.832   8.670  17.656  0.00  0.00    +0.000 C 
BRANCH  17  18
ATOM     18  C   UNL     1       8.707   9.616  18.460  0.00  0.00    +0.000 C 
ATOM     19  O   UNL     1       9.218   9.300  19.527  0.00  0.00    +0.000 OA
ATOM     20  N   UNL     1       8.897  10.848  17.862  0.00  0.00    +0.000 N 
ATOM     21  H   UNL     1       8.196  11.123  17.181  0.00  0.00    +0.000 HD
BRANCH  20  22
ATOM     22  C   UNL     1       9.652  11.892  18.526  0.00  0.00    +0.000 C 
ATOM     23  C   UNL     1       9.304  12.023  20.002  0.00  0.00    +0.000 C 
ATOM     24  C   UNL     1      10.512  12.707  20.621  0.00  0.00    +0.000 C 
ATOM     25  C   UNL     1      11.703  12.373  19.725  0.00  0.00    +0.000 C 
ATOM     26  C   UNL     1      11.152  11.613  18.522  0.00  0.00    +0.000 C 
ENDBRANCH  20  22
ENDBRANCH  17  18
ENDBRANCH  16  17
ENDBRANCH   3  16
TORSDOF 5
ENDMDL
MODEL 7
REMARK VINA RESULT:      -7.8      1.479      1.897
REMARK  Name = 
REMARK  6 active torsions:
REMARK  status: ('A' for Active; 'I' for Inactive)
REMARK    1  A    between atoms: C_1  and  C_2
REMARK    2  A    between atoms: C_2  and  C_3
REMARK    3  A    between atoms: C_5  and  S_6
REMARK    4  A    between atoms: S_6  and  C_7
REMARK    5  A    between atoms: C_7  and  C_8
REMARK    6  A    between atoms: N_10  and  C_11
REMARK                            x       y       z     vdW  Elec       q    Type
REMARK                         _______ _______ _______ _____ _____    ______ ____
ROOT
ATOM      1  C   UNL     1       7.032   6.487  17.527  0.00  0.00    +0.000 A 
ATOM      2  N   UNL     1       5.835   6.142  18.074  0.00  0.00    +0.000 NA
ATOM      3  C   UNL     1       4.989   5.369  17.341  0.00  0.00    +0.000 A 
ATOM      4  C   UNL     1       5.392   5.002  16.073  0.00  0.00    +0.000 A 
ATOM      5  O   UNL     1       4.756   4.217  15.159  0.00  0.00    +0.000 OA
ATOM      6  C   UNL     1       5.570   4.149  14.067  0.00  0.00    +0.000 A 
ATOM      7  C   UNL     1       5.300   3.426  12.908  0.00  0.00    +0.000 A 
ATOM      8  C   UNL     1       6.269   3.481  11.899  0.00  0.00    +0.000 A 
ATOM      9  C   UNL     1       7.439   4.228  12.059  0.00  0.00    +0.000 A 
ATOM     10  C   UNL     1       7.685   4.943  13.239  0.00  0.00    +0.000 A 
ATOM     11  C   UNL     1       6.725   4.897  14.266  0.00  0.00    +0.000 A 
ATOM     12  C   UNL     1       6.609   5.435  15.573  0.00  0.00    +0.000 A 
ATOM     13  N   UNL     1       7.462   6.200  16.286  0.00  0.00    +0.000 NA
ENDROOT
BRANCH   1  15
ATOM     14  C   UNL     1       8.107   8.702  17.899  0.00  0.00    +0.000 C 
ATOM     15  C   UNL     1       7.993   7.272  18.382  0.00  0.00    +0.000 C 
ENDBRANCH   1  15
BRANCH   3  16
ATOM     16  S   UNL     1       3.471   4.753  18.006  0.00  0.00    +0.000 S 
BRANCH  16  17
ATOM     17  C   UNL     1       3.424   5.539  19.639  0.00  0.00    +0.000 C 
BRANCH  17  18
ATOM     18  C   UNL     1       2.532   6.768  19.638  0.00  0.00    +0.000 C 
ATOM     19  O   UNL     1       2.262   7.390  18.619  0.00  0.00    +0.000 OA
ATOM     20  N   UNL     1       2.033   7.098  20.885  0.00  0.00    +0.000 N 
ATOM     21  H   UNL     1       2.557   6.746  21.680  0.00  0.00    +0.000 HD
BRANCH  20  22
ATOM     22  C   UNL     1       1.219   8.283  21.074  0.00  0.00    +0.000 C 
ATOM     23  C   UNL     1      -0.252   7.959  21.294  0.00  0.00    +0.000 C 
ATOM     24  C   UNL     1      -0.811   9.181  22.004  0.00  0.00    +0.000 C 
ATOM     25  C   UNL     1       0.364   9.834  22.728  0.00  0.00    +0.000 C 
ATOM     26  C   UNL     1       1.617   9.064  22.323  0.00  0.00    +0.000 C 
ENDBRANCH  20  22
ENDBRANCH  17  18
ENDBRANCH  16  17
ENDBRANCH   3  16
TORSDOF 5
ENDMDL
MODEL 8
REMARK VINA RESULT:      -7.6      3.024      6.769
REMARK  Name = 
REMARK  6 active torsions:
REMARK  status: ('A' for Active; 'I' for Inactive)
REMARK    1  A    between atoms: C_1  and  C_2
REMARK    2  A    between atoms: C_2  and  C_3
REMARK    3  A    between atoms: C_5  and  S_6
REMARK    4  A    between atoms: S_6  and  C_7
REMARK    5  A    between atoms: C_7  and  C_8
REMARK    6  A    between atoms: N_10  and  C_11
REMARK                            x       y       z     vdW  Elec       q    Type
REMARK                         _______ _______ _______ _____ _____    ______ ____
ROOT
ATOM      1  C   UNL     1       5.665   4.394  15.930  0.00  0.00    +0.000 A 
ATOM      2  N   UNL     1       6.560   5.172  16.596  0.00  0.00    +0.000 NA
ATOM      3  C   UNL     1       6.258   5.564  17.863  0.00  0.00    +0.000 A 
ATOM      4  C   UNL     1       5.045   5.163  18.386  0.00  0.00    +0.000 A 
ATOM      5  O   UNL     1       4.522   5.388  19.623  0.00  0.00    +0.000 OA
ATOM      6  C   UNL     1       3.305   4.776  19.652  0.00  0.00    +0.000 A 
ATOM      7  C   UNL     1       2.444   4.749  20.747  0.00  0.00    +0.000 A 
ATOM      8  C   UNL     1       1.237   4.062  20.575  0.00  0.00    +0.000 A 
ATOM      9  C   UNL     1       0.923   3.442  19.362  0.00  0.00    +0.000 A 
ATOM     10  C   UNL     1       1.811   3.483  18.278  0.00  0.00    +0.000 A 
ATOM     11  C   UNL     1       3.031   4.165  18.433  0.00  0.00    +0.000 A 
ATOM     12  C   UNL     1       4.169   4.409  17.623  0.00  0.00    +0.000 A 
ATOM     13  N   UNL     1       4.452   4.009  16.365  0.00  0.00    +0.000 NA
ENDROOT
BRANCH   1  15
ATOM     14  C   UNL     1       7.130   4.768  13.951  0.00  0.00    +0.000 C 
ATOM     15  C   UNL     1       6.050   3.899  14.559  0.00  0.00    +0.000 C 
ENDBRANCH   1  15
BRANCH   3  16
ATOM     16  S   UNL     1       7.406   6.460  18.864  0.00  0.00    +0.000 S 
BRANCH  16  17
ATOM     17  C   UNL     1       8.222   7.527  17.646  0.00  0.00    +0.000 C 
BRANCH  17  18
ATOM     18  C   UNL     1       8.184   8.984  18.069  0.00  0.00    +0.000 C 
ATOM     19  O   UNL     1       7.347   9.774  17.651  0.00  0.00    +0.000 OA
ATOM     20  N   UNL     1       9.159   9.326  18.990  0.00  0.00    +0.000 N 
ATOM     21  H   UNL     1       9.974   8.722  19.017  0.00  0.00    +0.000 HD
BRANCH  20  22
ATOM     22  C   UNL     1       9.306  10.693  19.449  0.00  0.00    +0.000 C 
ATOM     23  C   UNL     1       9.204  10.821  20.962  0.00  0.00    +0.000 C 
ATOM     24  C   UNL     1       9.913  12.126  21.284  0.00  0.00    +0.000 C 
ATOM     25  C   UNL     1      10.913  12.364  20.155  0.00  0.00    +0.000 C 
ATOM     26  C   UNL     1      10.680  11.268  19.120  0.00  0.00    +0.000 C 
ENDBRANCH  20  22
ENDBRANCH  17  18
ENDBRANCH  16  17
ENDBRANCH   3  16
TORSDOF 5
ENDMDL
MODEL 9
REMARK VINA RESULT:      -7.6      1.841      8.086
REMARK  Name = 
REMARK  6 active torsions:
REMARK  status: ('A' for Active; 'I' for Inactive)
REMARK    1  A    between atoms: C_1  and  C_2
REMARK    2  A    between atoms: C_2  and  C_3
REMARK    3  A    between atoms: C_5  and  S_6
REMARK    4  A    between atoms: S_6  and  C_7
REMARK    5  A    between atoms: C_7  and  C_8
REMARK    6  A    between atoms: N_10  and  C_11
REMARK                            x       y       z     vdW  Elec       q    Type
REMARK                         _______ _______ _______ _____ _____    ______ ____
ROOT
ATOM      1  C   UNL     1       2.756   4.602  19.958  0.00  0.00    +0.000 A 
ATOM      2  N   UNL     1       3.471   4.913  18.843  0.00  0.00    +0.000 NA
ATOM      3  C   UNL     1       3.409   6.188  18.371  0.00  0.00    +0.000 A 
ATOM      4  C   UNL     1       2.602   7.082  19.045  0.00  0.00    +0.000 A 
ATOM      5  O   UNL     1       2.391   8.406  18.803  0.00  0.00    +0.000 OA
ATOM      6  C   UNL     1       1.519   8.845  19.754  0.00  0.00    +0.000 A 
ATOM      7  C   UNL     1       1.054  10.152  19.876  0.00  0.00    +0.000 A 
ATOM      8  C   UNL     1       0.163  10.402  20.926  0.00  0.00    +0.000 A 
ATOM      9  C   UNL     1      -0.234   9.382  21.797  0.00  0.00    +0.000 A 
ATOM     10  C   UNL     1       0.254   8.077  21.651  0.00  0.00    +0.000 A 
ATOM     11  C   UNL     1       1.154   7.807  20.604  0.00  0.00    +0.000 A 
ATOM     12  C   UNL     1       1.870   6.672  20.147  0.00  0.00    +0.000 A 
ATOM     13  N   UNL     1       1.920   5.413  20.631  0.00  0.00    +0.000 NA
ENDROOT
BRANCH   1  15
ATOM     14  C   UNL     1       1.894   2.960  21.621  0.00  0.00    +0.000 C 
ATOM     15  C   UNL     1       2.900   3.210  20.517  0.00  0.00    +0.000 C 
ENDBRANCH   1  15
BRANCH   3  16
ATOM     16  S   UNL     1       4.400   6.732  17.013  0.00  0.00    +0.000 S 
BRANCH  16  17
ATOM     17  C   UNL     1       6.073   6.303  17.565  0.00  0.00    +0.000 C 
BRANCH  17  18
ATOM     18  C   UNL     1       6.736   5.319  16.618  0.00  0.00    +0.000 C 
ATOM     19  O   UNL     1       7.607   4.537  16.978  0.00  0.00    +0.000 OA
ATOM     20  N   UNL     1       6.245   5.368  15.326  0.00  0.00    +0.000 N 
ATOM     21  H   UNL     1       5.789   6.234  15.057  0.00  0.00    +0.000 HD
BRANCH  20  22
ATOM     22  C   UNL     1       6.814   4.542  14.279  0.00  0.00    +0.000 C 
ATOM     23  C   UNL     1       5.769   3.707  13.553  0.00  0.00    +0.000 C 
ATOM     24  C   UNL     1       6.405   3.378  12.213  0.00  0.00    +0.000 C 
ATOM     25  C   UNL     1       7.418   4.486  11.933  0.00  0.00    +0.000 C 
ATOM     26  C   UNL     1       7.457   5.373  13.174  0.00  0.00    +0.000 C 
ENDBRANCH  20  22
ENDBRANCH  17  18
ENDBRANCH  16  17
ENDBRANCH   3  16
TORSDOF 5
ENDMDL
