MODEL 1
REMARK VINA RESULT:      -8.5      0.000      0.000
REMARK  Name = 
REMARK  5 active torsions:
REMARK  status: ('A' for Active; 'I' for Inactive)
REMARK    1  A    between atoms: C_1  and  C_2
REMARK    2  A    between atoms: C_3  and  C_4
REMARK    3  A    between atoms: N_6  and  C_7
REMARK    4  A    between atoms: C_7  and  C_8
REMARK    5  A    between atoms: C_8  and  C_9
REMARK                            x       y       z     vdW  Elec       q    Type
REMARK                         _______ _______ _______ _____ _____    ______ ____
ROOT
ATOM      1  C   UNL     1       2.926   7.553  17.868  0.00  0.00    +0.000 C 
ATOM      2  O   UNL     1       3.011   7.996  16.728  0.00  0.00    +0.000 OA
ATOM      3  N   UNL     1       2.205   8.220  18.826  0.00  0.00    +0.000 N 
ATOM      4  H   UNL     1       2.121   7.885  19.770  0.00  0.00    +0.000 HD
ENDROOT
BRANCH   1   7
ATOM      5  C   UNL     1       6.015   6.869  17.491  0.00  0.00    +0.000 C 
ATOM      6  C   UNL     1       4.903   6.068  18.066  0.00  0.00    +0.000 C 
ATOM      7  C   UNL     1       3.594   6.285  18.258  0.00  0.00    +0.000 C 
ATOM      8  C   UNL     1       2.952   5.099  18.893  0.00  0.00    +0.000 C 
ATOM      9  C   UNL     1       1.911   4.406  17.994  0.00  0.00    +0.000 C 
ATOM     10  C   UNL     1       1.275   3.190  18.671  0.00  0.00    +0.000 C 
ATOM     11  C   UNL     1       0.699   3.561  20.034  0.00  0.00    +0.000 C 
ATOM     12  C   UNL     1       1.776   4.141  20.943  0.00  0.00    +0.000 C 
ATOM     13  C   UNL     1       2.422   5.376  20.313  0.00  0.00    +0.000 C 
ATOM     14  O   UNL     1       4.044   4.170  19.042  0.00  0.00    +0.000 OA
ATOM     15  C   UNL     1       5.188   4.720  18.566  0.00  0.00    +0.000 C 
ATOM     16  O   UNL     1       6.278   4.173  18.558  0.00  0.00    +0.000 OA
ENDBRANCH   1   7
BRANCH   3  17
ATOM     17  C   UNL     1       1.537   9.468  18.488  0.00  0.00    +0.000 C 
BRANCH  17  18
ATOM     18  C   UNL     1       0.446   9.843  19.490  0.00  0.00    +0.000 C 
BRANCH  18  19
ATOM     19  C   UNL     1      -0.796  10.352  18.801  0.00  0.00    +0.000 A 
ATOM     20  C   UNL     1      -1.599  11.326  19.413  0.00  0.00    +0.000 A 
ATOM     21  C   UNL     1      -2.771  11.766  18.794  0.00  0.00    +0.000 A 
ATOM     22  C   UNL     1      -3.147  11.234  17.563  0.00  0.00    +0.000 A 
ATOM     23 CL   UNL     1      -4.600  11.765  16.809  0.00  0.00    +0.000 Cl
ATOM     24  C   UNL     1      -2.359  10.269  16.942  0.00  0.00    +0.000 A 
ATOM     25  C   UNL     1      -1.187   9.827  17.561  0.00  0.00    +0.000 A 
ENDBRANCH  18  19
ENDBRANCH  17  18
ENDBRANCH   3  17
TORSDOF 4
ENDMDL
MODEL 2
REMARK VINA RESULT:      -8.4      2.389      4.228
REMARK  Name = 
REMARK  5 active torsions:
REMARK  status: ('A' for Active; 'I' for Inactive)
REMARK    1  A    between atoms: C_1  and  C_2
REMARK    2  A    between atoms: C_3  and  C_4
REMARK    3  A    between atoms: N_6  and  C_7
REMARK    4  A    between atoms: C_7  and  C_8
REMARK    5  A    between atoms: C_8  and  C_9
REMARK                            x       y       z     vdW  Elec       q    Type
REMARK                         _______ _______ _______ _____ _____    ______ ____
ROOT
ATOM      1  C   UNL     1       2.566   6.553  18.677  0.00  0.00    +0.000 C 
ATOM      2  O   UNL     1       2.195   7.330  17.805  0.00  0.00    +0.000 OA
ATOM      3  N   UNL     1       2.402   6.858  20.005  0.00  0.00    +0.000 N 
ATOM      4  H   UNL     1       2.700   6.244  20.742  0.00  0.00    +0.000 HD
ENDROOT
BRANCH   1   7
ATOM      5  C   UNL     1       1.175   3.690  18.812  0.00  0.00    +0.000 C 
ATOM      6  C   UNL     1       2.552   4.086  18.419  0.00  0.00    +0.000 C 
ATOM      7  C   UNL     1       3.204   5.255  18.336  0.00  0.00    +0.000 C 
ATOM      8  C   UNL     1       4.604   5.046  17.871  0.00  0.00    +0.000 C 
ATOM      9  C   UNL     1       5.665   5.418  18.924  0.00  0.00    +0.000 C 
ATOM     10  C   UNL     1       7.091   5.186  18.419  0.00  0.00    +0.000 C 
ATOM     11  C   UNL     1       7.325   5.899  17.091  0.00  0.00    +0.000 C 
ATOM     12  C   UNL     1       6.332   5.428  16.035  0.00  0.00    +0.000 C 
ATOM     13  C   UNL     1       4.891   5.666  16.490  0.00  0.00    +0.000 C 
ATOM     14  O   UNL     1       4.687   3.616  17.699  0.00  0.00    +0.000 OA
ATOM     15  C   UNL     1       3.499   3.042  18.013  0.00  0.00    +0.000 C 
ATOM     16  O   UNL     1       3.263   1.847  17.964  0.00  0.00    +0.000 OA
ENDBRANCH   1   7
BRANCH   3  17
ATOM     17  C   UNL     1       1.784   8.120  20.383  0.00  0.00    +0.000 C 
BRANCH  17  18
ATOM     18  C   UNL     1       0.643   7.942  21.383  0.00  0.00    +0.000 C 
BRANCH  18  19
ATOM     19  C   UNL     1      -0.082   9.239  21.643  0.00  0.00    +0.000 A 
ATOM     20  C   UNL     1      -0.275  10.164  20.606  0.00  0.00    +0.000 A 
ATOM     21  C   UNL     1      -0.910  11.383  20.855  0.00  0.00    +0.000 A 
ATOM     22  C   UNL     1      -1.352  11.684  22.142  0.00  0.00    +0.000 A 
ATOM     23 CL   UNL     1      -2.119  13.193  22.452  0.00  0.00    +0.000 Cl
ATOM     24  C   UNL     1      -1.170  10.774  23.179  0.00  0.00    +0.000 A 
ATOM     25  C   UNL     1      -0.535   9.555  22.932  0.00  0.00    +0.000 A 
ENDBRANCH  18  19
ENDBRANCH  17  18
ENDBRANCH   3  17
TORSDOF 4
ENDMDL
MODEL 3
REMARK VINA RESULT:      -8.4      2.626      4.258
REMARK  Name = 
REMARK  5 active torsions:
REMARK  status: ('A' for Active; 'I' for Inactive)
REMARK    1  A    between atoms: C_1  and  C_2
REMARK    2  A    between atoms: C_3  and  C_4
REMARK    3  A    between atoms: N_6  and  C_7
REMARK    4  A    between atoms: C_7  and  C_8
REMARK    5  A    between atoms: C_8  and  C_9
REMARK                            x       y       z     vdW  Elec       q    Type
REMARK                         _______ _______ _______ _____ _____    ______ ____
ROOT
ATOM      1  C   UNL     1       2.723   5.817  19.182  0.00  0.00    +0.000 C 
ATOM      2  O   UNL     1       1.931   5.924  18.253  0.00  0.00    +0.000 OA
ATOM      3  N   UNL     1       2.748   6.747  20.192  0.00  0.00    +0.000 N 
ATOM      4  H   UNL     1       3.388   6.689  20.964  0.00  0.00    +0.000 HD
ENDROOT
BRANCH   1   7
ATOM      5  C   UNL     1       2.437   3.239  21.032  0.00  0.00    +0.000 C 
ATOM      6  C   UNL     1       3.493   3.630  20.063  0.00  0.00    +0.000 C 
ATOM      7  C   UNL     1       3.681   4.685  19.256  0.00  0.00    +0.000 C 
ATOM      8  C   UNL     1       4.949   4.540  18.486  0.00  0.00    +0.000 C 
ATOM      9  C   UNL     1       6.007   5.604  18.834  0.00  0.00    +0.000 C 
ATOM     10  C   UNL     1       7.298   5.424  18.033  0.00  0.00    +0.000 C 
ATOM     11  C   UNL     1       7.011   5.369  16.536  0.00  0.00    +0.000 C 
ATOM     12  C   UNL     1       6.048   4.235  16.205  0.00  0.00    +0.000 C 
ATOM     13  C   UNL     1       4.732   4.390  16.968  0.00  0.00    +0.000 C 
ATOM     14  O   UNL     1       5.475   3.279  18.946  0.00  0.00    +0.000 OA
ATOM     15  C   UNL     1       4.638   2.735  19.864  0.00  0.00    +0.000 C 
ATOM     16  O   UNL     1       4.815   1.670  20.432  0.00  0.00    +0.000 OA
ENDBRANCH   1   7
BRANCH   3  17
ATOM     17  C   UNL     1       1.828   7.874  20.158  0.00  0.00    +0.000 C 
BRANCH  17  18
ATOM     18  C   UNL     1       0.728   7.768  21.212  0.00  0.00    +0.000 C 
BRANCH  18  19
ATOM     19  C   UNL     1       0.156   9.120  21.563  0.00  0.00    +0.000 A 
ATOM     20  C   UNL     1      -0.409   9.346  22.827  0.00  0.00    +0.000 A 
ATOM     21  C   UNL     1      -0.975  10.585  23.137  0.00  0.00    +0.000 A 
ATOM     22  C   UNL     1      -0.981  11.602  22.185  0.00  0.00    +0.000 A 
ATOM     23 CL   UNL     1      -1.692  13.123  22.562  0.00  0.00    +0.000 Cl
ATOM     24  C   UNL     1      -0.420  11.393  20.928  0.00  0.00    +0.000 A 
ATOM     25  C   UNL     1       0.145  10.155  20.616  0.00  0.00    +0.000 A 
ENDBRANCH  18  19
ENDBRANCH  17  18
ENDBRANCH   3  17
TORSDOF 4
ENDMDL
MODEL 4
REMARK VINA RESULT:      -8.3      2.377      2.776
REMARK  Name = 
REMARK  5 active torsions:
REMARK  status: ('A' for Active; 'I' for Inactive)
REMARK    1  A    between atoms: C_1  and  C_2
REMARK    2  A    between atoms: C_3  and  C_4
REMARK    3  A    between atoms: N_6  and  C_7
REMARK    4  A    between atoms: C_7  and  C_8
REMARK    5  A    between atoms: C_8  and  C_9
REMARK                            x       y       z     vdW  Elec       q    Type
REMARK                         _______ _______ _______ _____ _____    ______ ____
ROOT
ATOM      1  C   UNL     1       2.880   6.966  18.305  0.00  0.00    +0.000 C 
ATOM      2  O   UNL     1       2.878   7.939  17.560  0.00  0.00    +0.000 OA
ATOM      3  N   UNL     1       2.353   7.050  19.569  0.00  0.00    +0.000 N 
ATOM      4  H   UNL     1       2.344   6.272  20.204  0.00  0.00    +0.000 HD
ENDROOT
BRANCH   1   7
ATOM      5  C   UNL     1       5.186   6.548  16.147  0.00  0.00    +0.000 C 
ATOM      6  C   UNL     1       4.421   5.566  16.957  0.00  0.00    +0.000 C 
ATOM      7  C   UNL     1       3.449   5.663  17.875  0.00  0.00    +0.000 C 
ATOM      8  C   UNL     1       3.052   4.312  18.367  0.00  0.00    +0.000 C 
ATOM      9  C   UNL     1       1.604   3.927  18.007  0.00  0.00    +0.000 C 
ATOM     10  C   UNL     1       1.230   2.535  18.519  0.00  0.00    +0.000 C 
ATOM     11  C   UNL     1       1.503   2.409  20.014  0.00  0.00    +0.000 C 
ATOM     12  C   UNL     1       2.968   2.685  20.328  0.00  0.00    +0.000 C 
ATOM     13  C   UNL     1       3.379   4.080  19.854  0.00  0.00    +0.000 C 
ATOM     14  O   UNL     1       3.907   3.423  17.620  0.00  0.00    +0.000 OA
ATOM     15  C   UNL     1       4.711   4.138  16.795  0.00  0.00    +0.000 C 
ATOM     16  O   UNL     1       5.542   3.661  16.040  0.00  0.00    +0.000 OA
ENDBRANCH   1   7
BRANCH   3  17
ATOM     17  C   UNL     1       1.787   8.309  20.032  0.00  0.00    +0.000 C 
BRANCH  17  18
ATOM     18  C   UNL     1       0.987   8.156  21.325  0.00  0.00    +0.000 C 
BRANCH  18  19
ATOM     19  C   UNL     1       0.172   9.389  21.628  0.00  0.00    +0.000 A 
ATOM     20  C   UNL     1      -0.328   9.609  22.920  0.00  0.00    +0.000 A 
ATOM     21  C   UNL     1      -1.117  10.730  23.191  0.00  0.00    +0.000 A 
ATOM     22  C   UNL     1      -1.411  11.634  22.173  0.00  0.00    +0.000 A 
ATOM     23 CL   UNL     1      -2.395  13.005  22.504  0.00  0.00    +0.000 Cl
ATOM     24  C   UNL     1      -0.918  11.430  20.887  0.00  0.00    +0.000 A 
ATOM     25  C   UNL     1      -0.130  10.309  20.614  0.00  0.00    +0.000 A 
ENDBRANCH  18  19
ENDBRANCH  17  18
ENDBRANCH   3  17
TORSDOF 4
ENDMDL
MODEL 5
REMARK VINA RESULT:      -8.2      2.201      2.718
REMARK  Name = 
REMARK  5 active torsions:
REMARK  status: ('A' for Active; 'I' for Inactive)
REMARK    1  A    between atoms: C_1  and  C_2
REMARK    2  A    between atoms: C_3  and  C_4
REMARK    3  A    between atoms: N_6  and  C_7
REMARK    4  A    between atoms: C_7  and  C_8
REMARK    5  A    between atoms: C_8  and  C_9
REMARK                            x       y       z     vdW  Elec       q    Type
REMARK                         _______ _______ _______ _____ _____    ______ ____
ROOT
ATOM      1  C   UNL     1       2.493   7.190  18.635  0.00  0.00    +0.000 C 
ATOM      2  O   UNL     1       2.162   7.959  17.740  0.00  0.00    +0.000 OA
ATOM      3  N   UNL     1       2.213   7.478  19.947  0.00  0.00    +0.000 N 
ATOM      4  H   UNL     1       2.475   6.870  20.702  0.00  0.00    +0.000 HD
ENDROOT
BRANCH   1   7
ATOM      5  C   UNL     1       5.185   6.898  16.956  0.00  0.00    +0.000 C 
ATOM      6  C   UNL     1       4.338   5.876  17.623  0.00  0.00    +0.000 C 
ATOM      7  C   UNL     1       3.206   5.920  18.340  0.00  0.00    +0.000 C 
ATOM      8  C   UNL     1       2.800   4.551  18.769  0.00  0.00    +0.000 C 
ATOM      9  C   UNL     1       1.471   4.080  18.149  0.00  0.00    +0.000 C 
ATOM     10  C   UNL     1       1.086   2.671  18.603  0.00  0.00    +0.000 C 
ATOM     11  C   UNL     1       1.078   2.568  20.124  0.00  0.00    +0.000 C 
ATOM     12  C   UNL     1       2.440   2.931  20.704  0.00  0.00    +0.000 C 
ATOM     13  C   UNL     1       2.853   4.346  20.295  0.00  0.00    +0.000 C 
ATOM     14  O   UNL     1       3.829   3.710  18.210  0.00  0.00    +0.000 OA
ATOM     15  C   UNL     1       4.734   4.467  17.541  0.00  0.00    +0.000 C 
ATOM     16  O   UNL     1       5.718   4.036  16.963  0.00  0.00    +0.000 OA
ENDBRANCH   1   7
BRANCH   3  17
ATOM     17  C   UNL     1       1.518   8.713  20.281  0.00  0.00    +0.000 C 
BRANCH  17  18
ATOM     18  C   UNL     1       0.645   8.580  21.528  0.00  0.00    +0.000 C 
BRANCH  18  19
ATOM     19  C   UNL     1      -0.227   9.794  21.733  0.00  0.00    +0.000 A 
ATOM     20  C   UNL     1      -0.508  10.655  20.662  0.00  0.00    +0.000 A 
ATOM     21  C   UNL     1      -1.281  11.802  20.862  0.00  0.00    +0.000 A 
ATOM     22  C   UNL     1      -1.773  12.094  22.132  0.00  0.00    +0.000 A 
ATOM     23 CL   UNL     1      -2.711  13.515  22.380  0.00  0.00    +0.000 Cl
ATOM     24  C   UNL     1      -1.505  11.246  23.203  0.00  0.00    +0.000 A 
ATOM     25  C   UNL     1      -0.732  10.100  23.006  0.00  0.00    +0.000 A 
ENDBRANCH  18  19
ENDBRANCH  17  18
ENDBRANCH   3  17
TORSDOF 4
ENDMDL
MODEL 6
REMARK VINA RESULT:      -8.2      2.171      2.547
REMARK  Name = 
REMARK  5 active torsions:
REMARK  status: ('A' for Active; 'I' for Inactive)
REMARK    1  A    between atoms: C_1  and  C_2
REMARK    2  A    between atoms: C_3  and  C_4
REMARK    3  A    between atoms: N_6  and  C_7
REMARK    4  A    between atoms: C_7  and  C_8
REMARK    5  A    between atoms: C_8  and  C_9
REMARK                            x       y       z     vdW  Elec       q    Type
REMARK                         _______ _______ _______ _____ _____    ______ ____
ROOT
ATOM      1  C   UNL     1       2.877   7.080  18.481  0.00  0.00    +0.000 C 
ATOM      2  O   UNL     1       2.720   7.297  19.676  0.00  0.00    +0.000 OA
ATOM      3  N   UNL     1       2.594   8.048  17.550  0.00  0.00    +0.000 N 
ATOM      4  H   UNL     1       2.708   7.899  16.563  0.00  0.00    +0.000 HD
ENDROOT
BRANCH   1   7
ATOM      5  C   UNL     1       5.123   6.645  16.264  0.00  0.00    +0.000 C 
ATOM      6  C   UNL     1       4.329   5.667  17.050  0.00  0.00    +0.000 C 
ATOM      7  C   UNL     1       3.379   5.770  17.990  0.00  0.00    +0.000 C 
ATOM      8  C   UNL     1       2.930   4.421  18.438  0.00  0.00    +0.000 C 
ATOM      9  C   UNL     1       1.460   4.114  18.092  0.00  0.00    +0.000 C 
ATOM     10  C   UNL     1       1.033   2.721  18.557  0.00  0.00    +0.000 C 
ATOM     11  C   UNL     1       1.326   2.525  20.041  0.00  0.00    +0.000 C 
ATOM     12  C   UNL     1       2.808   2.724  20.337  0.00  0.00    +0.000 C 
ATOM     13  C   UNL     1       3.272   4.117  19.909  0.00  0.00    +0.000 C 
ATOM     14  O   UNL     1       3.730   3.524  17.641  0.00  0.00    +0.000 OA
ATOM     15  C   UNL     1       4.552   4.234  16.829  0.00  0.00    +0.000 C 
ATOM     16  O   UNL     1       5.347   3.751  16.040  0.00  0.00    +0.000 OA
ENDBRANCH   1   7
BRANCH   3  17
ATOM     17  C   UNL     1       2.098   9.345  17.986  0.00  0.00    +0.000 C 
BRANCH  17  18
ATOM     18  C   UNL     1       0.573   9.431  17.969  0.00  0.00    +0.000 C 
BRANCH  18  19
ATOM     19  C   UNL     1       0.033  10.057  19.231  0.00  0.00    +0.000 A 
ATOM     20  C   UNL     1      -0.784  11.195  19.165  0.00  0.00    +0.000 A 
ATOM     21  C   UNL     1      -1.250  11.799  20.335  0.00  0.00    +0.000 A 
ATOM     22  C   UNL     1      -0.900  11.270  21.576  0.00  0.00    +0.000 A 
ATOM     23 CL   UNL     1      -1.461  12.024  23.017  0.00  0.00    +0.000 Cl
ATOM     24  C   UNL     1      -0.092  10.139  21.656  0.00  0.00    +0.000 A 
ATOM     25  C   UNL     1       0.375   9.535  20.487  0.00  0.00    +0.000 A 
ENDBRANCH  18  19
ENDBRANCH  17  18
ENDBRANCH   3  17
TORSDOF 4
ENDMDL
MODEL 7
REMARK VINA RESULT:      -8.2      2.354      4.164
REMARK  Name = 
REMARK  5 active torsions:
REMARK  status: ('A' for Active; 'I' for Inactive)
REMARK    1  A    between atoms: C_1  and  C_2
REMARK    2  A    between atoms: C_3  and  C_4
REMARK    3  A    between atoms: N_6  and  C_7
REMARK    4  A    between atoms: C_7  and  C_8
REMARK    5  A    between atoms: C_8  and  C_9
REMARK                            x       y       z     vdW  Elec       q    Type
REMARK                         _______ _______ _______ _____ _____    ______ ____
ROOT
ATOM      1  C   UNL     1       2.716   6.118  19.161  0.00  0.00    +0.000 C 
ATOM      2  O   UNL     1       2.119   6.433  18.137  0.00  0.00    +0.000 OA
ATOM      3  N   UNL     1       2.542   6.832  20.320  0.00  0.00    +0.000 N 
ATOM      4  H   UNL     1       3.020   6.602  21.173  0.00  0.00    +0.000 HD
ENDROOT
BRANCH   1   7
ATOM      5  C   UNL     1       2.370   3.486  20.922  0.00  0.00    +0.000 C 
ATOM      6  C   UNL     1       3.432   3.883  19.962  0.00  0.00    +0.000 C 
ATOM      7  C   UNL     1       3.644   4.959  19.191  0.00  0.00    +0.000 C 
ATOM      8  C   UNL     1       4.905   4.808  18.410  0.00  0.00    +0.000 C 
ATOM      9  C   UNL     1       5.992   5.832  18.789  0.00  0.00    +0.000 C 
ATOM     10  C   UNL     1       7.274   5.646  17.976  0.00  0.00    +0.000 C 
ATOM     11  C   UNL     1       6.980   5.651  16.480  0.00  0.00    +0.000 C 
ATOM     12  C   UNL     1       5.987   4.554  16.115  0.00  0.00    +0.000 C 
ATOM     13  C   UNL     1       4.677   4.717  16.889  0.00  0.00    +0.000 C 
ATOM     14  O   UNL     1       5.399   3.518  18.824  0.00  0.00    +0.000 OA
ATOM     15  C   UNL     1       4.552   2.966  19.727  0.00  0.00    +0.000 C 
ATOM     16  O   UNL     1       4.703   1.878  20.257  0.00  0.00    +0.000 OA
ENDBRANCH   1   7
BRANCH   3  17
ATOM     17  C   UNL     1       1.643   7.977  20.335  0.00  0.00    +0.000 C 
BRANCH  17  18
ATOM     18  C   UNL     1       1.248   8.399  21.749  0.00  0.00    +0.000 C 
BRANCH  18  19
ATOM     19  C   UNL     1       0.287   9.562  21.738  0.00  0.00    +0.000 A 
ATOM     20  C   UNL     1       0.032  10.261  20.549  0.00  0.00    +0.000 A 
ATOM     21  C   UNL     1      -0.826  11.363  20.548  0.00  0.00    +0.000 A 
ATOM     22  C   UNL     1      -1.430  11.773  21.734  0.00  0.00    +0.000 A 
ATOM     23 CL   UNL     1      -2.474  13.141  21.735  0.00  0.00    +0.000 Cl
ATOM     24  C   UNL     1      -1.189  11.087  22.921  0.00  0.00    +0.000 A 
ATOM     25  C   UNL     1      -0.330   9.985  22.924  0.00  0.00    +0.000 A 
ENDBRANCH  18  19
ENDBRANCH  17  18
ENDBRANCH   3  17
TORSDOF 4
ENDMDL
MODEL 8
REMARK VINA RESULT:      -8.1      1.469      3.543
REMARK  Name = 
REMARK  5 active torsions:
REMARK  status: ('A' for Active; 'I' for Inactive)
REMARK    1  A    between atoms: C_1  and  C_2
REMARK    2  A    between atoms: C_3  and  C_4
REMARK    3  A    between atoms: N_6  and  C_7
REMARK    4  A    between atoms: C_7  and  C_8
REMARK    5  A    between atoms: C_8  and  C_9
REMARK                            x       y       z     vdW  Elec       q    Type
REMARK                         _______ _______ _______ _____ _____    ______ ____
ROOT
ATOM      1  C   UNL     1       2.487   6.386  19.255  0.00  0.00    +0.000 C 
ATOM      2  O   UNL     1       2.079   6.350  20.410  0.00  0.00    +0.000 OA
ATOM      3  N   UNL     1       2.311   7.508  18.484  0.00  0.00    +0.000 N 
ATOM      4  H   UNL     1       2.630   7.566  17.533  0.00  0.00    +0.000 HD
ENDROOT
BRANCH   1   7
ATOM      5  C   UNL     1       1.266   3.475  18.826  0.00  0.00    +0.000 C 
ATOM      6  C   UNL     1       2.605   4.027  18.498  0.00  0.00    +0.000 C 
ATOM      7  C   UNL     1       3.187   5.226  18.644  0.00  0.00    +0.000 C 
ATOM      8  C   UNL     1       4.582   5.203  18.121  0.00  0.00    +0.000 C 
ATOM      9  C   UNL     1       5.652   5.419  19.208  0.00  0.00    +0.000 C 
ATOM     10  C   UNL     1       7.072   5.382  18.641  0.00  0.00    +0.000 C 
ATOM     11  C   UNL     1       7.225   6.363  17.484  0.00  0.00    +0.000 C 
ATOM     12  C   UNL     1       6.229   6.057  16.371  0.00  0.00    +0.000 C 
ATOM     13  C   UNL     1       4.792   6.107  16.891  0.00  0.00    +0.000 C 
ATOM     14  O   UNL     1       4.740   3.847  17.658  0.00  0.00    +0.000 OA
ATOM     15  C   UNL     1       3.597   3.149  17.870  0.00  0.00    +0.000 C 
ATOM     16  O   UNL     1       3.428   1.976  17.581  0.00  0.00    +0.000 OA
ENDBRANCH   1   7
BRANCH   3  17
ATOM     17  C   UNL     1       1.629   8.667  19.042  0.00  0.00    +0.000 C 
BRANCH  17  18
ATOM     18  C   UNL     1       1.234   9.688  17.977  0.00  0.00    +0.000 C 
BRANCH  18  19
ATOM     19  C   UNL     1      -0.154  10.233  18.211  0.00  0.00    +0.000 A 
ATOM     20  C   UNL     1      -1.237   9.763  17.454  0.00  0.00    +0.000 A 
ATOM     21  C   UNL     1      -2.514  10.297  17.642  0.00  0.00    +0.000 A 
ATOM     22  C   UNL     1      -2.714  11.303  18.584  0.00  0.00    +0.000 A 
ATOM     23 CL   UNL     1      -4.284  11.971  18.804  0.00  0.00    +0.000 Cl
ATOM     24  C   UNL     1      -1.648  11.776  19.345  0.00  0.00    +0.000 A 
ATOM     25  C   UNL     1      -0.370  11.244  19.157  0.00  0.00    +0.000 A 
ENDBRANCH  18  19
ENDBRANCH  17  18
ENDBRANCH   3  17
TORSDOF 4
ENDMDL
MODEL 9
REMARK VINA RESULT:      -8.1      1.553      3.507
REMARK  Name = 
REMARK  5 active torsions:
REMARK  status: ('A' for Active; 'I' for Inactive)
REMARK    1  A    between atoms: C_1  and  C_2
REMARK    2  A    between atoms: C_3  and  C_4
REMARK    3  A    between atoms: N_6  and  C_7
REMARK    4  A    between atoms: C_7  and  C_8
REMARK    5  A    between atoms: C_8  and  C_9
REMARK                            x       y       z     vdW  Elec       q    Type
REMARK                         _______ _______ _______ _____ _____    ______ ____
ROOT
ATOM      1  C   UNL     1       2.551   6.274  19.258  0.00  0.00    +0.000 C 
ATOM      2  O   UNL     1       2.147   6.273  20.415  0.00  0.00    +0.000 OA
ATOM      3  N   UNL     1       2.400   7.384  18.464  0.00  0.00    +0.000 N 
ATOM      4  H   UNL     1       2.717   7.414  17.511  0.00  0.00    +0.000 HD
ENDROOT
BRANCH   1   7
ATOM      5  C   UNL     1       1.309   3.350  19.029  0.00  0.00    +0.000 C 
ATOM      6  C   UNL     1       2.630   3.882  18.609  0.00  0.00    +0.000 C 
ATOM      7  C   UNL     1       3.219   5.085  18.669  0.00  0.00    +0.000 C 
ATOM      8  C   UNL     1       4.587   5.033  18.078  0.00  0.00    +0.000 C 
ATOM      9  C   UNL     1       5.709   5.297  19.100  0.00  0.00    +0.000 C 
ATOM     10  C   UNL     1       7.099   5.230  18.465  0.00  0.00    +0.000 C 
ATOM     11  C   UNL     1       7.195   6.154  17.256  0.00  0.00    +0.000 C 
ATOM     12  C   UNL     1       6.145   5.798  16.211  0.00  0.00    +0.000 C 
ATOM     13  C   UNL     1       4.735   5.877  16.798  0.00  0.00    +0.000 C 
ATOM     14  O   UNL     1       4.721   3.656  17.674  0.00  0.00    +0.000 OA
ATOM     15  C   UNL     1       3.590   2.972  17.975  0.00  0.00    +0.000 C 
ATOM     16  O   UNL     1       3.406   1.787  17.751  0.00  0.00    +0.000 OA
ENDBRANCH   1   7
BRANCH   3  17
ATOM     17  C   UNL     1       1.750   8.571  19.000  0.00  0.00    +0.000 C 
BRANCH  17  18
ATOM     18  C   UNL     1       1.292   9.536  17.909  0.00  0.00    +0.000 C 
BRANCH  18  19
ATOM     19  C   UNL     1       0.028  10.262  18.298  0.00  0.00    +0.000 A 
ATOM     20  C   UNL     1       0.032  11.174  19.364  0.00  0.00    +0.000 A 
ATOM     21  C   UNL     1      -1.147  11.815  19.750  0.00  0.00    +0.000 A 
ATOM     22  C   UNL     1      -2.336  11.546  19.075  0.00  0.00    +0.000 A 
ATOM     23 CL   UNL     1      -3.791  12.323  19.563  0.00  0.00    +0.000 Cl
ATOM     24  C   UNL     1      -2.354  10.646  18.014  0.00  0.00    +0.000 A 
ATOM     25  C   UNL     1      -1.176  10.003  17.627  0.00  0.00    +0.000 A 
ENDBRANCH  18  19
ENDBRANCH  17  18
ENDBRANCH   3  17
TORSDOF 4
ENDMDL
