MODEL 1
REMARK VINA RESULT:      -7.4      0.000      0.000
REMARK  Name = 
REMARK  7 active torsions:
REMARK  status: ('A' for Active; 'I' for Inactive)
REMARK    1  A    between atoms: O5*_1  and  C5*_2
REMARK    2  A    between atoms: C5*_2  and  C4*_3
REMARK    3  A    between atoms: C1*_5  and  N_6
REMARK    4  A    between atoms: N_11  and  C_12
REMARK    5  A    between atoms: N_17  and  C_18
REMARK    6  A    between atoms: C2*_23  and  O2*_24
REMARK    7  A    between atoms: C3*_25  and  O3*_26
REMARK                            x       y       z     vdW  Elec       q    Type
REMARK                         _______ _______ _______ _____ _____    ______ ____
ROOT
ATOM      1  N   UNL     1       1.557   8.778  19.206  0.00  0.00    +0.000 N 
ATOM      2  C   UNL     1       1.871   9.498  18.085  0.00  0.00    +0.000 A 
ATOM      3  N   UNL     1       2.728   8.866  17.310  0.00  0.00    +0.000 NA
ATOM      4  C   UNL     1       2.971   7.675  17.965  0.00  0.00    +0.000 A 
ATOM      5  C   UNL     1       3.788   6.579  17.645  0.00  0.00    +0.000 A 
ATOM      6  N   UNL     1       4.500   6.564  16.429  0.00  0.00    +0.000 N 
ATOM      7  N   UNL     1       3.822   5.538  18.524  0.00  0.00    +0.000 NA
ATOM      8  C   UNL     1       3.049   5.572  19.635  0.00  0.00    +0.000 A 
ATOM      9  N   UNL     1       3.124   4.424  20.438  0.00  0.00    +0.000 N 
ATOM     10  N   UNL     1       2.228   6.578  20.004  0.00  0.00    +0.000 NA
ATOM     11  C   UNL     1       2.250   7.600  19.140  0.00  0.00    +0.000 A 
ATOM     12  H   UNL     1       4.368   7.449  15.941  0.00  0.00    +0.000 HD
ATOM     13  H   UNL     1       3.613   3.727  19.890  0.00  0.00    +0.000 HD
ENDROOT
BRANCH   1  16
ATOM     14  C4* UNL     1      -0.795  11.044  20.336  0.00  0.00    +0.000 C 
ATOM     15  O4* UNL     1      -0.539   9.799  19.641  0.00  0.00    +0.000 OA
ATOM     16  C1* UNL     1       0.611   9.148  20.248  0.00  0.00    +0.000 C 
ATOM     17  C2* UNL     1       1.168  10.086  21.322  0.00  0.00    +0.000 C 
ATOM     18  C3* UNL     1      -0.053  10.933  21.660  0.00  0.00    +0.000 C 
BRANCH  17  19
ATOM     19  O2* UNL     1       1.643   9.408  22.487  0.00  0.00    +0.000 OA
ATOM     20  H2* UNL     1       2.335   9.981  22.878  0.00  0.00    +0.000 HD
ENDBRANCH  17  19
BRANCH  18  21
ATOM     21  O3* UNL     1      -0.849  10.212  22.627  0.00  0.00    +0.000 OA
ATOM     22  H3* UNL     1      -1.144   9.372  22.226  0.00  0.00    +0.000 HD
ENDBRANCH  18  21
BRANCH  14  23
ATOM     23  C5* UNL     1      -0.358  12.232  19.470  0.00  0.00    +0.000 C 
BRANCH  23  24
ATOM     24  O5* UNL     1      -0.563  11.973  18.087  0.00  0.00    +0.000 OA
ATOM     25  H5* UNL     1       0.289  12.114  17.635  0.00  0.00    +0.000 HD
ENDBRANCH  23  24
ENDBRANCH  14  23
ENDBRANCH   1  16
BRANCH   6  26
ATOM     26  C   UNL     1       5.774   5.869  16.305  0.00  0.00    +0.000 C 
ATOM     27  C   UNL     1       5.776   4.402  15.954  0.00  0.00    +0.000 C 
ATOM     28  C   UNL     1       6.315   5.408  14.982  0.00  0.00    +0.000 C 
ENDBRANCH   6  26
BRANCH   9  29
ATOM     29  C   UNL     1       1.988   4.039  21.268  0.00  0.00    +0.000 C 
ATOM     30  C   UNL     1       0.869   3.190  20.732  0.00  0.00    +0.000 C 
ATOM     31  C   UNL     1       1.836   2.614  21.724  0.00  0.00    +0.000 C 
ENDBRANCH   9  29
TORSDOF 7
ENDMDL
MODEL 2
REMARK VINA RESULT:      -6.9      4.099      6.810
REMARK  Name = 
REMARK  7 active torsions:
REMARK  status: ('A' for Active; 'I' for Inactive)
REMARK    1  A    between atoms: O5*_1  and  C5*_2
REMARK    2  A    between atoms: C5*_2  and  C4*_3
REMARK    3  A    between atoms: C1*_5  and  N_6
REMARK    4  A    between atoms: N_11  and  C_12
REMARK    5  A    between atoms: N_17  and  C_18
REMARK    6  A    between atoms: C2*_23  and  O2*_24
REMARK    7  A    between atoms: C3*_25  and  O3*_26
REMARK                            x       y       z     vdW  Elec       q    Type
REMARK                         _______ _______ _______ _____ _____    ______ ____
ROOT
ATOM      1  N   UNL     1       3.478   5.088  18.200  0.00  0.00    +0.000 N 
ATOM      2  C   UNL     1       3.279   6.167  19.018  0.00  0.00    +0.000 A 
ATOM      3  N   UNL     1       4.198   7.096  18.850  0.00  0.00    +0.000 NA
ATOM      4  C   UNL     1       5.025   6.589  17.868  0.00  0.00    +0.000 A 
ATOM      5  C   UNL     1       6.176   7.108  17.252  0.00  0.00    +0.000 A 
ATOM      6  N   UNL     1       6.633   8.398  17.589  0.00  0.00    +0.000 N 
ATOM      7  N   UNL     1       6.786   6.341  16.306  0.00  0.00    +0.000 NA
ATOM      8  C   UNL     1       6.250   5.145  15.963  0.00  0.00    +0.000 A 
ATOM      9  N   UNL     1       6.931   4.467  14.941  0.00  0.00    +0.000 N 
ATOM     10  N   UNL     1       5.142   4.586  16.495  0.00  0.00    +0.000 NA
ATOM     11  C   UNL     1       4.592   5.348  17.448  0.00  0.00    +0.000 A 
ATOM     12  H   UNL     1       6.061   8.781  18.340  0.00  0.00    +0.000 HD
ATOM     13  H   UNL     1       7.584   5.134  14.546  0.00  0.00    +0.000 HD
ENDROOT
BRANCH   1  16
ATOM     14  C4* UNL     1       1.047   3.095  19.632  0.00  0.00    +0.000 C 
ATOM     15  O4* UNL     1       1.352   4.175  18.717  0.00  0.00    +0.000 OA
ATOM     16  C1* UNL     1       2.634   3.909  18.084  0.00  0.00    +0.000 C 
ATOM     17  C2* UNL     1       3.212   2.638  18.713  0.00  0.00    +0.000 C 
ATOM     18  C3* UNL     1       1.956   1.944  19.224  0.00  0.00    +0.000 C 
BRANCH  17  19
ATOM     19  O2* UNL     1       3.901   1.800  17.783  0.00  0.00    +0.000 OA
ATOM     20  H2* UNL     1       3.252   1.135  17.474  0.00  0.00    +0.000 HD
ENDBRANCH  17  19
BRANCH  18  21
ATOM     21  O3* UNL     1       1.371   1.202  18.131  0.00  0.00    +0.000 OA
ATOM     22  H3* UNL     1       0.631   1.720  17.760  0.00  0.00    +0.000 HD
ENDBRANCH  18  21
BRANCH  14  23
ATOM     23  C5* UNL     1       1.236   3.559  21.082  0.00  0.00    +0.000 C 
BRANCH  23  24
ATOM     24  O5* UNL     1       1.611   2.481  21.929  0.00  0.00    +0.000 OA
ATOM     25  H5* UNL     1       1.683   1.684  21.373  0.00  0.00    +0.000 HD
ENDBRANCH  23  24
ENDBRANCH  14  23
ENDBRANCH   1  16
BRANCH   6  26
ATOM     26  C   UNL     1       8.047   8.740  17.527  0.00  0.00    +0.000 C 
ATOM     27  C   UNL     1       8.469  10.161  17.806  0.00  0.00    +0.000 C 
ATOM     28  C   UNL     1       8.851   9.065  18.754  0.00  0.00    +0.000 C 
ENDBRANCH   6  26
BRANCH   9  29
ATOM     29  C   UNL     1       6.210   3.544  14.071  0.00  0.00    +0.000 C 
ATOM     30  C   UNL     1       5.160   4.024  13.107  0.00  0.00    +0.000 C 
ATOM     31  C   UNL     1       6.482   3.535  12.591  0.00  0.00    +0.000 C 
ENDBRANCH   9  29
TORSDOF 7
ENDMDL
MODEL 3
REMARK VINA RESULT:      -6.7      3.955      6.373
REMARK  Name = 
REMARK  7 active torsions:
REMARK  status: ('A' for Active; 'I' for Inactive)
REMARK    1  A    between atoms: O5*_1  and  C5*_2
REMARK    2  A    between atoms: C5*_2  and  C4*_3
REMARK    3  A    between atoms: C1*_5  and  N_6
REMARK    4  A    between atoms: N_11  and  C_12
REMARK    5  A    between atoms: N_17  and  C_18
REMARK    6  A    between atoms: C2*_23  and  O2*_24
REMARK    7  A    between atoms: C3*_25  and  O3*_26
REMARK                            x       y       z     vdW  Elec       q    Type
REMARK                         _______ _______ _______ _____ _____    ______ ____
ROOT
ATOM      1  N   UNL     1       4.030   3.801  18.165  0.00  0.00    +0.000 N 
ATOM      2  C   UNL     1       3.807   2.572  17.605  0.00  0.00    +0.000 A 
ATOM      3  N   UNL     1       4.426   2.431  16.451  0.00  0.00    +0.000 NA
ATOM      4  C   UNL     1       5.087   3.629  16.264  0.00  0.00    +0.000 A 
ATOM      5  C   UNL     1       5.917   4.090  15.231  0.00  0.00    +0.000 A 
ATOM      6  N   UNL     1       6.244   3.237  14.157  0.00  0.00    +0.000 N 
ATOM      7  N   UNL     1       6.415   5.354  15.337  0.00  0.00    +0.000 NA
ATOM      8  C   UNL     1       6.135   6.096  16.435  0.00  0.00    +0.000 A 
ATOM      9  N   UNL     1       6.746   7.359  16.462  0.00  0.00    +0.000 N 
ATOM     10  N   UNL     1       5.362   5.720  17.475  0.00  0.00    +0.000 NA
ATOM     11  C   UNL     1       4.858   4.490  17.319  0.00  0.00    +0.000 A 
ATOM     12  H   UNL     1       5.739   2.357  14.250  0.00  0.00    +0.000 HD
ATOM     13  H   UNL     1       7.432   7.357  15.717  0.00  0.00    +0.000 HD
ENDROOT
BRANCH   1  16
ATOM     14  C4* UNL     1       1.714   3.477  20.708  0.00  0.00    +0.000 C 
ATOM     15  O4* UNL     1       3.038   3.153  20.219  0.00  0.00    +0.000 OA
ATOM     16  C1* UNL     1       3.546   4.279  19.451  0.00  0.00    +0.000 C 
ATOM     17  C2* UNL     1       2.436   5.331  19.372  0.00  0.00    +0.000 C 
ATOM     18  C3* UNL     1       1.596   4.991  20.597  0.00  0.00    +0.000 C 
BRANCH  17  19
ATOM     19  O2* UNL     1       2.912   6.676  19.452  0.00  0.00    +0.000 OA
ATOM     20  H2* UNL     1       2.156   7.252  19.217  0.00  0.00    +0.000 HD
ENDBRANCH  17  19
BRANCH  18  21
ATOM     21  O3* UNL     1       2.194   5.630  21.747  0.00  0.00    +0.000 OA
ATOM     22  H3* UNL     1       1.493   5.822  22.399  0.00  0.00    +0.000 HD
ENDBRANCH  18  21
BRANCH  14  23
ATOM     23  C5* UNL     1       0.652   2.706  19.914  0.00  0.00    +0.000 C 
BRANCH  23  24
ATOM     24  O5* UNL     1       1.227   1.630  19.184  0.00  0.00    +0.000 OA
ATOM     25  H5* UNL     1       0.744   0.820  19.429  0.00  0.00    +0.000 HD
ENDBRANCH  23  24
ENDBRANCH  14  23
ENDBRANCH   1  16
BRANCH   6  26
ATOM     26  C   UNL     1       6.513   3.764  12.826  0.00  0.00    +0.000 C 
ATOM     27  C   UNL     1       6.836   2.803  11.710  0.00  0.00    +0.000 C 
ATOM     28  C   UNL     1       5.558   3.585  11.681  0.00  0.00    +0.000 C 
ENDBRANCH   6  26
BRANCH   9  29
ATOM     29  C   UNL     1       7.052   7.994  17.738  0.00  0.00    +0.000 C 
ATOM     30  C   UNL     1       8.276   7.627  18.531  0.00  0.00    +0.000 C 
ATOM     31  C   UNL     1       8.202   8.959  17.844  0.00  0.00    +0.000 C 
ENDBRANCH   9  29
TORSDOF 7
ENDMDL
MODEL 4
REMARK VINA RESULT:      -6.3      5.004      7.360
REMARK  Name = 
REMARK  7 active torsions:
REMARK  status: ('A' for Active; 'I' for Inactive)
REMARK    1  A    between atoms: O5*_1  and  C5*_2
REMARK    2  A    between atoms: C5*_2  and  C4*_3
REMARK    3  A    between atoms: C1*_5  and  N_6
REMARK    4  A    between atoms: N_11  and  C_12
REMARK    5  A    between atoms: N_17  and  C_18
REMARK    6  A    between atoms: C2*_23  and  O2*_24
REMARK    7  A    between atoms: C3*_25  and  O3*_26
REMARK                            x       y       z     vdW  Elec       q    Type
REMARK                         _______ _______ _______ _____ _____    ______ ____
ROOT
ATOM      1  N   UNL     1       4.872   4.371  18.507  0.00  0.00    +0.000 N 
ATOM      2  C   UNL     1       4.597   5.280  19.492  0.00  0.00    +0.000 A 
ATOM      3  N   UNL     1       5.218   6.425  19.301  0.00  0.00    +0.000 NA
ATOM      4  C   UNL     1       5.923   6.243  18.128  0.00  0.00    +0.000 A 
ATOM      5  C   UNL     1       6.770   7.096  17.401  0.00  0.00    +0.000 A 
ATOM      6  N   UNL     1       6.972   8.422  17.833  0.00  0.00    +0.000 N 
ATOM      7  N   UNL     1       7.337   6.604  16.264  0.00  0.00    +0.000 NA
ATOM      8  C   UNL     1       7.038   5.348  15.854  0.00  0.00    +0.000 A 
ATOM      9  N   UNL     1       7.635   4.968  14.642  0.00  0.00    +0.000 N 
ATOM     10  N   UNL     1       6.224   4.476  16.485  0.00  0.00    +0.000 NA
ATOM     11  C   UNL     1       5.717   4.978  17.618  0.00  0.00    +0.000 A 
ATOM     12  H   UNL     1       6.492   8.573  18.719  0.00  0.00    +0.000 HD
ATOM     13  H   UNL     1       8.019   5.814  14.239  0.00  0.00    +0.000 HD
ENDROOT
BRANCH   1  16
ATOM     14  C4* UNL     1       2.051   2.379  18.374  0.00  0.00    +0.000 C 
ATOM     15  O4* UNL     1       3.070   3.098  17.637  0.00  0.00    +0.000 OA
ATOM     16  C1* UNL     1       4.322   3.030  18.374  0.00  0.00    +0.000 C 
ATOM     17  C2* UNL     1       4.048   2.311  19.699  0.00  0.00    +0.000 C 
ATOM     18  C3* UNL     1       2.805   1.497  19.359  0.00  0.00    +0.000 C 
BRANCH  17  19
ATOM     19  O2* UNL     1       5.109   1.451  20.115  0.00  0.00    +0.000 OA
ATOM     20  H2* UNL     1       5.380   0.941  19.324  0.00  0.00    +0.000 HD
ENDBRANCH  17  19
BRANCH  18  21
ATOM     21  O3* UNL     1       3.227   0.272  18.719  0.00  0.00    +0.000 OA
ATOM     22  H3* UNL     1       3.127   0.372  17.753  0.00  0.00    +0.000 HD
ENDBRANCH  18  21
BRANCH  14  23
ATOM     23  C5* UNL     1       1.079   3.366  19.034  0.00  0.00    +0.000 C 
BRANCH  23  24
ATOM     24  O5* UNL     1       0.651   2.902  20.308  0.00  0.00    +0.000 OA
ATOM     25  H5* UNL     1       0.350   3.678  20.815  0.00  0.00    +0.000 HD
ENDBRANCH  23  24
ENDBRANCH  14  23
ENDBRANCH   1  16
BRANCH   6  26
ATOM     26  C   UNL     1       8.223   9.121  17.575  0.00  0.00    +0.000 C 
ATOM     27  C   UNL     1       8.291  10.610  17.802  0.00  0.00    +0.000 C 
ATOM     28  C   UNL     1       9.074   9.682  18.679  0.00  0.00    +0.000 C 
ENDBRANCH   6  26
BRANCH   9  29
ATOM     29  C   UNL     1       6.989   3.977  13.790  0.00  0.00    +0.000 C 
ATOM     30  C   UNL     1       5.681   4.258  13.103  0.00  0.00    +0.000 C 
ATOM     31  C   UNL     1       6.945   4.179  12.299  0.00  0.00    +0.000 C 
ENDBRANCH   9  29
TORSDOF 7
ENDMDL
MODEL 5
REMARK VINA RESULT:      -6.3      6.934      8.735
REMARK  Name = 
REMARK  7 active torsions:
REMARK  status: ('A' for Active; 'I' for Inactive)
REMARK    1  A    between atoms: O5*_1  and  C5*_2
REMARK    2  A    between atoms: C5*_2  and  C4*_3
REMARK    3  A    between atoms: C1*_5  and  N_6
REMARK    4  A    between atoms: N_11  and  C_12
REMARK    5  A    between atoms: N_17  and  C_18
REMARK    6  A    between atoms: C2*_23  and  O2*_24
REMARK    7  A    between atoms: C3*_25  and  O3*_26
REMARK                            x       y       z     vdW  Elec       q    Type
REMARK                         _______ _______ _______ _____ _____    ______ ____
ROOT
ATOM      1  N   UNL     1      -4.877  12.705  20.775  0.00  0.00    +0.000 N 
ATOM      2  C   UNL     1      -6.009  12.210  20.187  0.00  0.00    +0.000 A 
ATOM      3  N   UNL     1      -5.765  11.678  19.007  0.00  0.00    +0.000 NA
ATOM      4  C   UNL     1      -4.405  11.833  18.833  0.00  0.00    +0.000 A 
ATOM      5  C   UNL     1      -3.546  11.468  17.783  0.00  0.00    +0.000 A 
ATOM      6  N   UNL     1      -4.054  10.764  16.673  0.00  0.00    +0.000 N 
ATOM      7  N   UNL     1      -2.226  11.780  17.910  0.00  0.00    +0.000 NA
ATOM      8  C   UNL     1      -1.783  12.381  19.039  0.00  0.00    +0.000 A 
ATOM      9  N   UNL     1      -0.399  12.605  19.082  0.00  0.00    +0.000 N 
ATOM     10  N   UNL     1      -2.539  12.748  20.096  0.00  0.00    +0.000 NA
ATOM     11  C   UNL     1      -3.835  12.463  19.921  0.00  0.00    +0.000 A 
ATOM     12  H   UNL     1      -5.065  10.668  16.758  0.00  0.00    +0.000 HD
ATOM     13  H   UNL     1      -0.004  12.078  18.312  0.00  0.00    +0.000 HD
ENDROOT
BRANCH   1  16
ATOM     14  C4* UNL     1      -6.224  13.067  23.936  0.00  0.00    +0.000 C 
ATOM     15  O4* UNL     1      -5.269  12.382  23.092  0.00  0.00    +0.000 OA
ATOM     16  C1* UNL     1      -4.769  13.313  22.093  0.00  0.00    +0.000 C 
ATOM     17  C2* UNL     1      -5.529  14.632  22.259  0.00  0.00    +0.000 C 
ATOM     18  C3* UNL     1      -5.976  14.552  23.714  0.00  0.00    +0.000 C 
BRANCH  17  19
ATOM     19  O2* UNL     1      -4.721  15.792  22.048  0.00  0.00    +0.000 OA
ATOM     20  H2* UNL     1      -4.455  15.776  21.106  0.00  0.00    +0.000 HD
ENDBRANCH  17  19
BRANCH  18  21
ATOM     21  O3* UNL     1      -4.888  15.012  24.547  0.00  0.00    +0.000 OA
ATOM     22  H3* UNL     1      -5.100  14.813  25.479  0.00  0.00    +0.000 HD
ENDBRANCH  18  21
BRANCH  14  23
ATOM     23  C5* UNL     1      -7.650  12.614  23.599  0.00  0.00    +0.000 C 
BRANCH  23  24
ATOM     24  O5* UNL     1      -7.787  11.203  23.706  0.00  0.00    +0.000 OA
ATOM     25  H5* UNL     1      -8.641  11.024  24.141  0.00  0.00    +0.000 HD
ENDBRANCH  23  24
ENDBRANCH  14  23
ENDBRANCH   1  16
BRANCH   6  26
ATOM     26  C   UNL     1      -3.463  10.910  15.350  0.00  0.00    +0.000 C 
ATOM     27  C   UNL     1      -2.579   9.810  14.817  0.00  0.00    +0.000 C 
ATOM     28  C   UNL     1      -3.905  10.084  14.175  0.00  0.00    +0.000 C 
ENDBRANCH   6  26
BRANCH   9  29
ATOM     29  C   UNL     1       0.293  12.657  20.365  0.00  0.00    +0.000 C 
ATOM     30  C   UNL     1       1.777  12.881  20.454  0.00  0.00    +0.000 C 
ATOM     31  C   UNL     1       0.830  13.965  20.879  0.00  0.00    +0.000 C 
ENDBRANCH   9  29
TORSDOF 7
ENDMDL
MODEL 6
REMARK VINA RESULT:      -6.2      3.577      6.868
REMARK  Name = 
REMARK  7 active torsions:
REMARK  status: ('A' for Active; 'I' for Inactive)
REMARK    1  A    between atoms: O5*_1  and  C5*_2
REMARK    2  A    between atoms: C5*_2  and  C4*_3
REMARK    3  A    between atoms: C1*_5  and  N_6
REMARK    4  A    between atoms: N_11  and  C_12
REMARK    5  A    between atoms: N_17  and  C_18
REMARK    6  A    between atoms: C2*_23  and  O2*_24
REMARK    7  A    between atoms: C3*_25  and  O3*_26
REMARK                            x       y       z     vdW  Elec       q    Type
REMARK                         _______ _______ _______ _____ _____    ______ ____
ROOT
ATOM      1  N   UNL     1       3.990   6.522  17.577  0.00  0.00    +0.000 N 
ATOM      2  C   UNL     1       4.039   7.808  17.113  0.00  0.00    +0.000 A 
ATOM      3  N   UNL     1       3.216   8.604  17.764  0.00  0.00    +0.000 NA
ATOM      4  C   UNL     1       2.613   7.787  18.699  0.00  0.00    +0.000 A 
ATOM      5  C   UNL     1       1.650   8.046  19.688  0.00  0.00    +0.000 A 
ATOM      6  N   UNL     1       1.176   9.360  19.882  0.00  0.00    +0.000 N 
ATOM      7  N   UNL     1       1.241   7.001  20.460  0.00  0.00    +0.000 NA
ATOM      8  C   UNL     1       1.796   5.778  20.284  0.00  0.00    +0.000 A 
ATOM      9  N   UNL     1       1.338   4.792  21.170  0.00  0.00    +0.000 N 
ATOM     10  N   UNL     1       2.735   5.453  19.370  0.00  0.00    +0.000 NA
ATOM     11  C   UNL     1       3.083   6.494  18.603  0.00  0.00    +0.000 A 
ATOM     12  H   UNL     1       1.578   9.978  19.178  0.00  0.00    +0.000 HD
ATOM     13  H   UNL     1       0.816   5.278  21.889  0.00  0.00    +0.000 HD
ENDROOT
BRANCH   1  16
ATOM     14  C4* UNL     1       6.885   4.675  17.956  0.00  0.00    +0.000 C 
ATOM     15  O4* UNL     1       5.478   4.810  18.269  0.00  0.00    +0.000 OA
ATOM     16  C1* UNL     1       4.795   5.396  17.127  0.00  0.00    +0.000 C 
ATOM     17  C2* UNL     1       5.852   5.740  16.074  0.00  0.00    +0.000 C 
ATOM     18  C3* UNL     1       6.979   4.783  16.440  0.00  0.00    +0.000 C 
BRANCH  17  19
ATOM     19  O2* UNL     1       5.421   5.513  14.731  0.00  0.00    +0.000 OA
ATOM     20  H2* UNL     1       4.446   5.428  14.763  0.00  0.00    +0.000 HD
ENDBRANCH  17  19
BRANCH  18  21
ATOM     21  O3* UNL     1       6.705   3.504  15.825  0.00  0.00    +0.000 OA
ATOM     22  H3* UNL     1       5.765   3.479  15.561  0.00  0.00    +0.000 HD
ENDBRANCH  18  21
BRANCH  14  23
ATOM     23  C5* UNL     1       7.699   5.733  18.711  0.00  0.00    +0.000 C 
BRANCH  23  24
ATOM     24  O5* UNL     1       7.713   5.479  20.110  0.00  0.00    +0.000 OA
ATOM     25  H5* UNL     1       8.123   6.251  20.542  0.00  0.00    +0.000 HD
ENDBRANCH  23  24
ENDBRANCH  14  23
ENDBRANCH   1  16
BRANCH   6  26
ATOM     26  C   UNL     1      -0.174   9.614  20.363  0.00  0.00    +0.000 C 
ATOM     27  C   UNL     1      -0.374  10.575  21.508  0.00  0.00    +0.000 C 
ATOM     28  C   UNL     1      -0.876  10.923  20.140  0.00  0.00    +0.000 C 
ENDBRANCH   6  26
BRANCH   9  29
ATOM     29  C   UNL     1       2.202   3.671  21.524  0.00  0.00    +0.000 C 
ATOM     30  C   UNL     1       1.640   2.360  22.000  0.00  0.00    +0.000 C 
ATOM     31  C   UNL     1       2.261   2.456  20.638  0.00  0.00    +0.000 C 
ENDBRANCH   9  29
TORSDOF 7
ENDMDL
MODEL 7
REMARK VINA RESULT:      -6.0      5.339      7.851
REMARK  Name = 
REMARK  7 active torsions:
REMARK  status: ('A' for Active; 'I' for Inactive)
REMARK    1  A    between atoms: O5*_1  and  C5*_2
REMARK    2  A    between atoms: C5*_2  and  C4*_3
REMARK    3  A    between atoms: C1*_5  and  N_6
REMARK    4  A    between atoms: N_11  and  C_12
REMARK    5  A    between atoms: N_17  and  C_18
REMARK    6  A    between atoms: C2*_23  and  O2*_24
REMARK    7  A    between atoms: C3*_25  and  O3*_26
REMARK                            x       y       z     vdW  Elec       q    Type
REMARK                         _______ _______ _______ _____ _____    ______ ____
ROOT
ATOM      1  N   UNL     1      -4.198  12.957  20.952  0.00  0.00    +0.000 N 
ATOM      2  C   UNL     1      -5.324  13.130  20.193  0.00  0.00    +0.000 A 
ATOM      3  N   UNL     1      -5.204  12.598  18.995  0.00  0.00    +0.000 NA
ATOM      4  C   UNL     1      -3.938  12.049  18.986  0.00  0.00    +0.000 A 
ATOM      5  C   UNL     1      -3.229  11.344  18.000  0.00  0.00    +0.000 A 
ATOM      6  N   UNL     1      -3.847  11.042  16.770  0.00  0.00    +0.000 N 
ATOM      7  N   UNL     1      -1.964  10.937  18.302  0.00  0.00    +0.000 NA
ATOM      8  C   UNL     1      -1.455  11.182  19.532  0.00  0.00    +0.000 A 
ATOM      9  N   UNL     1      -0.167  10.670  19.748  0.00  0.00    +0.000 N 
ATOM     10  N   UNL     1      -2.077  11.836  20.536  0.00  0.00    +0.000 NA
ATOM     11  C   UNL     1      -3.300  12.256  20.192  0.00  0.00    +0.000 A 
ATOM     12  H   UNL     1      -4.771  11.469  16.734  0.00  0.00    +0.000 HD
ATOM     13  H   UNL     1       0.024  10.049  18.971  0.00  0.00    +0.000 HD
ENDROOT
BRANCH   1  16
ATOM     14  C4* UNL     1      -5.471  13.099  24.161  0.00  0.00    +0.000 C 
ATOM     15  O4* UNL     1      -4.626  12.399  23.216  0.00  0.00    +0.000 OA
ATOM     16  C1* UNL     1      -4.000  13.370  22.333  0.00  0.00    +0.000 C 
ATOM     17  C2* UNL     1      -4.563  14.751  22.681  0.00  0.00    +0.000 C 
ATOM     18  C3* UNL     1      -5.012  14.550  24.123  0.00  0.00    +0.000 C 
BRANCH  17  19
ATOM     19  O2* UNL     1      -3.597  15.801  22.601  0.00  0.00    +0.000 OA
ATOM     20  H2* UNL     1      -3.755  16.259  21.749  0.00  0.00    +0.000 HD
ENDBRANCH  17  19
BRANCH  18  21
ATOM     21  O3* UNL     1      -3.867  14.740  24.984  0.00  0.00    +0.000 OA
ATOM     22  H3* UNL     1      -3.354  13.910  25.012  0.00  0.00    +0.000 HD
ENDBRANCH  18  21
BRANCH  14  23
ATOM     23  C5* UNL     1      -6.948  12.900  23.798  0.00  0.00    +0.000 C 
BRANCH  23  24
ATOM     24  O5* UNL     1      -7.198  11.578  23.339  0.00  0.00    +0.000 OA
ATOM     25  H5* UNL     1      -7.881  11.192  23.918  0.00  0.00    +0.000 HD
ENDBRANCH  23  24
ENDBRANCH  14  23
ENDBRANCH   1  16
BRANCH   6  26
ATOM     26  C   UNL     1      -3.072  10.924  15.542  0.00  0.00    +0.000 C 
ATOM     27  C   UNL     1      -2.582   9.563  15.114  0.00  0.00    +0.000 C 
ATOM     28  C   UNL     1      -3.620  10.277  14.303  0.00  0.00    +0.000 C 
ENDBRANCH   6  26
BRANCH   9  29
ATOM     29  C   UNL     1       0.259  10.310  21.096  0.00  0.00    +0.000 C 
ATOM     30  C   UNL     1      -0.274   9.088  21.793  0.00  0.00    +0.000 C 
ATOM     31  C   UNL     1       1.147   9.115  21.312  0.00  0.00    +0.000 C 
ENDBRANCH   9  29
TORSDOF 7
ENDMDL
MODEL 8
REMARK VINA RESULT:      -5.9      6.992      9.533
REMARK  Name = 
REMARK  7 active torsions:
REMARK  status: ('A' for Active; 'I' for Inactive)
REMARK    1  A    between atoms: O5*_1  and  C5*_2
REMARK    2  A    between atoms: C5*_2  and  C4*_3
REMARK    3  A    between atoms: C1*_5  and  N_6
REMARK    4  A    between atoms: N_11  and  C_12
REMARK    5  A    between atoms: N_17  and  C_18
REMARK    6  A    between atoms: C2*_23  and  O2*_24
REMARK    7  A    between atoms: C3*_25  and  O3*_26
REMARK                            x       y       z     vdW  Elec       q    Type
REMARK                         _______ _______ _______ _____ _____    ______ ____
ROOT
ATOM      1  N   UNL     1      -0.707  12.918  21.387  0.00  0.00    +0.000 N 
ATOM      2  C   UNL     1      -0.797  13.074  22.744  0.00  0.00    +0.000 A 
ATOM      3  N   UNL     1      -2.041  13.010  23.171  0.00  0.00    +0.000 NA
ATOM      4  C   UNL     1      -2.788  12.794  22.030  0.00  0.00    +0.000 A 
ATOM      5  C   UNL     1      -4.168  12.632  21.829  0.00  0.00    +0.000 A 
ATOM      6  N   UNL     1      -5.043  12.623  22.933  0.00  0.00    +0.000 N 
ATOM      7  N   UNL     1      -4.602  12.444  20.551  0.00  0.00    +0.000 NA
ATOM      8  C   UNL     1      -3.704  12.376  19.539  0.00  0.00    +0.000 A 
ATOM      9  N   UNL     1      -4.260  12.125  18.276  0.00  0.00    +0.000 N 
ATOM     10  N   UNL     1      -2.365  12.505  19.653  0.00  0.00    +0.000 NA
ATOM     11  C   UNL     1      -1.978  12.728  20.914  0.00  0.00    +0.000 A 
ATOM     12  H   UNL     1      -4.523  12.818  23.787  0.00  0.00    +0.000 HD
ATOM     13  H   UNL     1      -5.223  11.855  18.439  0.00  0.00    +0.000 HD
ENDROOT
BRANCH   1  16
ATOM     14  C4* UNL     1       2.540  14.026  20.975  0.00  0.00    +0.000 C 
ATOM     15  O4* UNL     1       1.662  12.985  21.468  0.00  0.00    +0.000 OA
ATOM     16  C1* UNL     1       0.509  12.884  20.588  0.00  0.00    +0.000 C 
ATOM     17  C2* UNL     1       0.621  13.994  19.539  0.00  0.00    +0.000 C 
ATOM     18  C3* UNL     1       2.121  14.264  19.532  0.00  0.00    +0.000 C 
BRANCH  17  19
ATOM     19  O2* UNL     1       0.178  13.602  18.238  0.00  0.00    +0.000 OA
ATOM     20  H2* UNL     1      -0.631  14.121  18.053  0.00  0.00    +0.000 HD
ENDBRANCH  17  19
BRANCH  18  21
ATOM     21  O3* UNL     1       2.750  13.300  18.657  0.00  0.00    +0.000 OA
ATOM     22  H3* UNL     1       2.593  13.567  17.732  0.00  0.00    +0.000 HD
ENDBRANCH  18  21
BRANCH  14  23
ATOM     23  C5* UNL     1       2.441  15.268  21.869  0.00  0.00    +0.000 C 
BRANCH  23  24
ATOM     24  O5* UNL     1       3.282  15.157  23.010  0.00  0.00    +0.000 OA
ATOM     25  H5* UNL     1       4.090  14.687  22.733  0.00  0.00    +0.000 HD
ENDBRANCH  23  24
ENDBRANCH  14  23
ENDBRANCH   1  16
BRANCH   6  26
ATOM     26  C   UNL     1      -6.416  13.094  22.815  0.00  0.00    +0.000 C 
ATOM     27  C   UNL     1      -7.530  12.256  23.390  0.00  0.00    +0.000 C 
ATOM     28  C   UNL     1      -7.203  13.587  23.996  0.00  0.00    +0.000 C 
ENDBRANCH   6  26
BRANCH   9  29
ATOM     29  C   UNL     1      -3.472  11.446  17.254  0.00  0.00    +0.000 C 
ATOM     30  C   UNL     1      -3.443   9.946  17.146  0.00  0.00    +0.000 C 
ATOM     31  C   UNL     1      -4.159  10.757  16.106  0.00  0.00    +0.000 C 
ENDBRANCH   9  29
TORSDOF 7
ENDMDL
MODEL 9
REMARK VINA RESULT:      -5.9      9.299     11.549
REMARK  Name = 
REMARK  7 active torsions:
REMARK  status: ('A' for Active; 'I' for Inactive)
REMARK    1  A    between atoms: O5*_1  and  C5*_2
REMARK    2  A    between atoms: C5*_2  and  C4*_3
REMARK    3  A    between atoms: C1*_5  and  N_6
REMARK    4  A    between atoms: N_11  and  C_12
REMARK    5  A    between atoms: N_17  and  C_18
REMARK    6  A    between atoms: C2*_23  and  O2*_24
REMARK    7  A    between atoms: C3*_25  and  O3*_26
REMARK                            x       y       z     vdW  Elec       q    Type
REMARK                         _______ _______ _______ _____ _____    ______ ____
ROOT
ATOM      1  N   UNL     1       8.934  14.349  19.522  0.00  0.00    +0.000 N 
ATOM      2  C   UNL     1       9.586  13.584  20.450  0.00  0.00    +0.000 A 
ATOM      3  N   UNL     1       8.860  13.386  21.531  0.00  0.00    +0.000 NA
ATOM      4  C   UNL     1       7.678  14.053  21.281  0.00  0.00    +0.000 A 
ATOM      5  C   UNL     1       6.510  14.209  22.044  0.00  0.00    +0.000 A 
ATOM      6  N   UNL     1       6.395  13.568  23.294  0.00  0.00    +0.000 N 
ATOM      7  N   UNL     1       5.502  14.954  21.510  0.00  0.00    +0.000 NA
ATOM      8  C   UNL     1       5.636  15.474  20.267  0.00  0.00    +0.000 A 
ATOM      9  N   UNL     1       4.515  16.175  19.798  0.00  0.00    +0.000 N 
ATOM     10  N   UNL     1       6.717  15.355  19.466  0.00  0.00    +0.000 NA
ATOM     11  C   UNL     1       7.702  14.652  20.038  0.00  0.00    +0.000 A 
ATOM     12  H   UNL     1       7.271  13.098  23.522  0.00  0.00    +0.000 HD
ATOM     13  H   UNL     1       3.762  15.967  20.443  0.00  0.00    +0.000 HD
ENDROOT
BRANCH   1  16
ATOM     14  C4* UNL     1      11.210  13.787  16.984  0.00  0.00    +0.000 C 
ATOM     15  O4* UNL     1       9.885  13.532  17.510  0.00  0.00    +0.000 OA
ATOM     16  C1* UNL     1       9.414  14.722  18.200  0.00  0.00    +0.000 C 
ATOM     17  C2* UNL     1      10.550  15.749  18.192  0.00  0.00    +0.000 C 
ATOM     18  C3* UNL     1      11.366  15.301  16.986  0.00  0.00    +0.000 C 
BRANCH  17  19
ATOM     19  O2* UNL     1      10.106  17.096  18.022  0.00  0.00    +0.000 OA
ATOM     20  H2* UNL     1      10.377  17.365  17.120  0.00  0.00    +0.000 HD
ENDBRANCH  17  19
BRANCH  18  21
ATOM     21  O3* UNL     1      10.770  15.871  15.799  0.00  0.00    +0.000 OA
ATOM     22  H3* UNL     1      10.717  16.840  15.910  0.00  0.00    +0.000 HD
ENDBRANCH  18  21
BRANCH  14  23
ATOM     23  C5* UNL     1      12.262  13.048  17.821  0.00  0.00    +0.000 C 
BRANCH  23  24
ATOM     24  O5* UNL     1      12.209  11.644  17.602  0.00  0.00    +0.000 OA
ATOM     25  H5* UNL     1      11.464  11.470  16.998  0.00  0.00    +0.000 HD
ENDBRANCH  23  24
ENDBRANCH  14  23
ENDBRANCH   1  16
BRANCH   6  26
ATOM     26  C   UNL     1       5.597  14.141  24.368  0.00  0.00    +0.000 C 
ATOM     27  C   UNL     1       5.553  13.440  25.703  0.00  0.00    +0.000 C 
ATOM     28  C   UNL     1       6.216  14.778  25.580  0.00  0.00    +0.000 C 
ENDBRANCH   6  26
BRANCH   9  29
ATOM     29  C   UNL     1       4.252  16.256  18.366  0.00  0.00    +0.000 C 
ATOM     30  C   UNL     1       3.362  15.264  17.668  0.00  0.00    +0.000 C 
ATOM     31  C   UNL     1       2.893  16.675  17.872  0.00  0.00    +0.000 C 
ENDBRANCH   9  29
TORSDOF 7
ENDMDL
