MODEL 1
REMARK VINA RESULT:      -8.7      0.000      0.000
REMARK  Name = 
REMARK  3 active torsions:
REMARK  status: ('A' for Active; 'I' for Inactive)
REMARK    1  A    between atoms: C_1  and  C_2
REMARK    2  A    between atoms: C_7  and  N_8
REMARK    3  A    between atoms: N_11  and  C_12
REMARK                            x       y       z     vdW  Elec       q    Type
REMARK                         _______ _______ _______ _____ _____    ______ ____
ROOT
ATOM      1  N   UNL     1       7.380   7.712  17.102  0.00  0.00    +0.000 N 
ATOM      2  C   UNL     1       8.096   8.450  18.035  0.00  0.00    +0.000 C 
ATOM      3  O   UNL     1       8.850   7.928  18.850  0.00  0.00    +0.000 OA
ATOM      4  N   UNL     1       7.918   9.818  17.916  0.00  0.00    +0.000 N 
ATOM      5  H   UNL     1       6.608   8.177  16.650  0.00  0.00    +0.000 HD
ATOM      6  H   UNL     1       7.449  10.041  17.035  0.00  0.00    +0.000 HD
ENDROOT
BRANCH   4   7
ATOM      7  C   UNL     1       8.998  10.791  18.241  0.00  0.00    +0.000 C 
ATOM      8  C   UNL     1       8.395  12.111  17.737  0.00  0.00    +0.000 C 
ATOM      9  C   UNL     1       9.262  13.251  18.189  0.00  0.00    +0.000 C 
ATOM     10  C   UNL     1       9.371  13.298  19.763  0.00  0.00    +0.000 C 
ATOM     11  C   UNL     1       9.917  14.692  19.978  0.00  0.00    +0.000 C 
ATOM     12  C   UNL     1      11.280  14.789  19.324  0.00  0.00    +0.000 C 
ATOM     13  C   UNL     1      11.197  14.614  17.808  0.00  0.00    +0.000 C 
ATOM     14  C   UNL     1      10.679  13.205  17.502  0.00  0.00    +0.000 C 
ATOM     15  C   UNL     1      11.365  11.919  18.038  0.00  0.00    +0.000 C 
ATOM     16  C   UNL     1      10.437  10.660  17.642  0.00  0.00    +0.000 C 
ATOM     17  C   UNL     1      11.561  12.167  19.548  0.00  0.00    +0.000 C 
ATOM     18  C   UNL     1      12.145  13.624  19.855  0.00  0.00    +0.000 C 
ATOM     19  C   UNL     1      10.174  12.046  20.201  0.00  0.00    +0.000 C 
ATOM     20  C   UNL     1       9.295  10.818  19.767  0.00  0.00    +0.000 C 
ENDBRANCH   4   7
BRANCH   1  27
ATOM     21  C   UNL     1       3.207   3.853  19.204  0.00  0.00    +0.000 C 
ATOM     22  C   UNL     1       3.692   4.149  17.812  0.00  0.00    +0.000 C 
ATOM     23  O   UNL     1       3.219   3.497  16.869  0.00  0.00    +0.000 OA
ATOM     24  N   UNL     1       4.605   5.183  17.633  0.00  0.00    +0.000 N 
ATOM     25  C   UNL     1       5.005   5.581  16.269  0.00  0.00    +0.000 C 
ATOM     26  C   UNL     1       6.525   5.531  16.103  0.00  0.00    +0.000 C 
ATOM     27  C   UNL     1       7.288   6.246  17.233  0.00  0.00    +0.000 C 
ATOM     28  C   UNL     1       6.733   5.829  18.606  0.00  0.00    +0.000 C 
ATOM     29  C   UNL     1       5.210   5.960  18.691  0.00  0.00    +0.000 C 
ENDBRANCH   1  27
TORSDOF 2
ENDMDL
MODEL 2
REMARK VINA RESULT:      -8.5      6.959     10.742
REMARK  Name = 
REMARK  3 active torsions:
REMARK  status: ('A' for Active; 'I' for Inactive)
REMARK    1  A    between atoms: C_1  and  C_2
REMARK    2  A    between atoms: C_7  and  N_8
REMARK    3  A    between atoms: N_11  and  C_12
REMARK                            x       y       z     vdW  Elec       q    Type
REMARK                         _______ _______ _______ _____ _____    ______ ____
ROOT
ATOM      1  N   UNL     1       0.817   9.723  19.121  0.00  0.00    +0.000 N 
ATOM      2  C   UNL     1       1.458   8.685  19.782  0.00  0.00    +0.000 C 
ATOM      3  O   UNL     1       1.308   8.474  20.982  0.00  0.00    +0.000 OA
ATOM      4  N   UNL     1       2.230   7.889  18.952  0.00  0.00    +0.000 N 
ATOM      5  H   UNL     1       1.182   9.981  18.217  0.00  0.00    +0.000 HD
ATOM      6  H   UNL     1       2.023   8.094  17.972  0.00  0.00    +0.000 HD
ENDROOT
BRANCH   4   7
ATOM      7  C   UNL     1       2.416   6.432  19.196  0.00  0.00    +0.000 C 
ATOM      8  C   UNL     1       1.770   5.818  17.945  0.00  0.00    +0.000 C 
ATOM      9  C   UNL     1       2.066   4.346  17.911  0.00  0.00    +0.000 C 
ATOM     10  C   UNL     1       3.621   4.076  17.876  0.00  0.00    +0.000 C 
ATOM     11  C   UNL     1       3.658   2.626  17.448  0.00  0.00    +0.000 C 
ATOM     12  C   UNL     1       2.972   1.786  18.506  0.00  0.00    +0.000 C 
ATOM     13  C   UNL     1       1.490   2.135  18.636  0.00  0.00    +0.000 C 
ATOM     14  C   UNL     1       1.364   3.589  19.100  0.00  0.00    +0.000 C 
ATOM     15  C   UNL     1       2.037   4.122  20.395  0.00  0.00    +0.000 C 
ATOM     16  C   UNL     1       1.811   5.719  20.450  0.00  0.00    +0.000 C 
ATOM     17  C   UNL     1       3.503   3.648  20.310  0.00  0.00    +0.000 C 
ATOM     18  C   UNL     1       3.623   2.115  19.868  0.00  0.00    +0.000 C 
ATOM     19  C   UNL     1       4.190   4.521  19.248  0.00  0.00    +0.000 C 
ATOM     20  C   UNL     1       3.922   6.068  19.325  0.00  0.00    +0.000 C 
ENDBRANCH   4   7
BRANCH   1  27
ATOM     21  C   UNL     1       1.598  15.695  19.791  0.00  0.00    +0.000 C 
ATOM     22  C   UNL     1       0.531  14.892  19.100  0.00  0.00    +0.000 C 
ATOM     23  O   UNL     1      -0.417  15.495  18.575  0.00  0.00    +0.000 OA
ATOM     24  N   UNL     1       0.683  13.511  19.026  0.00  0.00    +0.000 N 
ATOM     25  C   UNL     1      -0.280  12.708  18.248  0.00  0.00    +0.000 C 
ATOM     26  C   UNL     1      -0.900  11.604  19.107  0.00  0.00    +0.000 C 
ATOM     27  C   UNL     1       0.140  10.783  19.891  0.00  0.00    +0.000 C 
ATOM     28  C   UNL     1       1.146  11.713  20.590  0.00  0.00    +0.000 C 
ATOM     29  C   UNL     1       1.749  12.751  19.638  0.00  0.00    +0.000 C 
ENDBRANCH   1  27
TORSDOF 2
ENDMDL
MODEL 3
REMARK VINA RESULT:      -8.3      6.974     10.603
REMARK  Name = 
REMARK  3 active torsions:
REMARK  status: ('A' for Active; 'I' for Inactive)
REMARK    1  A    between atoms: C_1  and  C_2
REMARK    2  A    between atoms: C_7  and  N_8
REMARK    3  A    between atoms: N_11  and  C_12
REMARK                            x       y       z     vdW  Elec       q    Type
REMARK                         _______ _______ _______ _____ _____    ______ ____
ROOT
ATOM      1  N   UNL     1       1.102   9.683  18.940  0.00  0.00    +0.000 N 
ATOM      2  C   UNL     1       1.651   8.493  19.395  0.00  0.00    +0.000 C 
ATOM      3  O   UNL     1       1.278   7.947  20.430  0.00  0.00    +0.000 OA
ATOM      4  N   UNL     1       2.610   7.962  18.548  0.00  0.00    +0.000 N 
ATOM      5  H   UNL     1       1.624  10.187  18.240  0.00  0.00    +0.000 HD
ATOM      6  H   UNL     1       2.591   8.442  17.645  0.00  0.00    +0.000 HD
ENDROOT
BRANCH   4   7
ATOM      7  C   UNL     1       2.817   6.495  18.401  0.00  0.00    +0.000 C 
ATOM      8  C   UNL     1       3.053   6.063  19.856  0.00  0.00    +0.000 C 
ATOM      9  C   UNL     1       3.060   4.563  19.929  0.00  0.00    +0.000 C 
ATOM     10  C   UNL     1       1.690   3.961  19.426  0.00  0.00    +0.000 C 
ATOM     11  C   UNL     1       1.780   2.547  19.956  0.00  0.00    +0.000 C 
ATOM     12  C   UNL     1       2.961   1.855  19.308  0.00  0.00    +0.000 C 
ATOM     13  C   UNL     1       4.285   2.517  19.688  0.00  0.00    +0.000 C 
ATOM     14  C   UNL     1       4.290   3.954  19.156  0.00  0.00    +0.000 C 
ATOM     15  C   UNL     1       4.060   4.299  17.659  0.00  0.00    +0.000 C 
ATOM     16  C   UNL     1       3.974   5.905  17.529  0.00  0.00    +0.000 C 
ATOM     17  C   UNL     1       2.792   3.518  17.256  0.00  0.00    +0.000 C 
ATOM     18  C   UNL     1       2.817   2.006  17.777  0.00  0.00    +0.000 C 
ATOM     19  C   UNL     1       1.601   4.242  17.904  0.00  0.00    +0.000 C 
ATOM     20  C   UNL     1       1.571   5.808  17.774  0.00  0.00    +0.000 C 
ENDBRANCH   4   7
BRANCH   1  27
ATOM     21  C   UNL     1       1.067  15.436  20.843  0.00  0.00    +0.000 C 
ATOM     22  C   UNL     1       0.171  14.685  19.898  0.00  0.00    +0.000 C 
ATOM     23  O   UNL     1      -0.798  15.279  19.401  0.00  0.00    +0.000 OA
ATOM     24  N   UNL     1       0.501  13.373  19.573  0.00  0.00    +0.000 N 
ATOM     25  C   UNL     1      -0.285  12.650  18.553  0.00  0.00    +0.000 C 
ATOM     26  C   UNL     1      -0.830  11.334  19.108  0.00  0.00    +0.000 C 
ATOM     27  C   UNL     1       0.235  10.483  19.824  0.00  0.00    +0.000 C 
ATOM     28  C   UNL     1       1.054  11.350  20.795  0.00  0.00    +0.000 C 
ATOM     29  C   UNL     1       1.599  12.620  20.135  0.00  0.00    +0.000 C 
ENDBRANCH   1  27
TORSDOF 2
ENDMDL
MODEL 4
REMARK VINA RESULT:      -8.1      1.829      9.247
REMARK  Name = 
REMARK  3 active torsions:
REMARK  status: ('A' for Active; 'I' for Inactive)
REMARK    1  A    between atoms: C_1  and  C_2
REMARK    2  A    between atoms: C_7  and  N_8
REMARK    3  A    between atoms: N_11  and  C_12
REMARK                            x       y       z     vdW  Elec       q    Type
REMARK                         _______ _______ _______ _____ _____    ______ ____
ROOT
ATOM      1  N   UNL     1       8.115   9.412  18.021  0.00  0.00    +0.000 N 
ATOM      2  C   UNL     1       7.825   8.058  17.924  0.00  0.00    +0.000 C 
ATOM      3  O   UNL     1       8.445   7.204  18.553  0.00  0.00    +0.000 OA
ATOM      4  N   UNL     1       6.747   7.777  17.102  0.00  0.00    +0.000 N 
ATOM      5  H   UNL     1       7.743  10.010  17.299  0.00  0.00    +0.000 HD
ATOM      6  H   UNL     1       6.238   8.636  16.878  0.00  0.00    +0.000 HD
ENDROOT
BRANCH   4   7
ATOM      7  C   UNL     1       5.832   6.630  17.355  0.00  0.00    +0.000 C 
ATOM      8  C   UNL     1       6.194   6.251  18.799  0.00  0.00    +0.000 C 
ATOM      9  C   UNL     1       5.203   5.242  19.305  0.00  0.00    +0.000 C 
ATOM     10  C   UNL     1       3.734   5.819  19.274  0.00  0.00    +0.000 C 
ATOM     11  C   UNL     1       3.013   4.834  20.168  0.00  0.00    +0.000 C 
ATOM     12  C   UNL     1       3.083   3.459  19.536  0.00  0.00    +0.000 C 
ATOM     13  C   UNL     1       4.520   2.949  19.443  0.00  0.00    +0.000 C 
ATOM     14  C   UNL     1       5.317   3.879  18.523  0.00  0.00    +0.000 C 
ATOM     15  C   UNL     1       4.886   4.193  17.064  0.00  0.00    +0.000 C 
ATOM     16  C   UNL     1       5.878   5.328  16.488  0.00  0.00    +0.000 C 
ATOM     17  C   UNL     1       3.396   4.581  17.159  0.00  0.00    +0.000 C 
ATOM     18  C   UNL     1       2.564   3.577  18.085  0.00  0.00    +0.000 C 
ATOM     19  C   UNL     1       3.342   5.984  17.783  0.00  0.00    +0.000 C 
ATOM     20  C   UNL     1       4.342   7.052  17.209  0.00  0.00    +0.000 C 
ENDBRANCH   4   7
BRANCH   1  27
ATOM     21  C   UNL     1      10.756  14.776  19.007  0.00  0.00    +0.000 C 
ATOM     22  C   UNL     1      10.086  13.800  19.934  0.00  0.00    +0.000 C 
ATOM     23  O   UNL     1      10.060  14.057  21.147  0.00  0.00    +0.000 OA
ATOM     24  N   UNL     1       9.471  12.680  19.386  0.00  0.00    +0.000 N 
ATOM     25  C   UNL     1       8.697  11.769  20.253  0.00  0.00    +0.000 C 
ATOM     26  C   UNL     1       9.203  10.331  20.133  0.00  0.00    +0.000 C 
ATOM     27  C   UNL     1       9.359   9.856  18.676  0.00  0.00    +0.000 C 
ATOM     28  C   UNL     1      10.097  10.915  17.841  0.00  0.00    +0.000 C 
ATOM     29  C   UNL     1       9.488  12.313  17.988  0.00  0.00    +0.000 C 
ENDBRANCH   1  27
TORSDOF 2
ENDMDL
MODEL 5
REMARK VINA RESULT:      -8.1      0.992      1.954
REMARK  Name = 
REMARK  3 active torsions:
REMARK  status: ('A' for Active; 'I' for Inactive)
REMARK    1  A    between atoms: C_1  and  C_2
REMARK    2  A    between atoms: C_7  and  N_8
REMARK    3  A    between atoms: N_11  and  C_12
REMARK                            x       y       z     vdW  Elec       q    Type
REMARK                         _______ _______ _______ _____ _____    ______ ____
ROOT
ATOM      1  N   UNL     1       7.447   7.260  18.475  0.00  0.00    +0.000 N 
ATOM      2  C   UNL     1       8.229   8.278  17.947  0.00  0.00    +0.000 C 
ATOM      3  O   UNL     1       8.268   8.525  16.745  0.00  0.00    +0.000 OA
ATOM      4  N   UNL     1       8.907   9.013  18.906  0.00  0.00    +0.000 N 
ATOM      5  H   UNL     1       7.661   6.962  19.414  0.00  0.00    +0.000 HD
ATOM      6  H   UNL     1       8.548   8.796  19.838  0.00  0.00    +0.000 HD
ENDROOT
BRANCH   4   7
ATOM      7  C   UNL     1       9.198  10.463  18.737  0.00  0.00    +0.000 C 
ATOM      8  C   UNL     1       9.341  10.928  20.194  0.00  0.00    +0.000 C 
ATOM      9  C   UNL     1       9.861  12.337  20.212  0.00  0.00    +0.000 C 
ATOM     10  C   UNL     1      11.265  12.436  19.497  0.00  0.00    +0.000 C 
ATOM     11  C   UNL     1      11.746  13.786  19.982  0.00  0.00    +0.000 C 
ATOM     12  C   UNL     1      10.793  14.853  19.485  0.00  0.00    +0.000 C 
ATOM     13  C   UNL     1       9.394  14.683  20.074  0.00  0.00    +0.000 C 
ATOM     14  C   UNL     1       8.817  13.345  19.601  0.00  0.00    +0.000 C 
ATOM     15  C   UNL     1       8.691  12.964  18.101  0.00  0.00    +0.000 C 
ATOM     16  C   UNL     1       8.199  11.430  18.019  0.00  0.00    +0.000 C 
ATOM     17  C   UNL     1      10.076  13.265  17.492  0.00  0.00    +0.000 C 
ATOM     18  C   UNL     1      10.650  14.685  17.956  0.00  0.00    +0.000 C 
ATOM     19  C   UNL     1      11.028  12.165  17.989  0.00  0.00    +0.000 C 
ATOM     20  C   UNL     1      10.498  10.687  17.913  0.00  0.00    +0.000 C 
ENDBRANCH   4   7
BRANCH   1  27
ATOM     21  C   UNL     1       3.141   3.039  19.075  0.00  0.00    +0.000 C 
ATOM     22  C   UNL     1       3.173   4.343  18.326  0.00  0.00    +0.000 C 
ATOM     23  O   UNL     1       2.181   4.666  17.656  0.00  0.00    +0.000 OA
ATOM     24  N   UNL     1       4.290   5.160  18.466  0.00  0.00    +0.000 N 
ATOM     25  C   UNL     1       4.300   6.500  17.847  0.00  0.00    +0.000 C 
ATOM     26  C   UNL     1       5.511   6.674  16.928  0.00  0.00    +0.000 C 
ATOM     27  C   UNL     1       6.840   6.256  17.582  0.00  0.00    +0.000 C 
ATOM     28  C   UNL     1       6.695   4.890  18.273  0.00  0.00    +0.000 C 
ATOM     29  C   UNL     1       5.484   4.829  19.210  0.00  0.00    +0.000 C 
ENDBRANCH   1  27
TORSDOF 2
ENDMDL
MODEL 6
REMARK VINA RESULT:      -7.9      1.922      9.375
REMARK  Name = 
REMARK  3 active torsions:
REMARK  status: ('A' for Active; 'I' for Inactive)
REMARK    1  A    between atoms: C_1  and  C_2
REMARK    2  A    between atoms: C_7  and  N_8
REMARK    3  A    between atoms: N_11  and  C_12
REMARK                            x       y       z     vdW  Elec       q    Type
REMARK                         _______ _______ _______ _____ _____    ______ ____
ROOT
ATOM      1  N   UNL     1       8.093   9.406  17.985  0.00  0.00    +0.000 N 
ATOM      2  C   UNL     1       7.897   8.034  18.057  0.00  0.00    +0.000 C 
ATOM      3  O   UNL     1       8.613   7.300  18.732  0.00  0.00    +0.000 OA
ATOM      4  N   UNL     1       6.794   7.592  17.345  0.00  0.00    +0.000 N 
ATOM      5  H   UNL     1       7.637   9.892  17.229  0.00  0.00    +0.000 HD
ATOM      6  H   UNL     1       6.213   8.384  17.063  0.00  0.00    +0.000 HD
ENDROOT
BRANCH   4   7
ATOM      7  C   UNL     1       5.982   6.424  17.784  0.00  0.00    +0.000 C 
ATOM      8  C   UNL     1       4.551   6.926  17.538  0.00  0.00    +0.000 C 
ATOM      9  C   UNL     1       3.592   5.783  17.717  0.00  0.00    +0.000 C 
ATOM     10  C   UNL     1       3.909   4.608  16.712  0.00  0.00    +0.000 C 
ATOM     11  C   UNL     1       2.632   3.801  16.792  0.00  0.00    +0.000 C 
ATOM     12  C   UNL     1       2.464   3.290  18.208  0.00  0.00    +0.000 C 
ATOM     13  C   UNL     1       2.287   4.433  19.207  0.00  0.00    +0.000 C 
ATOM     14  C   UNL     1       3.559   5.287  19.211  0.00  0.00    +0.000 C 
ATOM     15  C   UNL     1       4.969   4.698  19.491  0.00  0.00    +0.000 C 
ATOM     16  C   UNL     1       6.053   5.868  19.244  0.00  0.00    +0.000 C 
ATOM     17  C   UNL     1       5.080   3.466  18.568  0.00  0.00    +0.000 C 
ATOM     18  C   UNL     1       3.765   2.557  18.605  0.00  0.00    +0.000 C 
ATOM     19  C   UNL     1       5.270   3.999  17.139  0.00  0.00    +0.000 C 
ATOM     20  C   UNL     1       6.317   5.155  16.949  0.00  0.00    +0.000 C 
ENDBRANCH   4   7
BRANCH   1  27
ATOM     21  C   UNL     1      10.059  15.057  18.947  0.00  0.00    +0.000 C 
ATOM     22  C   UNL     1       9.665  13.955  19.891  0.00  0.00    +0.000 C 
ATOM     23  O   UNL     1       9.766  14.157  21.110  0.00  0.00    +0.000 OA
ATOM     24  N   UNL     1       9.145  12.780  19.359  0.00  0.00    +0.000 N 
ATOM     25  C   UNL     1       8.632  11.730  20.262  0.00  0.00    +0.000 C 
ATOM     26  C   UNL     1       9.315  10.389  19.992  0.00  0.00    +0.000 C 
ATOM     27  C   UNL     1       9.339  10.002  18.502  0.00  0.00    +0.000 C 
ATOM     28  C   UNL     1       9.801  11.192  17.644  0.00  0.00    +0.000 C 
ATOM     29  C   UNL     1       9.026  12.477  17.951  0.00  0.00    +0.000 C 
ENDBRANCH   1  27
TORSDOF 2
ENDMDL
MODEL 7
REMARK VINA RESULT:      -7.9      1.143      2.113
REMARK  Name = 
REMARK  3 active torsions:
REMARK  status: ('A' for Active; 'I' for Inactive)
REMARK    1  A    between atoms: C_1  and  C_2
REMARK    2  A    between atoms: C_7  and  N_8
REMARK    3  A    between atoms: N_11  and  C_12
REMARK                            x       y       z     vdW  Elec       q    Type
REMARK                         _______ _______ _______ _____ _____    ______ ____
ROOT
ATOM      1  N   UNL     1       7.811   7.469  18.536  0.00  0.00    +0.000 N 
ATOM      2  C   UNL     1       8.494   8.613  18.144  0.00  0.00    +0.000 C 
ATOM      3  O   UNL     1       8.464   9.037  16.992  0.00  0.00    +0.000 OA
ATOM      4  N   UNL     1       9.156   9.249  19.181  0.00  0.00    +0.000 N 
ATOM      5  H   UNL     1       8.086   7.054  19.412  0.00  0.00    +0.000 HD
ATOM      6  H   UNL     1       8.853   8.869  20.081  0.00  0.00    +0.000 HD
ENDROOT
BRANCH   4   7
ATOM      7  C   UNL     1       9.332  10.726  19.224  0.00  0.00    +0.000 C 
ATOM      8  C   UNL     1      10.823  10.875  18.884  0.00  0.00    +0.000 C 
ATOM      9  C   UNL     1      11.133  12.328  18.661  0.00  0.00    +0.000 C 
ATOM     10  C   UNL     1      10.271  12.921  17.479  0.00  0.00    +0.000 C 
ATOM     11  C   UNL     1      11.017  14.205  17.188  0.00  0.00    +0.000 C 
ATOM     12  C   UNL     1      10.963  15.092  18.414  0.00  0.00    +0.000 C 
ATOM     13  C   UNL     1      11.687  14.461  19.603  0.00  0.00    +0.000 C 
ATOM     14  C   UNL     1      10.969  13.163  19.986  0.00  0.00    +0.000 C 
ATOM     15  C   UNL     1       9.457  13.107  20.335  0.00  0.00    +0.000 C 
ATOM     16  C   UNL     1       9.048  11.557  20.519  0.00  0.00    +0.000 C 
ATOM     17  C   UNL     1       8.752  13.862  19.190  0.00  0.00    +0.000 C 
ATOM     18  C   UNL     1       9.482  15.238  18.828  0.00  0.00    +0.000 C 
ATOM     19  C   UNL     1       8.796  12.943  17.959  0.00  0.00    +0.000 C 
ATOM     20  C   UNL     1       8.414  11.436  18.189  0.00  0.00    +0.000 C 
ENDBRANCH   4   7
BRANCH   1  27
ATOM     21  C   UNL     1       3.895   2.846  18.631  0.00  0.00    +0.000 C 
ATOM     22  C   UNL     1       3.784   4.246  18.095  0.00  0.00    +0.000 C 
ATOM     23  O   UNL     1       2.737   4.579  17.521  0.00  0.00    +0.000 OA
ATOM     24  N   UNL     1       4.837   5.127  18.318  0.00  0.00    +0.000 N 
ATOM     25  C   UNL     1       4.708   6.542  17.915  0.00  0.00    +0.000 C 
ATOM     26  C   UNL     1       5.853   6.959  16.990  0.00  0.00    +0.000 C 
ATOM     27  C   UNL     1       7.243   6.564  17.520  0.00  0.00    +0.000 C 
ATOM     28  C   UNL     1       7.243   5.101  17.995  0.00  0.00    +0.000 C 
ATOM     29  C   UNL     1       6.090   4.793  18.956  0.00  0.00    +0.000 C 
ENDBRANCH   1  27
TORSDOF 2
ENDMDL
MODEL 8
REMARK VINA RESULT:      -7.9      6.938     10.768
REMARK  Name = 
REMARK  3 active torsions:
REMARK  status: ('A' for Active; 'I' for Inactive)
REMARK    1  A    between atoms: C_1  and  C_2
REMARK    2  A    between atoms: C_7  and  N_8
REMARK    3  A    between atoms: N_11  and  C_12
REMARK                            x       y       z     vdW  Elec       q    Type
REMARK                         _______ _______ _______ _____ _____    ______ ____
ROOT
ATOM      1  N   UNL     1       1.357   9.850  19.403  0.00  0.00    +0.000 N 
ATOM      2  C   UNL     1       1.459   8.554  19.889  0.00  0.00    +0.000 C 
ATOM      3  O   UNL     1       0.690   8.104  20.735  0.00  0.00    +0.000 OA
ATOM      4  N   UNL     1       2.465   7.813  19.293  0.00  0.00    +0.000 N 
ATOM      5  H   UNL     1       2.159  10.216  18.915  0.00  0.00    +0.000 HD
ATOM      6  H   UNL     1       2.816   8.295  18.462  0.00  0.00    +0.000 HD
ENDROOT
BRANCH   4   7
ATOM      7  C   UNL     1       2.354   6.342  19.086  0.00  0.00    +0.000 C 
ATOM      8  C   UNL     1       3.796   5.967  18.712  0.00  0.00    +0.000 C 
ATOM      9  C   UNL     1       3.922   4.470  18.685  0.00  0.00    +0.000 C 
ATOM     10  C   UNL     1       3.571   3.841  20.089  0.00  0.00    +0.000 C 
ATOM     11  C   UNL     1       4.142   2.449  19.938  0.00  0.00    +0.000 C 
ATOM     12  C   UNL     1       3.413   1.741  18.814  0.00  0.00    +0.000 C 
ATOM     13  C   UNL     1       3.644   2.424  17.468  0.00  0.00    +0.000 C 
ATOM     14  C   UNL     1       3.062   3.840  17.526  0.00  0.00    +0.000 C 
ATOM     15  C   UNL     1       1.581   4.128  17.896  0.00  0.00    +0.000 C 
ATOM     16  C   UNL     1       1.401   5.728  18.009  0.00  0.00    +0.000 C 
ATOM     17  C   UNL     1       1.326   3.325  19.188  0.00  0.00    +0.000 C 
ATOM     18  C   UNL     1       1.897   1.833  19.101  0.00  0.00    +0.000 C 
ATOM     19  C   UNL     1       2.054   4.065  20.321  0.00  0.00    +0.000 C 
ATOM     20  C   UNL     1       1.871   5.624  20.378  0.00  0.00    +0.000 C 
ENDBRANCH   4   7
BRANCH   1  27
ATOM     21  C   UNL     1       1.401  15.871  20.082  0.00  0.00    +0.000 C 
ATOM     22  C   UNL     1       0.510  14.955  19.290  0.00  0.00    +0.000 C 
ATOM     23  O   UNL     1      -0.435  15.450  18.658  0.00  0.00    +0.000 OA
ATOM     24  N   UNL     1       0.820  13.600  19.249  0.00  0.00    +0.000 N 
ATOM     25  C   UNL     1       0.041  12.695  18.380  0.00  0.00    +0.000 C 
ATOM     26  C   UNL     1      -0.543  11.530  19.180  0.00  0.00    +0.000 C 
ATOM     27  C   UNL     1       0.488  10.828  20.082  0.00  0.00    +0.000 C 
ATOM     28  C   UNL     1       1.304  11.863  20.874  0.00  0.00    +0.000 C 
ATOM     29  C   UNL     1       1.890  12.961  19.982  0.00  0.00    +0.000 C 
ENDBRANCH   1  27
TORSDOF 2
ENDMDL
MODEL 9
REMARK VINA RESULT:      -7.8      7.340     10.850
REMARK  Name = 
REMARK  3 active torsions:
REMARK  status: ('A' for Active; 'I' for Inactive)
REMARK    1  A    between atoms: C_1  and  C_2
REMARK    2  A    between atoms: C_7  and  N_8
REMARK    3  A    between atoms: N_11  and  C_12
REMARK                            x       y       z     vdW  Elec       q    Type
REMARK                         _______ _______ _______ _____ _____    ______ ____
ROOT
ATOM      1  N   UNL     1       0.689   9.597  19.986  0.00  0.00    +0.000 N 
ATOM      2  C   UNL     1       1.547   8.560  20.322  0.00  0.00    +0.000 C 
ATOM      3  O   UNL     1       1.853   8.308  21.484  0.00  0.00    +0.000 OA
ATOM      4  N   UNL     1       1.972   7.814  19.236  0.00  0.00    +0.000 N 
ATOM      5  H   UNL     1       0.690   9.894  19.022  0.00  0.00    +0.000 HD
ATOM      6  H   UNL     1       1.415   8.042  18.409  0.00  0.00    +0.000 HD
ENDROOT
BRANCH   4   7
ATOM      7  C   UNL     1       2.261   6.357  19.336  0.00  0.00    +0.000 C 
ATOM      8  C   UNL     1       1.766   5.843  17.975  0.00  0.00    +0.000 C 
ATOM      9  C   UNL     1       2.186   4.411  17.809  0.00  0.00    +0.000 C 
ATOM     10  C   UNL     1       3.756   4.264  17.878  0.00  0.00    +0.000 C 
ATOM     11  C   UNL     1       3.947   2.879  17.300  0.00  0.00    +0.000 C 
ATOM     12  C   UNL     1       3.256   1.875  18.199  0.00  0.00    +0.000 C 
ATOM     13  C   UNL     1       1.744   2.094  18.238  0.00  0.00    +0.000 C 
ATOM     14  C   UNL     1       1.461   3.472  18.845  0.00  0.00    +0.000 C 
ATOM     15  C   UNL     1       1.986   3.903  20.242  0.00  0.00    +0.000 C 
ATOM     16  C   UNL     1       1.623   5.461  20.449  0.00  0.00    +0.000 C 
ATOM     17  C   UNL     1       3.489   3.553  20.232  0.00  0.00    +0.000 C 
ATOM     18  C   UNL     1       3.770   2.094  19.639  0.00  0.00    +0.000 C 
ATOM     19  C   UNL     1       4.180   4.591  19.333  0.00  0.00    +0.000 C 
ATOM     20  C   UNL     1       3.778   6.094  19.553  0.00  0.00    +0.000 C 
ENDBRANCH   4   7
BRANCH   1  27
ATOM     21  C   UNL     1      -0.222  15.587  19.894  0.00  0.00    +0.000 C 
ATOM     22  C   UNL     1      -1.166  14.429  20.063  0.00  0.00    +0.000 C 
ATOM     23  O   UNL     1      -2.367  14.668  20.258  0.00  0.00    +0.000 OA
ATOM     24  N   UNL     1      -0.664  13.139  19.933  0.00  0.00    +0.000 N 
ATOM     25  C   UNL     1      -1.585  11.986  19.969  0.00  0.00    +0.000 C 
ATOM     26  C   UNL     1      -1.169  10.981  21.044  0.00  0.00    +0.000 C 
ATOM     27  C   UNL     1       0.325  10.611  20.992  0.00  0.00    +0.000 C 
ATOM     28  C   UNL     1       1.189  11.877  20.865  0.00  0.00    +0.000 C 
ATOM     29  C   UNL     1       0.726  12.797  19.731  0.00  0.00    +0.000 C 
ENDBRANCH   1  27
TORSDOF 2
ENDMDL
