MODEL 1
REMARK VINA RESULT:      -7.2      0.000      0.000
REMARK  Name = 
REMARK  6 active torsions:
REMARK  status: ('A' for Active; 'I' for Inactive)
REMARK    1  A    between atoms: C_1  and  C_2
REMARK    2  A    between atoms: C_2  and  N_3
REMARK    3  A    between atoms: C_2  and  C_10
REMARK    4  A    between atoms: C_4  and  O_6
REMARK    5  A    between atoms: O_6  and  C_7
REMARK    6  A    between atoms: C_7  and  C_8
REMARK                            x       y       z     vdW  Elec       q    Type
REMARK                         _______ _______ _______ _____ _____    ______ ____
ROOT
ATOM      1  C   UNL     1       7.432   4.788  17.343  0.00  0.00    +0.000 C 
ATOM      2  C   UNL     1       6.196   5.002  16.476  0.00  0.00    +0.000 C 
ENDROOT
BRANCH   2   3
ATOM      3  C   UNL     1       4.953   4.591  17.236  0.00  0.00    +0.000 A 
ATOM      4  N   UNL     1       4.132   3.623  16.874  0.00  0.00    +0.000 NA
ATOM      5  C   UNL     1       3.198   3.397  17.875  0.00  0.00    +0.000 A 
ATOM      6  C   UNL     1       2.206   2.392  17.873  0.00  0.00    +0.000 A 
ATOM      7  C   UNL     1       1.361   2.246  18.976  0.00  0.00    +0.000 A 
ATOM      8  C   UNL     1       1.493   3.093  20.067  0.00  0.00    +0.000 A 
ATOM      9  F   UNL     1       0.693   2.919  21.128  0.00  0.00    +0.000 F 
ATOM     10  C   UNL     1       2.445   4.108  20.097  0.00  0.00    +0.000 A 
ATOM     11  C   UNL     1       3.293   4.240  18.986  0.00  0.00    +0.000 A 
ATOM     12  S   UNL     1       4.571   5.363  18.726  0.00  0.00    +0.000 S 
ENDBRANCH   2   3
BRANCH   2  13
ATOM     13  N   UNL     1       6.302   4.200  15.272  0.00  0.00    +0.000 N 
ATOM     14  C   UNL     1       7.020   4.589  14.188  0.00  0.00    +0.000 C 
ATOM     15  O   UNL     1       7.733   5.577  14.117  0.00  0.00    +0.000 OA
ATOM     16  H   UNL     1       5.663   3.423  15.154  0.00  0.00    +0.000 HD
BRANCH  14  17
ATOM     17  O   UNL     1       6.731   3.753  13.160  0.00  0.00    +0.000 OA
BRANCH  17  18
ATOM     18  C   UNL     1       5.333   3.642  12.861  0.00  0.00    +0.000 C 
BRANCH  18  19
ATOM     19  C   UNL     1       5.056   2.739  11.677  0.00  0.00    +0.000 C 
ATOM     20 BR   UNL     1       3.504   3.422  10.709  0.00  0.00    +0.000 Br
ENDBRANCH  18  19
ENDBRANCH  17  18
ENDBRANCH  14  17
ENDBRANCH   2  13
TORSDOF 5
ENDMDL
MODEL 2
REMARK VINA RESULT:      -6.9      1.746      2.250
REMARK  Name = 
REMARK  6 active torsions:
REMARK  status: ('A' for Active; 'I' for Inactive)
REMARK    1  A    between atoms: C_1  and  C_2
REMARK    2  A    between atoms: C_2  and  N_3
REMARK    3  A    between atoms: C_2  and  C_10
REMARK    4  A    between atoms: C_4  and  O_6
REMARK    5  A    between atoms: O_6  and  C_7
REMARK    6  A    between atoms: C_7  and  C_8
REMARK                            x       y       z     vdW  Elec       q    Type
REMARK                         _______ _______ _______ _____ _____    ______ ____
ROOT
ATOM      1  C   UNL     1       7.563   5.669  19.610  0.00  0.00    +0.000 C 
ATOM      2  C   UNL     1       6.566   5.754  18.459  0.00  0.00    +0.000 C 
ENDROOT
BRANCH   2   3
ATOM      3  C   UNL     1       5.281   5.045  18.833  0.00  0.00    +0.000 A 
ATOM      4  N   UNL     1       4.468   5.420  19.802  0.00  0.00    +0.000 NA
ATOM      5  C   UNL     1       3.308   4.659  19.766  0.00  0.00    +0.000 A 
ATOM      6  C   UNL     1       2.182   4.820  20.602  0.00  0.00    +0.000 A 
ATOM      7  C   UNL     1       1.057   4.012  20.419  0.00  0.00    +0.000 A 
ATOM      8  C   UNL     1       1.052   3.047  19.422  0.00  0.00    +0.000 A 
ATOM      9  F   UNL     1      -0.046   2.301  19.243  0.00  0.00    +0.000 F 
ATOM     10  C   UNL     1       2.151   2.844  18.592  0.00  0.00    +0.000 A 
ATOM     11  C   UNL     1       3.272   3.667  18.780  0.00  0.00    +0.000 A 
ATOM     12  S   UNL     1       4.760   3.685  17.917  0.00  0.00    +0.000 S 
ENDBRANCH   2   3
BRANCH   2  13
ATOM     13  N   UNL     1       7.129   5.122  17.281  0.00  0.00    +0.000 N 
ATOM     14  C   UNL     1       6.850   5.534  16.018  0.00  0.00    +0.000 C 
ATOM     15  O   UNL     1       6.196   6.519  15.714  0.00  0.00    +0.000 OA
ATOM     16  H   UNL     1       7.584   4.224  17.388  0.00  0.00    +0.000 HD
BRANCH  14  17
ATOM     17  O   UNL     1       7.329   4.610  15.150  0.00  0.00    +0.000 OA
BRANCH  17  18
ATOM     18  C   UNL     1       6.325   3.970  14.350  0.00  0.00    +0.000 C 
BRANCH  18  19
ATOM     19  C   UNL     1       6.661   3.972  12.873  0.00  0.00    +0.000 C 
ATOM     20 BR   UNL     1       5.248   3.040  11.901  0.00  0.00    +0.000 Br
ENDBRANCH  18  19
ENDBRANCH  17  18
ENDBRANCH  14  17
ENDBRANCH   2  13
TORSDOF 5
ENDMDL
MODEL 3
REMARK VINA RESULT:      -6.9      4.453      6.852
REMARK  Name = 
REMARK  6 active torsions:
REMARK  status: ('A' for Active; 'I' for Inactive)
REMARK    1  A    between atoms: C_1  and  C_2
REMARK    2  A    between atoms: C_2  and  N_3
REMARK    3  A    between atoms: C_2  and  C_10
REMARK    4  A    between atoms: C_4  and  O_6
REMARK    5  A    between atoms: O_6  and  C_7
REMARK    6  A    between atoms: C_7  and  C_8
REMARK                            x       y       z     vdW  Elec       q    Type
REMARK                         _______ _______ _______ _____ _____    ______ ____
ROOT
ATOM      1  C   UNL     1       7.678   7.368  17.544  0.00  0.00    +0.000 C 
ATOM      2  C   UNL     1       6.981   6.015  17.625  0.00  0.00    +0.000 C 
ENDROOT
BRANCH   2   3
ATOM      3  C   UNL     1       6.691   5.498  16.231  0.00  0.00    +0.000 A 
ATOM      4  N   UNL     1       7.491   5.640  15.192  0.00  0.00    +0.000 NA
ATOM      5  C   UNL     1       7.006   4.906  14.118  0.00  0.00    +0.000 A 
ATOM      6  C   UNL     1       7.632   4.760  12.861  0.00  0.00    +0.000 A 
ATOM      7  C   UNL     1       7.053   3.946  11.885  0.00  0.00    +0.000 A 
ATOM      8  C   UNL     1       5.859   3.290  12.149  0.00  0.00    +0.000 A 
ATOM      9  F   UNL     1       5.333   2.491  11.211  0.00  0.00    +0.000 F 
ATOM     10  C   UNL     1       5.201   3.426  13.368  0.00  0.00    +0.000 A 
ATOM     11  C   UNL     1       5.797   4.241  14.344  0.00  0.00    +0.000 A 
ATOM     12  S   UNL     1       5.257   4.593  15.939  0.00  0.00    +0.000 S 
ENDBRANCH   2   3
BRANCH   2  13
ATOM     13  N   UNL     1       5.731   6.155  18.347  0.00  0.00    +0.000 N 
ATOM     14  C   UNL     1       5.381   5.346  19.379  0.00  0.00    +0.000 C 
ATOM     15  O   UNL     1       6.086   4.490  19.890  0.00  0.00    +0.000 OA
ATOM     16  H   UNL     1       5.007   6.740  17.948  0.00  0.00    +0.000 HD
BRANCH  14  17
ATOM     17  O   UNL     1       4.079   5.573  19.680  0.00  0.00    +0.000 OA
BRANCH  17  18
ATOM     18  C   UNL     1       3.230   4.426  19.547  0.00  0.00    +0.000 C 
BRANCH  18  19
ATOM     19  C   UNL     1       1.995   4.504  20.421  0.00  0.00    +0.000 C 
ATOM     20 BR   UNL     1       1.836   2.850  21.445  0.00  0.00    +0.000 Br
ENDBRANCH  18  19
ENDBRANCH  17  18
ENDBRANCH  14  17
ENDBRANCH   2  13
TORSDOF 5
ENDMDL
MODEL 4
REMARK VINA RESULT:      -6.8      1.575      1.719
REMARK  Name = 
REMARK  6 active torsions:
REMARK  status: ('A' for Active; 'I' for Inactive)
REMARK    1  A    between atoms: C_1  and  C_2
REMARK    2  A    between atoms: C_2  and  N_3
REMARK    3  A    between atoms: C_2  and  C_10
REMARK    4  A    between atoms: C_4  and  O_6
REMARK    5  A    between atoms: O_6  and  C_7
REMARK    6  A    between atoms: C_7  and  C_8
REMARK                            x       y       z     vdW  Elec       q    Type
REMARK                         _______ _______ _______ _____ _____    ______ ____
ROOT
ATOM      1  C   UNL     1       7.367   6.760  17.918  0.00  0.00    +0.000 C 
ATOM      2  C   UNL     1       6.114   6.689  17.053  0.00  0.00    +0.000 C 
ENDROOT
BRANCH   2   3
ATOM      3  C   UNL     1       5.026   5.928  17.781  0.00  0.00    +0.000 A 
ATOM      4  N   UNL     1       3.787   5.784  17.350  0.00  0.00    +0.000 NA
ATOM      5  C   UNL     1       3.103   4.895  18.166  0.00  0.00    +0.000 A 
ATOM      6  C   UNL     1       1.779   4.442  17.974  0.00  0.00    +0.000 A 
ATOM      7  C   UNL     1       1.232   3.501  18.851  0.00  0.00    +0.000 A 
ATOM      8  C   UNL     1       1.987   3.021  19.911  0.00  0.00    +0.000 A 
ATOM      9  F   UNL     1       1.454   2.098  20.724  0.00  0.00    +0.000 F 
ATOM     10  C   UNL     1       3.287   3.459  20.144  0.00  0.00    +0.000 A 
ATOM     11  C   UNL     1       3.829   4.398  19.253  0.00  0.00    +0.000 A 
ATOM     12  S   UNL     1       5.394   5.113  19.251  0.00  0.00    +0.000 S 
ENDBRANCH   2   3
BRANCH   2  13
ATOM     13  N   UNL     1       6.419   6.006  15.811  0.00  0.00    +0.000 N 
ATOM     14  C   UNL     1       7.289   4.966  15.736  0.00  0.00    +0.000 C 
ATOM     15  O   UNL     1       7.833   4.417  16.681  0.00  0.00    +0.000 OA
ATOM     16  H   UNL     1       6.134   6.438  14.940  0.00  0.00    +0.000 HD
BRANCH  14  17
ATOM     17  O   UNL     1       7.536   4.707  14.428  0.00  0.00    +0.000 OA
BRANCH  17  18
ATOM     18  C   UNL     1       6.423   4.153  13.712  0.00  0.00    +0.000 C 
BRANCH  18  19
ATOM     19  C   UNL     1       6.761   3.807  12.277  0.00  0.00    +0.000 C 
ATOM     20 BR   UNL     1       5.428   2.554  11.597  0.00  0.00    +0.000 Br
ENDBRANCH  18  19
ENDBRANCH  17  18
ENDBRANCH  14  17
ENDBRANCH   2  13
TORSDOF 5
ENDMDL
MODEL 5
REMARK VINA RESULT:      -6.7      1.776      2.082
REMARK  Name = 
REMARK  6 active torsions:
REMARK  status: ('A' for Active; 'I' for Inactive)
REMARK    1  A    between atoms: C_1  and  C_2
REMARK    2  A    between atoms: C_2  and  N_3
REMARK    3  A    between atoms: C_2  and  C_10
REMARK    4  A    between atoms: C_4  and  O_6
REMARK    5  A    between atoms: O_6  and  C_7
REMARK    6  A    between atoms: C_7  and  C_8
REMARK                            x       y       z     vdW  Elec       q    Type
REMARK                         _______ _______ _______ _____ _____    ______ ____
ROOT
ATOM      1  C   UNL     1       8.016   5.845  19.363  0.00  0.00    +0.000 C 
ATOM      2  C   UNL     1       6.934   6.084  18.316  0.00  0.00    +0.000 C 
ENDROOT
BRANCH   2   3
ATOM      3  C   UNL     1       5.677   5.325  18.689  0.00  0.00    +0.000 A 
ATOM      4  N   UNL     1       5.648   4.077  19.117  0.00  0.00    +0.000 NA
ATOM      5  C   UNL     1       4.364   3.749  19.528  0.00  0.00    +0.000 A 
ATOM      6  C   UNL     1       3.966   2.525  20.110  0.00  0.00    +0.000 A 
ATOM      7  C   UNL     1       2.643   2.350  20.526  0.00  0.00    +0.000 A 
ATOM      8  C   UNL     1       1.723   3.375  20.359  0.00  0.00    +0.000 A 
ATOM      9  F   UNL     1       0.467   3.198  20.790  0.00  0.00    +0.000 F 
ATOM     10  C   UNL     1       2.073   4.587  19.771  0.00  0.00    +0.000 A 
ATOM     11  C   UNL     1       3.406   4.754  19.364  0.00  0.00    +0.000 A 
ATOM     12  S   UNL     1       4.153   6.122  18.635  0.00  0.00    +0.000 S 
ENDBRANCH   2   3
BRANCH   2  13
ATOM     13  N   UNL     1       7.399   5.622  17.022  0.00  0.00    +0.000 N 
ATOM     14  C   UNL     1       6.798   5.971  15.856  0.00  0.00    +0.000 C 
ATOM     15  O   UNL     1       5.886   6.772  15.731  0.00  0.00    +0.000 OA
ATOM     16  H   UNL     1       8.064   4.859  16.994  0.00  0.00    +0.000 HD
BRANCH  14  17
ATOM     17  O   UNL     1       7.310   5.202  14.863  0.00  0.00    +0.000 OA
BRANCH  17  18
ATOM     18  C   UNL     1       6.612   3.967  14.650  0.00  0.00    +0.000 C 
BRANCH  18  19
ATOM     19  C   UNL     1       5.486   4.094  13.645  0.00  0.00    +0.000 C 
ATOM     20 BR   UNL     1       5.954   3.088  12.039  0.00  0.00    +0.000 Br
ENDBRANCH  18  19
ENDBRANCH  17  18
ENDBRANCH  14  17
ENDBRANCH   2  13
TORSDOF 5
ENDMDL
MODEL 6
REMARK VINA RESULT:      -6.7      3.754      4.809
REMARK  Name = 
REMARK  6 active torsions:
REMARK  status: ('A' for Active; 'I' for Inactive)
REMARK    1  A    between atoms: C_1  and  C_2
REMARK    2  A    between atoms: C_2  and  N_3
REMARK    3  A    between atoms: C_2  and  C_10
REMARK    4  A    between atoms: C_4  and  O_6
REMARK    5  A    between atoms: O_6  and  C_7
REMARK    6  A    between atoms: C_7  and  C_8
REMARK                            x       y       z     vdW  Elec       q    Type
REMARK                         _______ _______ _______ _____ _____    ______ ____
ROOT
ATOM      1  C   UNL     1       6.914   4.982  15.566  0.00  0.00    +0.000 C 
ATOM      2  C   UNL     1       6.991   4.627  17.047  0.00  0.00    +0.000 C 
ENDROOT
BRANCH   2   3
ATOM      3  C   UNL     1       5.596   4.458  17.611  0.00  0.00    +0.000 A 
ATOM      4  N   UNL     1       4.562   3.987  16.940  0.00  0.00    +0.000 NA
ATOM      5  C   UNL     1       3.486   3.805  17.797  0.00  0.00    +0.000 A 
ATOM      6  C   UNL     1       2.233   3.253  17.451  0.00  0.00    +0.000 A 
ATOM      7  C   UNL     1       1.253   3.081  18.432  0.00  0.00    +0.000 A 
ATOM      8  C   UNL     1       1.510   3.460  19.741  0.00  0.00    +0.000 A 
ATOM      9  F   UNL     1       0.569   3.261  20.674  0.00  0.00    +0.000 F 
ATOM     10  C   UNL     1       2.724   4.027  20.116  0.00  0.00    +0.000 A 
ATOM     11  C   UNL     1       3.704   4.188  19.123  0.00  0.00    +0.000 A 
ATOM     12  S   UNL     1       5.295   4.827  19.264  0.00  0.00    +0.000 S 
ENDBRANCH   2   3
BRANCH   2  13
ATOM     13  N   UNL     1       7.668   5.688  17.767  0.00  0.00    +0.000 N 
ATOM     14  C   UNL     1       7.383   7.002  17.580  0.00  0.00    +0.000 C 
ATOM     15  O   UNL     1       6.484   7.450  16.886  0.00  0.00    +0.000 OA
ATOM     16  H   UNL     1       8.513   5.462  18.275  0.00  0.00    +0.000 HD
BRANCH  14  17
ATOM     17  O   UNL     1       8.332   7.740  18.208  0.00  0.00    +0.000 OA
BRANCH  17  18
ATOM     18  C   UNL     1       8.247   9.150  17.963  0.00  0.00    +0.000 C 
BRANCH  18  19
ATOM     19  C   UNL     1       9.021   9.970  18.974  0.00  0.00    +0.000 C 
ATOM     20 BR   UNL     1       9.923  11.432  18.048  0.00  0.00    +0.000 Br
ENDBRANCH  18  19
ENDBRANCH  17  18
ENDBRANCH  14  17
ENDBRANCH   2  13
TORSDOF 5
ENDMDL
MODEL 7
REMARK VINA RESULT:      -6.6      4.729      6.655
REMARK  Name = 
REMARK  6 active torsions:
REMARK  status: ('A' for Active; 'I' for Inactive)
REMARK    1  A    between atoms: C_1  and  C_2
REMARK    2  A    between atoms: C_2  and  N_3
REMARK    3  A    between atoms: C_2  and  C_10
REMARK    4  A    between atoms: C_4  and  O_6
REMARK    5  A    between atoms: O_6  and  C_7
REMARK    6  A    between atoms: C_7  and  C_8
REMARK                            x       y       z     vdW  Elec       q    Type
REMARK                         _______ _______ _______ _____ _____    ______ ____
ROOT
ATOM      1  C   UNL     1       1.804   7.217  20.380  0.00  0.00    +0.000 C 
ATOM      2  C   UNL     1       2.559   5.897  20.494  0.00  0.00    +0.000 C 
ENDROOT
BRANCH   2   3
ATOM      3  C   UNL     1       3.641   5.827  19.436  0.00  0.00    +0.000 A 
ATOM      4  N   UNL     1       4.854   5.344  19.628  0.00  0.00    +0.000 NA
ATOM      5  C   UNL     1       5.530   5.271  18.418  0.00  0.00    +0.000 A 
ATOM      6  C   UNL     1       6.823   4.741  18.220  0.00  0.00    +0.000 A 
ATOM      7  C   UNL     1       7.363   4.685  16.933  0.00  0.00    +0.000 A 
ATOM      8  C   UNL     1       6.630   5.157  15.853  0.00  0.00    +0.000 A 
ATOM      9  F   UNL     1       7.153   5.067  14.623  0.00  0.00    +0.000 F 
ATOM     10  C   UNL     1       5.361   5.705  16.011  0.00  0.00    +0.000 A 
ATOM     11  C   UNL     1       4.826   5.750  17.308  0.00  0.00    +0.000 A 
ATOM     12  S   UNL     1       3.295   6.337  17.830  0.00  0.00    +0.000 S 
ENDBRANCH   2   3
BRANCH   2  13
ATOM     13  N   UNL     1       1.638   4.793  20.303  0.00  0.00    +0.000 N 
ATOM     14  C   UNL     1       1.621   3.699  21.108  0.00  0.00    +0.000 C 
ATOM     15  O   UNL     1       2.280   3.547  22.124  0.00  0.00    +0.000 OA
ATOM     16  H   UNL     1       1.128   4.737  19.430  0.00  0.00    +0.000 HD
BRANCH  14  17
ATOM     17  O   UNL     1       0.829   2.759  20.536  0.00  0.00    +0.000 OA
BRANCH  17  18
ATOM     18  C   UNL     1       0.859   2.749  19.102  0.00  0.00    +0.000 C 
BRANCH  18  19
ATOM     19  C   UNL     1       1.660   1.593  18.540  0.00  0.00    +0.000 C 
ATOM     20 BR   UNL     1       3.409   2.250  17.975  0.00  0.00    +0.000 Br
ENDBRANCH  18  19
ENDBRANCH  17  18
ENDBRANCH  14  17
ENDBRANCH   2  13
TORSDOF 5
ENDMDL
MODEL 8
REMARK VINA RESULT:      -6.6      3.007      3.646
REMARK  Name = 
REMARK  6 active torsions:
REMARK  status: ('A' for Active; 'I' for Inactive)
REMARK    1  A    between atoms: C_1  and  C_2
REMARK    2  A    between atoms: C_2  and  N_3
REMARK    3  A    between atoms: C_2  and  C_10
REMARK    4  A    between atoms: C_4  and  O_6
REMARK    5  A    between atoms: O_6  and  C_7
REMARK    6  A    between atoms: C_7  and  C_8
REMARK                            x       y       z     vdW  Elec       q    Type
REMARK                         _______ _______ _______ _____ _____    ______ ____
ROOT
ATOM      1  C   UNL     1       3.875   2.654  17.796  0.00  0.00    +0.000 C 
ATOM      2  C   UNL     1       4.867   3.812  17.814  0.00  0.00    +0.000 C 
ENDROOT
BRANCH   2   3
ATOM      3  C   UNL     1       4.164   5.088  18.228  0.00  0.00    +0.000 A 
ATOM      4  N   UNL     1       3.980   6.137  17.448  0.00  0.00    +0.000 NA
ATOM      5  C   UNL     1       3.157   7.058  18.081  0.00  0.00    +0.000 A 
ATOM      6  C   UNL     1       2.685   8.268  17.527  0.00  0.00    +0.000 A 
ATOM      7  C   UNL     1       1.817   9.078  18.263  0.00  0.00    +0.000 A 
ATOM      8  C   UNL     1       1.429   8.698  19.539  0.00  0.00    +0.000 A 
ATOM      9  F   UNL     1       0.573   9.474  20.218  0.00  0.00    +0.000 F 
ATOM     10  C   UNL     1       1.890   7.524  20.127  0.00  0.00    +0.000 A 
ATOM     11  C   UNL     1       2.755   6.713  19.375  0.00  0.00    +0.000 A 
ATOM     12  S   UNL     1       3.473   5.209  19.800  0.00  0.00    +0.000 S 
ENDBRANCH   2   3
BRANCH   2  13
ATOM     13  N   UNL     1       5.429   3.991  16.489  0.00  0.00    +0.000 N 
ATOM     14  C   UNL     1       6.728   4.323  16.278  0.00  0.00    +0.000 C 
ATOM     15  O   UNL     1       7.594   4.411  17.135  0.00  0.00    +0.000 OA
ATOM     16  H   UNL     1       4.795   4.069  15.703  0.00  0.00    +0.000 HD
BRANCH  14  17
ATOM     17  O   UNL     1       6.882   4.645  14.970  0.00  0.00    +0.000 OA
BRANCH  17  18
ATOM     18  C   UNL     1       5.788   4.251  14.130  0.00  0.00    +0.000 C 
BRANCH  18  19
ATOM     19  C   UNL     1       6.243   3.563  12.859  0.00  0.00    +0.000 C 
ATOM     20 BR   UNL     1       4.686   3.223  11.731  0.00  0.00    +0.000 Br
ENDBRANCH  18  19
ENDBRANCH  17  18
ENDBRANCH  14  17
ENDBRANCH   2  13
TORSDOF 5
ENDMDL
MODEL 9
REMARK VINA RESULT:      -6.5      1.631      1.946
REMARK  Name = 
REMARK  6 active torsions:
REMARK  status: ('A' for Active; 'I' for Inactive)
REMARK    1  A    between atoms: C_1  and  C_2
REMARK    2  A    between atoms: C_2  and  N_3
REMARK    3  A    between atoms: C_2  and  C_10
REMARK    4  A    between atoms: C_4  and  O_6
REMARK    5  A    between atoms: O_6  and  C_7
REMARK    6  A    between atoms: C_7  and  C_8
REMARK                            x       y       z     vdW  Elec       q    Type
REMARK                         _______ _______ _______ _____ _____    ______ ____
ROOT
ATOM      1  C   UNL     1       7.499   6.525  18.095  0.00  0.00    +0.000 C 
ATOM      2  C   UNL     1       6.238   6.151  17.323  0.00  0.00    +0.000 C 
ENDROOT
BRANCH   2   3
ATOM      3  C   UNL     1       5.200   5.586  18.271  0.00  0.00    +0.000 A 
ATOM      4  N   UNL     1       4.163   6.253  18.740  0.00  0.00    +0.000 NA
ATOM      5  C   UNL     1       3.326   5.395  19.440  0.00  0.00    +0.000 A 
ATOM      6  C   UNL     1       2.086   5.736  20.022  0.00  0.00    +0.000 A 
ATOM      7  C   UNL     1       1.321   4.754  20.656  0.00  0.00    +0.000 A 
ATOM      8  C   UNL     1       1.785   3.448  20.718  0.00  0.00    +0.000 A 
ATOM      9  F   UNL     1       1.024   2.514  21.305  0.00  0.00    +0.000 F 
ATOM     10  C   UNL     1       3.011   3.077  20.174  0.00  0.00    +0.000 A 
ATOM     11  C   UNL     1       3.768   4.072  19.534  0.00  0.00    +0.000 A 
ATOM     12  S   UNL     1       5.293   3.936  18.751  0.00  0.00    +0.000 S 
ENDBRANCH   2   3
BRANCH   2  13
ATOM     13  N   UNL     1       6.558   5.152  16.322  0.00  0.00    +0.000 N 
ATOM     14  C   UNL     1       6.050   5.180  15.064  0.00  0.00    +0.000 C 
ATOM     15  O   UNL     1       5.363   6.070  14.588  0.00  0.00    +0.000 OA
ATOM     16  H   UNL     1       7.013   4.299  16.622  0.00  0.00    +0.000 HD
BRANCH  14  17
ATOM     17  O   UNL     1       6.343   4.003  14.458  0.00  0.00    +0.000 OA
BRANCH  17  18
ATOM     18  C   UNL     1       6.623   4.112  13.055  0.00  0.00    +0.000 C 
BRANCH  18  19
ATOM     19  C   UNL     1       6.140   2.914  12.265  0.00  0.00    +0.000 C 
ATOM     20 BR   UNL     1       4.387   3.320  11.508  0.00  0.00    +0.000 Br
ENDBRANCH  18  19
ENDBRANCH  17  18
ENDBRANCH  14  17
ENDBRANCH   2  13
TORSDOF 5
ENDMDL
