MODEL 1
REMARK VINA RESULT:      -7.8      0.000      0.000
REMARK  Name = 
REMARK  6 active torsions:
REMARK  status: ('A' for Active; 'I' for Inactive)
REMARK    1  A    between atoms: C_1  and  C_2
REMARK    2  A    between atoms: C_2  and  O_3
REMARK    3  A    between atoms: C_2  and  C_10
REMARK    4  A    between atoms: O_3  and  C_4
REMARK    5  A    between atoms: C_4  and  C_6
REMARK    6  A    between atoms: N_12  and  C_13
REMARK                            x       y       z     vdW  Elec       q    Type
REMARK                         _______ _______ _______ _____ _____    ______ ____
ROOT
ATOM      1  C   UNL     1       6.030   4.636  17.743  0.00  0.00    +0.000 C 
ATOM      2  O   UNL     1       6.456   4.376  18.868  0.00  0.00    +0.000 OA
ATOM      3  N   UNL     1       4.785   4.273  17.275  0.00  0.00    +0.000 N 
ATOM      4  H   UNL     1       4.600   4.308  16.274  0.00  0.00    +0.000 HD
ENDROOT
BRANCH   3   5
ATOM      5  C   UNL     1       3.788   3.672  18.056  0.00  0.00    +0.000 A 
ATOM      6  N   UNL     1       3.504   2.349  17.980  0.00  0.00    +0.000 NA
ATOM      7  C   UNL     1       2.502   1.855  18.732  0.00  0.00    +0.000 A 
ATOM      8  N   UNL     1       1.711   2.516  19.598  0.00  0.00    +0.000 NA
ATOM      9  C   UNL     1       2.051   3.815  19.652  0.00  0.00    +0.000 A 
ATOM     10  N   UNL     1       1.463   4.785  20.407  0.00  0.00    +0.000 N 
ATOM     11  C   UNL     1       2.129   5.954  20.163  0.00  0.00    +0.000 A 
ATOM     12  N   UNL     1       3.100   5.796  19.287  0.00  0.00    +0.000 NA
ATOM     13  C   UNL     1       3.053   4.458  18.949  0.00  0.00    +0.000 A 
ATOM     14  H   UNL     1       0.673   4.647  21.021  0.00  0.00    +0.000 HD
ENDBRANCH   3   5
BRANCH   1  16
ATOM     15  C   UNL     1       7.367   6.695  17.268  0.00  0.00    +0.000 C 
ATOM     16  C   UNL     1       6.931   5.342  16.698  0.00  0.00    +0.000 C 
BRANCH  16  17
ATOM     17  O   UNL     1       6.334   5.590  15.408  0.00  0.00    +0.000 OA
BRANCH  17  18
ATOM     18  C   UNL     1       7.053   5.134  14.336  0.00  0.00    +0.000 C 
ATOM     19  O   UNL     1       8.115   5.663  13.997  0.00  0.00    +0.000 OA
BRANCH  18  20
ATOM     20  C   UNL     1       6.465   3.893  13.635  0.00  0.00    +0.000 C 
ATOM     21  C   UNL     1       4.997   3.829  13.145  0.00  0.00    +0.000 C 
ATOM     22  C   UNL     1       5.501   2.981  11.956  0.00  0.00    +0.000 C 
ATOM     23  C   UNL     1       6.871   3.656  12.153  0.00  0.00    +0.000 C 
ENDBRANCH  18  20
ENDBRANCH  17  18
ENDBRANCH  16  17
ENDBRANCH   1  16
TORSDOF 5
ENDMDL
MODEL 2
REMARK VINA RESULT:      -7.7      1.443      1.446
REMARK  Name = 
REMARK  6 active torsions:
REMARK  status: ('A' for Active; 'I' for Inactive)
REMARK    1  A    between atoms: C_1  and  C_2
REMARK    2  A    between atoms: C_2  and  O_3
REMARK    3  A    between atoms: C_2  and  C_10
REMARK    4  A    between atoms: O_3  and  C_4
REMARK    5  A    between atoms: C_4  and  C_6
REMARK    6  A    between atoms: N_12  and  C_13
REMARK                            x       y       z     vdW  Elec       q    Type
REMARK                         _______ _______ _______ _____ _____    ______ ____
ROOT
ATOM      1  C   UNL     1       5.088   4.051  17.181  0.00  0.00    +0.000 C 
ATOM      2  O   UNL     1       3.998   3.972  16.616  0.00  0.00    +0.000 OA
ATOM      3  N   UNL     1       5.262   4.074  18.548  0.00  0.00    +0.000 N 
ATOM      4  H   UNL     1       6.154   4.380  18.932  0.00  0.00    +0.000 HD
ENDROOT
BRANCH   3   5
ATOM      5  C   UNL     1       4.233   3.882  19.482  0.00  0.00    +0.000 A 
ATOM      6  N   UNL     1       4.023   2.694  20.099  0.00  0.00    +0.000 NA
ATOM      7  C   UNL     1       2.987   2.579  20.952  0.00  0.00    +0.000 A 
ATOM      8  N   UNL     1       2.094   3.522  21.304  0.00  0.00    +0.000 NA
ATOM      9  C   UNL     1       2.363   4.683  20.684  0.00  0.00    +0.000 A 
ATOM     10  N   UNL     1       1.665   5.849  20.791  0.00  0.00    +0.000 N 
ATOM     11  C   UNL     1       2.291   6.773  20.000  0.00  0.00    +0.000 A 
ATOM     12  N   UNL     1       3.339   6.268  19.382  0.00  0.00    +0.000 NA
ATOM     13  C   UNL     1       3.388   4.951  19.795  0.00  0.00    +0.000 A 
ATOM     14  H   UNL     1       0.835   5.983  21.348  0.00  0.00    +0.000 HD
ENDBRANCH   3   5
BRANCH   1  16
ATOM     15  C   UNL     1       7.539   4.525  17.337  0.00  0.00    +0.000 C 
ATOM     16  C   UNL     1       6.394   4.225  16.364  0.00  0.00    +0.000 C 
BRANCH  16  17
ATOM     17  O   UNL     1       6.388   5.270  15.369  0.00  0.00    +0.000 OA
BRANCH  17  18
ATOM     18  C   UNL     1       6.974   4.942  14.176  0.00  0.00    +0.000 C 
ATOM     19  O   UNL     1       7.957   5.554  13.748  0.00  0.00    +0.000 OA
BRANCH  18  20
ATOM     20  C   UNL     1       6.351   3.731  13.454  0.00  0.00    +0.000 C 
ATOM     21  C   UNL     1       4.918   3.759  12.865  0.00  0.00    +0.000 C 
ATOM     22  C   UNL     1       5.442   2.857  11.725  0.00  0.00    +0.000 C 
ATOM     23  C   UNL     1       6.839   3.441  12.005  0.00  0.00    +0.000 C 
ENDBRANCH  18  20
ENDBRANCH  17  18
ENDBRANCH  16  17
ENDBRANCH   1  16
TORSDOF 5
ENDMDL
MODEL 3
REMARK VINA RESULT:      -7.5      0.962      2.099
REMARK  Name = 
REMARK  6 active torsions:
REMARK  status: ('A' for Active; 'I' for Inactive)
REMARK    1  A    between atoms: C_1  and  C_2
REMARK    2  A    between atoms: C_2  and  O_3
REMARK    3  A    between atoms: C_2  and  C_10
REMARK    4  A    between atoms: O_3  and  C_4
REMARK    5  A    between atoms: C_4  and  C_6
REMARK    6  A    between atoms: N_12  and  C_13
REMARK                            x       y       z     vdW  Elec       q    Type
REMARK                         _______ _______ _______ _____ _____    ______ ____
ROOT
ATOM      1  C   UNL     1       5.443   4.339  17.949  0.00  0.00    +0.000 C 
ATOM      2  O   UNL     1       5.817   3.966  19.060  0.00  0.00    +0.000 OA
ATOM      3  N   UNL     1       4.165   4.769  17.656  0.00  0.00    +0.000 N 
ATOM      4  H   UNL     1       3.871   4.829  16.683  0.00  0.00    +0.000 HD
ENDROOT
BRANCH   3   5
ATOM      5  C   UNL     1       3.155   4.961  18.609  0.00  0.00    +0.000 A 
ATOM      6  N   UNL     1       3.040   6.105  19.327  0.00  0.00    +0.000 NA
ATOM      7  C   UNL     1       2.068   6.196  20.254  0.00  0.00    +0.000 A 
ATOM      8  N   UNL     1       1.143   5.273  20.580  0.00  0.00    +0.000 NA
ATOM      9  C   UNL     1       1.288   4.172  19.823  0.00  0.00    +0.000 A 
ATOM     10  N   UNL     1       0.540   3.034  19.882  0.00  0.00    +0.000 N 
ATOM     11  C   UNL     1       1.023   2.177  18.932  0.00  0.00    +0.000 A 
ATOM     12  N   UNL     1       2.043   2.691  18.276  0.00  0.00    +0.000 NA
ATOM     13  C   UNL     1       2.226   3.940  18.835  0.00  0.00    +0.000 A 
ATOM     14  H   UNL     1      -0.221   2.869  20.525  0.00  0.00    +0.000 HD
ENDBRANCH   3   5
BRANCH   1  16
ATOM     15  C   UNL     1       7.828   4.493  17.214  0.00  0.00    +0.000 C 
ATOM     16  C   UNL     1       6.393   4.269  16.726  0.00  0.00    +0.000 C 
BRANCH  16  17
ATOM     17  O   UNL     1       6.144   5.219  15.670  0.00  0.00    +0.000 OA
BRANCH  17  18
ATOM     18  C   UNL     1       6.784   4.957  14.489  0.00  0.00    +0.000 C 
ATOM     19  O   UNL     1       7.775   5.603  14.133  0.00  0.00    +0.000 OA
BRANCH  18  20
ATOM     20  C   UNL     1       6.210   3.776  13.682  0.00  0.00    +0.000 C 
ATOM     21  C   UNL     1       4.832   3.840  12.976  0.00  0.00    +0.000 C 
ATOM     22  C   UNL     1       5.440   2.963  11.858  0.00  0.00    +0.000 C 
ATOM     23  C   UNL     1       6.814   3.520  12.271  0.00  0.00    +0.000 C 
ENDBRANCH  18  20
ENDBRANCH  17  18
ENDBRANCH  16  17
ENDBRANCH   1  16
TORSDOF 5
ENDMDL
MODEL 4
REMARK VINA RESULT:      -7.5      1.393      2.593
REMARK  Name = 
REMARK  6 active torsions:
REMARK  status: ('A' for Active; 'I' for Inactive)
REMARK    1  A    between atoms: C_1  and  C_2
REMARK    2  A    between atoms: C_2  and  O_3
REMARK    3  A    between atoms: C_2  and  C_10
REMARK    4  A    between atoms: O_3  and  C_4
REMARK    5  A    between atoms: C_4  and  C_6
REMARK    6  A    between atoms: N_12  and  C_13
REMARK                            x       y       z     vdW  Elec       q    Type
REMARK                         _______ _______ _______ _____ _____    ______ ____
ROOT
ATOM      1  C   UNL     1       5.436   6.464  17.892  0.00  0.00    +0.000 C 
ATOM      2  O   UNL     1       4.587   7.165  17.344  0.00  0.00    +0.000 OA
ATOM      3  N   UNL     1       5.165   5.512  18.852  0.00  0.00    +0.000 N 
ATOM      4  H   UNL     1       5.927   5.150  19.424  0.00  0.00    +0.000 HD
ENDROOT
BRANCH   3   5
ATOM      5  C   UNL     1       3.876   5.125  19.244  0.00  0.00    +0.000 A 
ATOM      6  N   UNL     1       3.086   5.909  20.018  0.00  0.00    +0.000 NA
ATOM      7  C   UNL     1       1.875   5.447  20.387  0.00  0.00    +0.000 A 
ATOM      8  N   UNL     1       1.306   4.268  20.074  0.00  0.00    +0.000 NA
ATOM      9  C   UNL     1       2.120   3.544  19.288  0.00  0.00    +0.000 A 
ATOM     10  N   UNL     1       1.882   2.299  18.788  0.00  0.00    +0.000 N 
ATOM     11  C   UNL     1       2.968   1.946  18.035  0.00  0.00    +0.000 A 
ATOM     12  N   UNL     1       3.893   2.882  18.032  0.00  0.00    +0.000 NA
ATOM     13  C   UNL     1       3.377   3.887  18.826  0.00  0.00    +0.000 A 
ATOM     14  H   UNL     1       1.053   1.749  18.963  0.00  0.00    +0.000 HD
ENDBRANCH   3   5
BRANCH   1  16
ATOM     15  C   UNL     1       7.229   8.170  17.534  0.00  0.00    +0.000 C 
ATOM     16  C   UNL     1       6.944   6.666  17.594  0.00  0.00    +0.000 C 
BRANCH  16  17
ATOM     17  O   UNL     1       7.435   6.085  16.368  0.00  0.00    +0.000 OA
BRANCH  17  18
ATOM     18  C   UNL     1       7.517   4.718  16.364  0.00  0.00    +0.000 C 
ATOM     19  O   UNL     1       8.174   4.107  17.211  0.00  0.00    +0.000 OA
BRANCH  18  20
ATOM     20  C   UNL     1       6.690   4.017  15.268  0.00  0.00    +0.000 C 
ATOM     21  C   UNL     1       5.196   4.342  15.014  0.00  0.00    +0.000 C 
ATOM     22  C   UNL     1       5.469   4.101  13.513  0.00  0.00    +0.000 C 
ATOM     23  C   UNL     1       6.938   4.461  13.798  0.00  0.00    +0.000 C 
ENDBRANCH  18  20
ENDBRANCH  17  18
ENDBRANCH  16  17
ENDBRANCH   1  16
TORSDOF 5
ENDMDL
MODEL 5
REMARK VINA RESULT:      -7.4      1.697      2.190
REMARK  Name = 
REMARK  6 active torsions:
REMARK  status: ('A' for Active; 'I' for Inactive)
REMARK    1  A    between atoms: C_1  and  C_2
REMARK    2  A    between atoms: C_2  and  O_3
REMARK    3  A    between atoms: C_2  and  C_10
REMARK    4  A    between atoms: O_3  and  C_4
REMARK    5  A    between atoms: C_4  and  C_6
REMARK    6  A    between atoms: N_12  and  C_13
REMARK                            x       y       z     vdW  Elec       q    Type
REMARK                         _______ _______ _______ _____ _____    ______ ____
ROOT
ATOM      1  C   UNL     1       5.638   4.759  18.605  0.00  0.00    +0.000 C 
ATOM      2  O   UNL     1       5.136   5.839  18.916  0.00  0.00    +0.000 OA
ATOM      3  N   UNL     1       4.928   3.592  18.411  0.00  0.00    +0.000 N 
ATOM      4  H   UNL     1       5.425   2.704  18.395  0.00  0.00    +0.000 HD
ENDROOT
BRANCH   3   5
ATOM      5  C   UNL     1       3.529   3.505  18.418  0.00  0.00    +0.000 A 
ATOM      6  N   UNL     1       2.780   3.755  17.316  0.00  0.00    +0.000 NA
ATOM      7  C   UNL     1       1.438   3.691  17.415  0.00  0.00    +0.000 A 
ATOM      8  N   UNL     1       0.699   3.390  18.499  0.00  0.00    +0.000 NA
ATOM      9  C   UNL     1       1.491   3.127  19.552  0.00  0.00    +0.000 A 
ATOM     10  N   UNL     1       1.093   2.798  20.814  0.00  0.00    +0.000 N 
ATOM     11  C   UNL     1       2.222   2.608  21.562  0.00  0.00    +0.000 A 
ATOM     12  N   UNL     1       3.319   2.808  20.861  0.00  0.00    +0.000 NA
ATOM     13  C   UNL     1       2.873   3.146  19.599  0.00  0.00    +0.000 A 
ATOM     14  H   UNL     1       0.135   2.725  21.123  0.00  0.00    +0.000 HD
ENDBRANCH   3   5
BRANCH   1  16
ATOM     15  C   UNL     1       7.839   5.755  19.249  0.00  0.00    +0.000 C 
ATOM     16  C   UNL     1       7.176   4.603  18.487  0.00  0.00    +0.000 C 
BRANCH  16  17
ATOM     17  O   UNL     1       7.715   4.605  17.149  0.00  0.00    +0.000 OA
BRANCH  17  18
ATOM     18  C   UNL     1       7.268   5.617  16.342  0.00  0.00    +0.000 C 
ATOM     19  O   UNL     1       7.543   6.798  16.574  0.00  0.00    +0.000 OA
BRANCH  18  20
ATOM     20  C   UNL     1       6.454   5.164  15.115  0.00  0.00    +0.000 C 
ATOM     21  C   UNL     1       7.109   4.877  13.740  0.00  0.00    +0.000 C 
ATOM     22  C   UNL     1       6.065   3.754  13.552  0.00  0.00    +0.000 C 
ATOM     23  C   UNL     1       5.974   3.685  15.087  0.00  0.00    +0.000 C 
ENDBRANCH  18  20
ENDBRANCH  17  18
ENDBRANCH  16  17
ENDBRANCH   1  16
TORSDOF 5
ENDMDL
MODEL 6
REMARK VINA RESULT:      -7.3      1.219      2.482
REMARK  Name = 
REMARK  6 active torsions:
REMARK  status: ('A' for Active; 'I' for Inactive)
REMARK    1  A    between atoms: C_1  and  C_2
REMARK    2  A    between atoms: C_2  and  O_3
REMARK    3  A    between atoms: C_2  and  C_10
REMARK    4  A    between atoms: O_3  and  C_4
REMARK    5  A    between atoms: C_4  and  C_6
REMARK    6  A    between atoms: N_12  and  C_13
REMARK                            x       y       z     vdW  Elec       q    Type
REMARK                         _______ _______ _______ _____ _____    ______ ____
ROOT
ATOM      1  C   UNL     1       5.620   6.148  17.740  0.00  0.00    +0.000 C 
ATOM      2  O   UNL     1       4.834   6.942  17.225  0.00  0.00    +0.000 OA
ATOM      3  N   UNL     1       5.280   5.223  18.704  0.00  0.00    +0.000 N 
ATOM      4  H   UNL     1       6.017   4.776  19.247  0.00  0.00    +0.000 HD
ENDROOT
BRANCH   3   5
ATOM      5  C   UNL     1       3.970   4.975  19.138  0.00  0.00    +0.000 A 
ATOM      6  N   UNL     1       3.322   5.797  19.999  0.00  0.00    +0.000 NA
ATOM      7  C   UNL     1       2.079   5.466  20.401  0.00  0.00    +0.000 A 
ATOM      8  N   UNL     1       1.351   4.390  20.047  0.00  0.00    +0.000 NA
ATOM      9  C   UNL     1       2.031   3.625  19.177  0.00  0.00    +0.000 A 
ATOM     10  N   UNL     1       1.614   2.455  18.615  0.00  0.00    +0.000 N 
ATOM     11  C   UNL     1       2.611   2.021  17.786  0.00  0.00    +0.000 A 
ATOM     12  N   UNL     1       3.648   2.833  17.792  0.00  0.00    +0.000 NA
ATOM     13  C   UNL     1       3.300   3.839  18.672  0.00  0.00    +0.000 A 
ATOM     14  H   UNL     1       0.730   2.003  18.798  0.00  0.00    +0.000 HD
ENDBRANCH   3   5
BRANCH   1  16
ATOM     15  C   UNL     1       7.685   7.558  17.797  0.00  0.00    +0.000 C 
ATOM     16  C   UNL     1       7.130   6.189  17.392  0.00  0.00    +0.000 C 
BRANCH  16  17
ATOM     17  O   UNL     1       7.470   5.979  16.005  0.00  0.00    +0.000 OA
BRANCH  17  18
ATOM     18  C   UNL     1       6.943   4.848  15.441  0.00  0.00    +0.000 C 
ATOM     19  O   UNL     1       6.661   3.858  16.122  0.00  0.00    +0.000 OA
BRANCH  18  20
ATOM     20  C   UNL     1       6.686   4.933  13.924  0.00  0.00    +0.000 C 
ATOM     21  C   UNL     1       7.834   4.978  12.884  0.00  0.00    +0.000 C 
ATOM     22  C   UNL     1       6.924   4.154  11.945  0.00  0.00    +0.000 C 
ATOM     23  C   UNL     1       6.217   3.634  13.210  0.00  0.00    +0.000 C 
ENDBRANCH  18  20
ENDBRANCH  17  18
ENDBRANCH  16  17
ENDBRANCH   1  16
TORSDOF 5
ENDMDL
MODEL 7
REMARK VINA RESULT:      -7.3      1.232      1.351
REMARK  Name = 
REMARK  6 active torsions:
REMARK  status: ('A' for Active; 'I' for Inactive)
REMARK    1  A    between atoms: C_1  and  C_2
REMARK    2  A    between atoms: C_2  and  O_3
REMARK    3  A    between atoms: C_2  and  C_10
REMARK    4  A    between atoms: O_3  and  C_4
REMARK    5  A    between atoms: C_4  and  C_6
REMARK    6  A    between atoms: N_12  and  C_13
REMARK                            x       y       z     vdW  Elec       q    Type
REMARK                         _______ _______ _______ _____ _____    ______ ____
ROOT
ATOM      1  C   UNL     1       6.403   5.031  18.037  0.00  0.00    +0.000 C 
ATOM      2  O   UNL     1       6.752   5.317  19.182  0.00  0.00    +0.000 OA
ATOM      3  N   UNL     1       5.405   4.132  17.724  0.00  0.00    +0.000 N 
ATOM      4  H   UNL     1       5.340   3.772  16.774  0.00  0.00    +0.000 HD
ENDROOT
BRANCH   3   5
ATOM      5  C   UNL     1       4.567   3.518  18.665  0.00  0.00    +0.000 A 
ATOM      6  N   UNL     1       5.049   2.797  19.707  0.00  0.00    +0.000 NA
ATOM      7  C   UNL     1       4.178   2.202  20.544  0.00  0.00    +0.000 A 
ATOM      8  N   UNL     1       2.833   2.230  20.499  0.00  0.00    +0.000 NA
ATOM      9  C   UNL     1       2.410   2.976  19.464  0.00  0.00    +0.000 A 
ATOM     10  N   UNL     1       1.118   3.217  19.102  0.00  0.00    +0.000 N 
ATOM     11  C   UNL     1       1.147   4.030  18.002  0.00  0.00    +0.000 A 
ATOM     12  N   UNL     1       2.377   4.314  17.629  0.00  0.00    +0.000 NA
ATOM     13  C   UNL     1       3.181   3.647  18.533  0.00  0.00    +0.000 A 
ATOM     14  H   UNL     1       0.303   2.845  19.567  0.00  0.00    +0.000 HD
ENDBRANCH   3   5
BRANCH   1  16
ATOM     15  C   UNL     1       7.531   7.068  17.125  0.00  0.00    +0.000 C 
ATOM     16  C   UNL     1       7.148   5.618  16.811  0.00  0.00    +0.000 C 
BRANCH  16  17
ATOM     17  O   UNL     1       6.419   5.624  15.566  0.00  0.00    +0.000 OA
BRANCH  17  18
ATOM     18  C   UNL     1       7.118   5.170  14.480  0.00  0.00    +0.000 C 
ATOM     19  O   UNL     1       8.192   5.676  14.145  0.00  0.00    +0.000 OA
BRANCH  18  20
ATOM     20  C   UNL     1       6.490   3.962  13.758  0.00  0.00    +0.000 C 
ATOM     21  C   UNL     1       5.003   3.930  13.322  0.00  0.00    +0.000 C 
ATOM     22  C   UNL     1       5.453   3.121  12.085  0.00  0.00    +0.000 C 
ATOM     23  C   UNL     1       6.836   3.776  12.253  0.00  0.00    +0.000 C 
ENDBRANCH  18  20
ENDBRANCH  17  18
ENDBRANCH  16  17
ENDBRANCH   1  16
TORSDOF 5
ENDMDL
MODEL 8
REMARK VINA RESULT:      -7.3      2.665      6.702
REMARK  Name = 
REMARK  6 active torsions:
REMARK  status: ('A' for Active; 'I' for Inactive)
REMARK    1  A    between atoms: C_1  and  C_2
REMARK    2  A    between atoms: C_2  and  O_3
REMARK    3  A    between atoms: C_2  and  C_10
REMARK    4  A    between atoms: O_3  and  C_4
REMARK    5  A    between atoms: C_4  and  C_6
REMARK    6  A    between atoms: N_12  and  C_13
REMARK                            x       y       z     vdW  Elec       q    Type
REMARK                         _______ _______ _______ _____ _____    ______ ____
ROOT
ATOM      1  C   UNL     1       4.397   2.906  18.839  0.00  0.00    +0.000 C 
ATOM      2  O   UNL     1       5.165   3.010  19.795  0.00  0.00    +0.000 OA
ATOM      3  N   UNL     1       4.460   3.676  17.697  0.00  0.00    +0.000 N 
ATOM      4  H   UNL     1       3.660   3.699  17.067  0.00  0.00    +0.000 HD
ENDROOT
BRANCH   3   5
ATOM      5  C   UNL     1       5.482   4.594  17.414  0.00  0.00    +0.000 A 
ATOM      6  N   UNL     1       5.907   5.509  18.319  0.00  0.00    +0.000 NA
ATOM      7  C   UNL     1       6.864   6.385  17.957  0.00  0.00    +0.000 A 
ATOM      8  N   UNL     1       7.497   6.480  16.772  0.00  0.00    +0.000 NA
ATOM      9  C   UNL     1       7.055   5.536  15.924  0.00  0.00    +0.000 A 
ATOM     10  N   UNL     1       7.459   5.337  14.637  0.00  0.00    +0.000 N 
ATOM     11  C   UNL     1       6.760   4.267  14.150  0.00  0.00    +0.000 A 
ATOM     12  N   UNL     1       5.923   3.776  15.040  0.00  0.00    +0.000 NA
ATOM     13  C   UNL     1       6.091   4.572  16.156  0.00  0.00    +0.000 A 
ATOM     14  H   UNL     1       8.142   5.896  14.148  0.00  0.00    +0.000 HD
ENDBRANCH   3   5
BRANCH   1  16
ATOM     15  C   UNL     1       2.444   2.015  17.557  0.00  0.00    +0.000 C 
ATOM     16  C   UNL     1       3.201   1.921  18.886  0.00  0.00    +0.000 C 
BRANCH  16  17
ATOM     17  O   UNL     1       2.243   2.133  19.943  0.00  0.00    +0.000 OA
BRANCH  17  18
ATOM     18  C   UNL     1       1.137   2.858  19.589  0.00  0.00    +0.000 C 
ATOM     19  O   UNL     1       0.168   2.330  19.035  0.00  0.00    +0.000 OA
BRANCH  18  20
ATOM     20  C   UNL     1       1.177   4.347  19.983  0.00  0.00    +0.000 C 
ATOM     21  C   UNL     1       2.218   4.918  20.980  0.00  0.00    +0.000 C 
ATOM     22  C   UNL     1       2.222   6.209  20.131  0.00  0.00    +0.000 C 
ATOM     23  C   UNL     1       1.769   5.341  18.943  0.00  0.00    +0.000 C 
ENDBRANCH  18  20
ENDBRANCH  17  18
ENDBRANCH  16  17
ENDBRANCH   1  16
TORSDOF 5
ENDMDL
MODEL 9
REMARK VINA RESULT:      -7.2      1.284      1.464
REMARK  Name = 
REMARK  6 active torsions:
REMARK  status: ('A' for Active; 'I' for Inactive)
REMARK    1  A    between atoms: C_1  and  C_2
REMARK    2  A    between atoms: C_2  and  O_3
REMARK    3  A    between atoms: C_2  and  C_10
REMARK    4  A    between atoms: O_3  and  C_4
REMARK    5  A    between atoms: C_4  and  C_6
REMARK    6  A    between atoms: N_12  and  C_13
REMARK                            x       y       z     vdW  Elec       q    Type
REMARK                         _______ _______ _______ _____ _____    ______ ____
ROOT
ATOM      1  C   UNL     1       5.714   4.592  18.267  0.00  0.00    +0.000 C 
ATOM      2  O   UNL     1       5.039   5.550  17.893  0.00  0.00    +0.000 OA
ATOM      3  N   UNL     1       5.196   3.404  18.736  0.00  0.00    +0.000 N 
ATOM      4  H   UNL     1       5.801   2.763  19.246  0.00  0.00    +0.000 HD
ENDROOT
BRANCH   3   5
ATOM      5  C   UNL     1       3.832   3.077  18.733  0.00  0.00    +0.000 A 
ATOM      6  N   UNL     1       3.317   2.119  17.925  0.00  0.00    +0.000 NA
ATOM      7  C   UNL     1       1.990   1.892  17.950  0.00  0.00    +0.000 A 
ATOM      8  N   UNL     1       1.058   2.504  18.705  0.00  0.00    +0.000 NA
ATOM      9  C   UNL     1       1.625   3.424  19.502  0.00  0.00    +0.000 A 
ATOM     10  N   UNL     1       0.991   4.242  20.390  0.00  0.00    +0.000 N 
ATOM     11  C   UNL     1       1.949   5.011  20.993  0.00  0.00    +0.000 A 
ATOM     12  N   UNL     1       3.155   4.746  20.537  0.00  0.00    +0.000 NA
ATOM     13  C   UNL     1       2.964   3.759  19.591  0.00  0.00    +0.000 A 
ATOM     14  H   UNL     1      -0.005   4.268  20.550  0.00  0.00    +0.000 HD
ENDBRANCH   3   5
BRANCH   1  16
ATOM     15  C   UNL     1       7.645   6.099  18.773  0.00  0.00    +0.000 C 
ATOM     16  C   UNL     1       7.261   4.686  18.322  0.00  0.00    +0.000 C 
BRANCH  16  17
ATOM     17  O   UNL     1       7.959   4.422  17.087  0.00  0.00    +0.000 OA
BRANCH  17  18
ATOM     18  C   UNL     1       7.439   5.040  15.982  0.00  0.00    +0.000 C 
ATOM     19  O   UNL     1       7.563   6.255  15.801  0.00  0.00    +0.000 OA
BRANCH  18  20
ATOM     20  C   UNL     1       6.747   4.102  14.973  0.00  0.00    +0.000 C 
ATOM     21  C   UNL     1       5.246   4.230  14.610  0.00  0.00    +0.000 C 
ATOM     22  C   UNL     1       5.626   3.797  13.176  0.00  0.00    +0.000 C 
ATOM     23  C   UNL     1       7.036   4.344  13.464  0.00  0.00    +0.000 C 
ENDBRANCH  18  20
ENDBRANCH  17  18
ENDBRANCH  16  17
ENDBRANCH   1  16
TORSDOF 5
ENDMDL
