MODEL 1
REMARK VINA RESULT:      -7.5      0.000      0.000
REMARK  Name = 
REMARK  10 active torsions:
REMARK  status: ('A' for Active; 'I' for Inactive)
REMARK    1  A    between atoms: C_1  and  C_2
REMARK    2  A    between atoms: C_2  and  C_3
REMARK    3  A    between atoms: C_2  and  C_4
REMARK    4  A    between atoms: C_10  and  O_11
REMARK    5  A    between atoms: O_11  and  C_12
REMARK    6  A    between atoms: C_13  and  C_14
REMARK    7  A    between atoms: C_19  and  C_20
REMARK    8  A    between atoms: C_20  and  C_21
REMARK    9  A    between atoms: C_21  and  O_23
REMARK   10  A    between atoms: C_25  and  C_26
REMARK                            x       y       z     vdW  Elec       q    Type
REMARK                         _______ _______ _______ _____ _____    ______ ____
ROOT
ATOM      1  C   UNL     1       4.539   5.409  17.905  0.00  0.00    +0.000 A 
ATOM      2  C   UNL     1       3.783   4.357  17.318  0.00  0.00    +0.000 A 
ATOM      3  C   UNL     1       4.311   3.671  16.208  0.00  0.00    +0.000 A 
ATOM      4  C   UNL     1       5.534   4.045  15.613  0.00  0.00    +0.000 A 
ATOM      5  C   UNL     1       6.264   5.057  16.243  0.00  0.00    +0.000 A 
ATOM      6  C   UNL     1       5.778   5.780  17.335  0.00  0.00    +0.000 A 
ENDROOT
BRANCH   2   7
ATOM      7  C   UNL     1       2.390   3.998  17.817  0.00  0.00    +0.000 C 
ATOM      8  F   UNL     1       2.266   3.978  19.167  0.00  0.00    +0.000 F 
ATOM      9  F   UNL     1       1.447   4.888  17.378  0.00  0.00    +0.000 F 
ATOM     10  F   UNL     1       1.951   2.780  17.390  0.00  0.00    +0.000 F 
ENDBRANCH   2   7
BRANCH   6  11
ATOM     11  C   UNL     1       6.672   6.922  17.823  0.00  0.00    +0.000 C 
ATOM     12  F   UNL     1       6.142   8.145  17.891  0.00  0.00    +0.000 F 
ATOM     13  F   UNL     1       7.194   6.630  19.060  0.00  0.00    +0.000 F 
ATOM     14  F   UNL     1       7.758   7.127  17.011  0.00  0.00    +0.000 F 
ENDBRANCH   6  11
BRANCH   1  15
ATOM     15  O   UNL     1       3.975   6.059  18.980  0.00  0.00    +0.000 OA
BRANCH  15  22
ATOM     16  C   UNL     1       0.614   9.248  20.774  0.00  0.00    +0.000 A 
ATOM     17  C   UNL     1      -0.051  10.228  20.059  0.00  0.00    +0.000 A 
ATOM     18  N   UNL     1       0.418  10.227  18.779  0.00  0.00    +0.000 N 
ATOM     19  C   UNL     1       1.336   9.191  18.606  0.00  0.00    +0.000 A 
ATOM     20  C   UNL     1       2.007   8.829  17.458  0.00  0.00    +0.000 A 
ATOM     21  C   UNL     1       2.934   7.790  17.582  0.00  0.00    +0.000 A 
ATOM     22  C   UNL     1       3.144   7.147  18.803  0.00  0.00    +0.000 A 
ATOM     23  C   UNL     1       2.416   7.533  19.948  0.00  0.00    +0.000 A 
ATOM     24  C   UNL     1       1.488   8.587  19.847  0.00  0.00    +0.000 A 
ATOM     25  H   UNL     1       0.125  10.858  18.047  0.00  0.00    +0.000 HD
BRANCH  16  27
ATOM     26  C   UNL     1       1.711   9.186  23.036  0.00  0.00    +0.000 C 
ATOM     27  C   UNL     1       0.429   8.935  22.236  0.00  0.00    +0.000 C 
ATOM     28  C   UNL     1      -0.733   9.741  22.820  0.00  0.00    +0.000 C 
ENDBRANCH  16  27
ENDBRANCH  15  22
ENDBRANCH   1  15
BRANCH   4  29
ATOM     29  C   UNL     1       6.030   3.369  14.351  0.00  0.00    +0.000 C 
BRANCH  29  30
ATOM     30  C   UNL     1       6.717   4.209  13.302  0.00  0.00    +0.000 C 
ATOM     31  O   UNL     1       7.399   5.243  13.493  0.00  0.00    +0.000 OA
BRANCH  30  32
ATOM     32  O   UNL     1       6.532   3.751  12.040  0.00  0.00    +0.000 OA
ATOM     33  H   UNL     1       7.283   3.221  11.689  0.00  0.00    +0.000 HD
ENDBRANCH  30  32
ENDBRANCH  29  30
ENDBRANCH   4  29
TORSDOF 8
ENDMDL
MODEL 2
REMARK VINA RESULT:      -7.3      4.807      9.489
REMARK  Name = 
REMARK  10 active torsions:
REMARK  status: ('A' for Active; 'I' for Inactive)
REMARK    1  A    between atoms: C_1  and  C_2
REMARK    2  A    between atoms: C_2  and  C_3
REMARK    3  A    between atoms: C_2  and  C_4
REMARK    4  A    between atoms: C_10  and  O_11
REMARK    5  A    between atoms: O_11  and  C_12
REMARK    6  A    between atoms: C_13  and  C_14
REMARK    7  A    between atoms: C_19  and  C_20
REMARK    8  A    between atoms: C_20  and  C_21
REMARK    9  A    between atoms: C_21  and  O_23
REMARK   10  A    between atoms: C_25  and  C_26
REMARK                            x       y       z     vdW  Elec       q    Type
REMARK                         _______ _______ _______ _____ _____    ______ ____
ROOT
ATOM      1  C   UNL     1      -0.301  11.174  18.919  0.00  0.00    +0.000 A 
ATOM      2  C   UNL     1      -0.090  12.175  19.908  0.00  0.00    +0.000 A 
ATOM      3  C   UNL     1      -1.199  12.878  20.417  0.00  0.00    +0.000 A 
ATOM      4  C   UNL     1      -2.504  12.673  19.923  0.00  0.00    +0.000 A 
ATOM      5  C   UNL     1      -2.673  11.655  18.981  0.00  0.00    +0.000 A 
ATOM      6  C   UNL     1      -1.606  10.940  18.430  0.00  0.00    +0.000 A 
ENDROOT
BRANCH   2   7
ATOM      7  C   UNL     1       1.307  12.552  20.380  0.00  0.00    +0.000 C 
ATOM      8  F   UNL     1       1.382  13.749  21.012  0.00  0.00    +0.000 F 
ATOM      9  F   UNL     1       1.809  11.639  21.267  0.00  0.00    +0.000 F 
ATOM     10  F   UNL     1       2.228  12.610  19.376  0.00  0.00    +0.000 F 
ENDBRANCH   2   7
BRANCH   6  11
ATOM     11  C   UNL     1      -1.976   9.938  17.335  0.00  0.00    +0.000 C 
ATOM     12  F   UNL     1      -1.044   9.066  16.945  0.00  0.00    +0.000 F 
ATOM     13  F   UNL     1      -3.089   9.218  17.696  0.00  0.00    +0.000 F 
ATOM     14  F   UNL     1      -2.308  10.547  16.151  0.00  0.00    +0.000 F 
ENDBRANCH   6  11
BRANCH   1  15
ATOM     15  O   UNL     1       0.815  10.524  18.442  0.00  0.00    +0.000 OA
BRANCH  15  22
ATOM     16  C   UNL     1       3.610   6.419  18.294  0.00  0.00    +0.000 A 
ATOM     17  C   UNL     1       3.665   5.428  19.258  0.00  0.00    +0.000 A 
ATOM     18  N   UNL     1       2.871   5.793  20.303  0.00  0.00    +0.000 N 
ATOM     19  C   UNL     1       2.211   6.987  20.010  0.00  0.00    +0.000 A 
ATOM     20  C   UNL     1       1.297   7.669  20.784  0.00  0.00    +0.000 A 
ATOM     21  C   UNL     1       0.844   8.890  20.278  0.00  0.00    +0.000 A 
ATOM     22  C   UNL     1       1.285   9.373  19.044  0.00  0.00    +0.000 A 
ATOM     23  C   UNL     1       2.202   8.629  18.272  0.00  0.00    +0.000 A 
ATOM     24  C   UNL     1       2.681   7.404  18.772  0.00  0.00    +0.000 A 
ATOM     25  H   UNL     1       2.743   5.266  21.156  0.00  0.00    +0.000 HD
BRANCH  16  27
ATOM     26  C   UNL     1       5.726   7.134  17.136  0.00  0.00    +0.000 C 
ATOM     27  C   UNL     1       4.369   6.435  16.993  0.00  0.00    +0.000 C 
ATOM     28  C   UNL     1       4.553   5.015  16.454  0.00  0.00    +0.000 C 
ENDBRANCH  16  27
ENDBRANCH  15  22
ENDBRANCH   1  15
BRANCH   4  29
ATOM     29  C   UNL     1      -3.666  13.518  20.404  0.00  0.00    +0.000 C 
BRANCH  29  30
ATOM     30  C   UNL     1      -4.952  12.829  20.788  0.00  0.00    +0.000 C 
ATOM     31  O   UNL     1      -5.229  12.316  21.898  0.00  0.00    +0.000 OA
BRANCH  30  32
ATOM     32  O   UNL     1      -5.859  12.785  19.783  0.00  0.00    +0.000 OA
ATOM     33  H   UNL     1      -6.793  12.881  20.078  0.00  0.00    +0.000 HD
ENDBRANCH  30  32
ENDBRANCH  29  30
ENDBRANCH   4  29
TORSDOF 8
ENDMDL
MODEL 3
REMARK VINA RESULT:      -7.1      0.455      3.290
REMARK  Name = 
REMARK  10 active torsions:
REMARK  status: ('A' for Active; 'I' for Inactive)
REMARK    1  A    between atoms: C_1  and  C_2
REMARK    2  A    between atoms: C_2  and  C_3
REMARK    3  A    between atoms: C_2  and  C_4
REMARK    4  A    between atoms: C_10  and  O_11
REMARK    5  A    between atoms: O_11  and  C_12
REMARK    6  A    between atoms: C_13  and  C_14
REMARK    7  A    between atoms: C_19  and  C_20
REMARK    8  A    between atoms: C_20  and  C_21
REMARK    9  A    between atoms: C_21  and  O_23
REMARK   10  A    between atoms: C_25  and  C_26
REMARK                            x       y       z     vdW  Elec       q    Type
REMARK                         _______ _______ _______ _____ _____    ______ ____
ROOT
ATOM      1  C   UNL     1       4.586   5.531  17.588  0.00  0.00    +0.000 A 
ATOM      2  C   UNL     1       5.852   5.864  17.030  0.00  0.00    +0.000 A 
ATOM      3  C   UNL     1       6.315   5.148  15.910  0.00  0.00    +0.000 A 
ATOM      4  C   UNL     1       5.598   4.060  15.371  0.00  0.00    +0.000 A 
ATOM      5  C   UNL     1       4.343   3.791  15.922  0.00  0.00    +0.000 A 
ATOM      6  C   UNL     1       3.844   4.459  17.043  0.00  0.00    +0.000 A 
ENDROOT
BRANCH   2   7
ATOM      7  C   UNL     1       6.746   6.927  17.653  0.00  0.00    +0.000 C 
ATOM      8  F   UNL     1       7.904   7.149  16.982  0.00  0.00    +0.000 F 
ATOM      9  F   UNL     1       6.123   8.144  17.716  0.00  0.00    +0.000 F 
ATOM     10  F   UNL     1       7.113   6.652  18.936  0.00  0.00    +0.000 F 
ENDBRANCH   2   7
BRANCH   6  11
ATOM     11  C   UNL     1       2.499   3.955  17.570  0.00  0.00    +0.000 C 
ATOM     12  F   UNL     1       1.415   4.695  17.326  0.00  0.00    +0.000 F 
ATOM     13  F   UNL     1       2.244   2.687  17.106  0.00  0.00    +0.000 F 
ATOM     14  F   UNL     1       2.471   3.852  18.937  0.00  0.00    +0.000 F 
ENDBRANCH   6  11
BRANCH   1  15
ATOM     15  O   UNL     1       4.182   6.251  18.690  0.00  0.00    +0.000 OA
BRANCH  15  22
ATOM     16  C   UNL     1       0.666   9.117  20.718  0.00  0.00    +0.000 A 
ATOM     17  C   UNL     1      -0.110  10.054  20.059  0.00  0.00    +0.000 A 
ATOM     18  N   UNL     1       0.296  10.119  18.760  0.00  0.00    +0.000 N 
ATOM     19  C   UNL     1       1.285   9.165  18.518  0.00  0.00    +0.000 A 
ATOM     20  C   UNL     1       1.926   8.884  17.331  0.00  0.00    +0.000 A 
ATOM     21  C   UNL     1       2.938   7.921  17.386  0.00  0.00    +0.000 A 
ATOM     22  C   UNL     1       3.258   7.271  18.580  0.00  0.00    +0.000 A 
ATOM     23  C   UNL     1       2.558   7.572  19.766  0.00  0.00    +0.000 A 
ATOM     24  C   UNL     1       1.545   8.549  19.734  0.00  0.00    +0.000 A 
ATOM     25  H   UNL     1      -0.082  10.739  18.058  0.00  0.00    +0.000 HD
BRANCH  16  27
ATOM     26  C   UNL     1       1.848   9.155  22.937  0.00  0.00    +0.000 C 
ATOM     27  C   UNL     1       0.578   8.759  22.178  0.00  0.00    +0.000 C 
ATOM     28  C   UNL     1      -0.652   9.403  22.821  0.00  0.00    +0.000 C 
ENDBRANCH  16  27
ENDBRANCH  15  22
ENDBRANCH   1  15
BRANCH   4  29
ATOM     29  C   UNL     1       6.167   3.231  14.237  0.00  0.00    +0.000 C 
BRANCH  29  30
ATOM     30  C   UNL     1       5.913   3.675  12.818  0.00  0.00    +0.000 C 
ATOM     31  O   UNL     1       4.843   3.564  12.174  0.00  0.00    +0.000 OA
BRANCH  30  32
ATOM     32  O   UNL     1       6.996   4.236  12.228  0.00  0.00    +0.000 OA
ATOM     33  H   UNL     1       7.248   5.112  12.598  0.00  0.00    +0.000 HD
ENDBRANCH  30  32
ENDBRANCH  29  30
ENDBRANCH   4  29
TORSDOF 8
ENDMDL
MODEL 4
REMARK VINA RESULT:      -7.1      7.343      9.543
REMARK  Name = 
REMARK  10 active torsions:
REMARK  status: ('A' for Active; 'I' for Inactive)
REMARK    1  A    between atoms: C_1  and  C_2
REMARK    2  A    between atoms: C_2  and  C_3
REMARK    3  A    between atoms: C_2  and  C_4
REMARK    4  A    between atoms: C_10  and  O_11
REMARK    5  A    between atoms: O_11  and  C_12
REMARK    6  A    between atoms: C_13  and  C_14
REMARK    7  A    between atoms: C_19  and  C_20
REMARK    8  A    between atoms: C_20  and  C_21
REMARK    9  A    between atoms: C_21  and  O_23
REMARK   10  A    between atoms: C_25  and  C_26
REMARK                            x       y       z     vdW  Elec       q    Type
REMARK                         _______ _______ _______ _____ _____    ______ ____
ROOT
ATOM      1  C   UNL     1      -0.507  12.106  21.441  0.00  0.00    +0.000 A 
ATOM      2  C   UNL     1      -0.566  10.686  21.371  0.00  0.00    +0.000 A 
ATOM      3  C   UNL     1      -0.667  10.067  20.111  0.00  0.00    +0.000 A 
ATOM      4  C   UNL     1      -0.788  10.813  18.920  0.00  0.00    +0.000 A 
ATOM      5  C   UNL     1      -0.686  12.202  19.028  0.00  0.00    +0.000 A 
ATOM      6  C   UNL     1      -0.603  12.867  20.254  0.00  0.00    +0.000 A 
ENDROOT
BRANCH   2   7
ATOM      7  C   UNL     1      -0.590   9.824  22.625  0.00  0.00    +0.000 C 
ATOM      8  F   UNL     1      -0.881   8.518  22.403  0.00  0.00    +0.000 F 
ATOM      9  F   UNL     1       0.618   9.824  23.267  0.00  0.00    +0.000 F 
ATOM     10  F   UNL     1      -1.486  10.244  23.562  0.00  0.00    +0.000 F 
ENDBRANCH   2   7
BRANCH   6  11
ATOM     11  C   UNL     1      -0.608  14.395  20.179  0.00  0.00    +0.000 C 
ATOM     12  F   UNL     1      -1.728  15.034  20.526  0.00  0.00    +0.000 F 
ATOM     13  F   UNL     1       0.414  14.918  20.933  0.00  0.00    +0.000 F 
ATOM     14  F   UNL     1      -0.395  14.863  18.908  0.00  0.00    +0.000 F 
ENDBRANCH   6  11
BRANCH   1  15
ATOM     15  O   UNL     1      -0.422  12.666  22.696  0.00  0.00    +0.000 OA
BRANCH  15  22
ATOM     16  C   UNL     1      -5.289  13.612  23.018  0.00  0.00    +0.000 A 
ATOM     17  C   UNL     1      -5.880  14.646  23.723  0.00  0.00    +0.000 A 
ATOM     18  N   UNL     1      -4.906  15.335  24.383  0.00  0.00    +0.000 N 
ATOM     19  C   UNL     1      -3.650  14.822  24.055  0.00  0.00    +0.000 A 
ATOM     20  C   UNL     1      -2.414  15.260  24.478  0.00  0.00    +0.000 A 
ATOM     21  C   UNL     1      -1.312  14.512  24.052  0.00  0.00    +0.000 A 
ATOM     22  C   UNL     1      -1.467  13.397  23.226  0.00  0.00    +0.000 A 
ATOM     23  C   UNL     1      -2.750  13.000  22.795  0.00  0.00    +0.000 A 
ATOM     24  C   UNL     1      -3.873  13.731  23.225  0.00  0.00    +0.000 A 
ATOM     25  H   UNL     1      -5.057  16.124  24.994  0.00  0.00    +0.000 HD
BRANCH  16  27
ATOM     26  C   UNL     1      -7.450  12.379  22.652  0.00  0.00    +0.000 C 
ATOM     27  C   UNL     1      -6.006  12.582  22.184  0.00  0.00    +0.000 C 
ATOM     28  C   UNL     1      -5.972  12.965  20.703  0.00  0.00    +0.000 C 
ENDBRANCH  16  27
ENDBRANCH  15  22
ENDBRANCH   1  15
BRANCH   4  29
ATOM     29  C   UNL     1      -1.009  10.129  17.586  0.00  0.00    +0.000 C 
BRANCH  29  30
ATOM     30  C   UNL     1      -2.327  10.331  16.879  0.00  0.00    +0.000 C 
ATOM     31  O   UNL     1      -3.386   9.683  17.061  0.00  0.00    +0.000 OA
BRANCH  30  32
ATOM     32  O   UNL     1      -2.297  11.324  15.959  0.00  0.00    +0.000 OA
ATOM     33  H   UNL     1      -2.905  12.073  16.154  0.00  0.00    +0.000 HD
ENDBRANCH  30  32
ENDBRANCH  29  30
ENDBRANCH   4  29
TORSDOF 8
ENDMDL
MODEL 5
REMARK VINA RESULT:      -7.1      5.372      8.164
REMARK  Name = 
REMARK  10 active torsions:
REMARK  status: ('A' for Active; 'I' for Inactive)
REMARK    1  A    between atoms: C_1  and  C_2
REMARK    2  A    between atoms: C_2  and  C_3
REMARK    3  A    between atoms: C_2  and  C_4
REMARK    4  A    between atoms: C_10  and  O_11
REMARK    5  A    between atoms: O_11  and  C_12
REMARK    6  A    between atoms: C_13  and  C_14
REMARK    7  A    between atoms: C_19  and  C_20
REMARK    8  A    between atoms: C_20  and  C_21
REMARK    9  A    between atoms: C_21  and  O_23
REMARK   10  A    between atoms: C_25  and  C_26
REMARK                            x       y       z     vdW  Elec       q    Type
REMARK                         _______ _______ _______ _____ _____    ______ ____
ROOT
ATOM      1  C   UNL     1      -0.850  11.609  18.618  0.00  0.00    +0.000 A 
ATOM      2  C   UNL     1      -1.137  10.437  17.865  0.00  0.00    +0.000 A 
ATOM      3  C   UNL     1      -0.132   9.465  17.702  0.00  0.00    +0.000 A 
ATOM      4  C   UNL     1       1.175   9.652  18.199  0.00  0.00    +0.000 A 
ATOM      5  C   UNL     1       1.404  10.797  18.966  0.00  0.00    +0.000 A 
ATOM      6  C   UNL     1       0.448  11.800  19.144  0.00  0.00    +0.000 A 
ENDROOT
BRANCH   2   7
ATOM      7  C   UNL     1      -2.479  10.239  17.174  0.00  0.00    +0.000 C 
ATOM      8  F   UNL     1      -3.465   9.781  17.985  0.00  0.00    +0.000 F 
ATOM      9  F   UNL     1      -2.957  11.407  16.645  0.00  0.00    +0.000 F 
ATOM     10  F   UNL     1      -2.434   9.369  16.126  0.00  0.00    +0.000 F 
ENDBRANCH   2   7
BRANCH   6  11
ATOM     11  C   UNL     1       0.916  13.029  19.925  0.00  0.00    +0.000 C 
ATOM     12  F   UNL     1       0.315  14.195  19.676  0.00  0.00    +0.000 F 
ATOM     13  F   UNL     1       0.829  12.803  21.278  0.00  0.00    +0.000 F 
ATOM     14  F   UNL     1       2.234  13.333  19.694  0.00  0.00    +0.000 F 
ENDBRANCH   6  11
BRANCH   1  15
ATOM     15  O   UNL     1      -1.860  12.537  18.738  0.00  0.00    +0.000 OA
BRANCH  15  22
ATOM     16  C   UNL     1      -6.462  12.224  20.585  0.00  0.00    +0.000 A 
ATOM     17  C   UNL     1      -6.827  12.377  21.911  0.00  0.00    +0.000 A 
ATOM     18  N   UNL     1      -5.699  12.562  22.654  0.00  0.00    +0.000 N 
ATOM     19  C   UNL     1      -4.580  12.621  21.822  0.00  0.00    +0.000 A 
ATOM     20  C   UNL     1      -3.265  12.832  22.175  0.00  0.00    +0.000 A 
ATOM     21  C   UNL     1      -2.328  12.769  21.140  0.00  0.00    +0.000 A 
ATOM     22  C   UNL     1      -2.717  12.526  19.821  0.00  0.00    +0.000 A 
ATOM     23  C   UNL     1      -4.078  12.341  19.501  0.00  0.00    +0.000 A 
ATOM     24  C   UNL     1      -5.036  12.387  20.531  0.00  0.00    +0.000 A 
ATOM     25  H   UNL     1      -5.669  12.675  23.657  0.00  0.00    +0.000 HD
BRANCH  16  27
ATOM     26  C   UNL     1      -7.575  13.199  18.552  0.00  0.00    +0.000 C 
ATOM     27  C   UNL     1      -7.394  11.959  19.433  0.00  0.00    +0.000 C 
ATOM     28  C   UNL     1      -6.901  10.776  18.597  0.00  0.00    +0.000 C 
ENDBRANCH  16  27
ENDBRANCH  15  22
ENDBRANCH   1  15
BRANCH   4  29
ATOM     29  C   UNL     1       2.272   8.646  17.916  0.00  0.00    +0.000 C 
BRANCH  29  30
ATOM     30  C   UNL     1       2.372   7.420  18.790  0.00  0.00    +0.000 C 
ATOM     31  O   UNL     1       2.198   7.363  20.031  0.00  0.00    +0.000 OA
BRANCH  30  32
ATOM     32  O   UNL     1       2.696   6.296  18.106  0.00  0.00    +0.000 OA
ATOM     33  H   UNL     1       1.969   5.636  18.047  0.00  0.00    +0.000 HD
ENDBRANCH  30  32
ENDBRANCH  29  30
ENDBRANCH   4  29
TORSDOF 8
ENDMDL
MODEL 6
REMARK VINA RESULT:      -7.1      6.336      8.961
REMARK  Name = 
REMARK  10 active torsions:
REMARK  status: ('A' for Active; 'I' for Inactive)
REMARK    1  A    between atoms: C_1  and  C_2
REMARK    2  A    between atoms: C_2  and  C_3
REMARK    3  A    between atoms: C_2  and  C_4
REMARK    4  A    between atoms: C_10  and  O_11
REMARK    5  A    between atoms: O_11  and  C_12
REMARK    6  A    between atoms: C_13  and  C_14
REMARK    7  A    between atoms: C_19  and  C_20
REMARK    8  A    between atoms: C_20  and  C_21
REMARK    9  A    between atoms: C_21  and  O_23
REMARK   10  A    between atoms: C_25  and  C_26
REMARK                            x       y       z     vdW  Elec       q    Type
REMARK                         _______ _______ _______ _____ _____    ______ ____
ROOT
ATOM      1  C   UNL     1      -0.806  11.542  19.653  0.00  0.00    +0.000 A 
ATOM      2  C   UNL     1      -2.203  11.800  19.580  0.00  0.00    +0.000 A 
ATOM      3  C   UNL     1      -2.961  11.186  18.565  0.00  0.00    +0.000 A 
ATOM      4  C   UNL     1      -2.365  10.382  17.572  0.00  0.00    +0.000 A 
ATOM      5  C   UNL     1      -0.998  10.121  17.702  0.00  0.00    +0.000 A 
ATOM      6  C   UNL     1      -0.198  10.718  18.679  0.00  0.00    +0.000 A 
ENDROOT
BRANCH   2   7
ATOM      7  C   UNL     1      -2.887  12.775  20.529  0.00  0.00    +0.000 C 
ATOM      8  F   UNL     1      -2.576  12.596  21.837  0.00  0.00    +0.000 F 
ATOM      9  F   UNL     1      -2.556  14.073  20.251  0.00  0.00    +0.000 F 
ATOM     10  F   UNL     1      -4.248  12.737  20.468  0.00  0.00    +0.000 F 
ENDBRANCH   2   7
BRANCH   6  11
ATOM     11  C   UNL     1       1.295  10.396  18.599  0.00  0.00    +0.000 C 
ATOM     12  F   UNL     1       2.123  11.362  18.193  0.00  0.00    +0.000 F 
ATOM     13  F   UNL     1       1.756   9.941  19.811  0.00  0.00    +0.000 F 
ATOM     14  F   UNL     1       1.572   9.391  17.707  0.00  0.00    +0.000 F 
ENDBRANCH   6  11
BRANCH   1  15
ATOM     15  O   UNL     1      -0.105  12.176  20.654  0.00  0.00    +0.000 OA
BRANCH  15  22
ATOM     16  C   UNL     1       0.837  16.559  18.514  0.00  0.00    +0.000 A 
ATOM     17  C   UNL     1       2.063  17.197  18.454  0.00  0.00    +0.000 A 
ATOM     18  N   UNL     1       2.974  16.455  19.146  0.00  0.00    +0.000 N 
ATOM     19  C   UNL     1       2.385  15.273  19.598  0.00  0.00    +0.000 A 
ATOM     20  C   UNL     1       2.972  14.243  20.301  0.00  0.00    +0.000 A 
ATOM     21  C   UNL     1       2.127  13.203  20.697  0.00  0.00    +0.000 A 
ATOM     22  C   UNL     1       0.768  13.208  20.374  0.00  0.00    +0.000 A 
ATOM     23  C   UNL     1       0.215  14.271  19.631  0.00  0.00    +0.000 A 
ATOM     24  C   UNL     1       1.047  15.335  19.235  0.00  0.00    +0.000 A 
ATOM     25  H   UNL     1       3.944  16.698  19.286  0.00  0.00    +0.000 HD
BRANCH  16  27
ATOM     26  C   UNL     1      -1.454  17.477  18.997  0.00  0.00    +0.000 C 
ATOM     27  C   UNL     1      -0.453  17.057  17.916  0.00  0.00    +0.000 C 
ATOM     28  C   UNL     1      -0.192  18.214  16.950  0.00  0.00    +0.000 C 
ENDBRANCH  16  27
ENDBRANCH  15  22
ENDBRANCH   1  15
BRANCH   4  29
ATOM     29  C   UNL     1      -3.180   9.823  16.423  0.00  0.00    +0.000 C 
BRANCH  29  30
ATOM     30  C   UNL     1      -3.120  10.520  15.087  0.00  0.00    +0.000 C 
ATOM     31  O   UNL     1      -2.724  10.034  14.001  0.00  0.00    +0.000 OA
BRANCH  30  32
ATOM     32  O   UNL     1      -3.543  11.806  15.131  0.00  0.00    +0.000 OA
ATOM     33  H   UNL     1      -2.896  12.430  15.529  0.00  0.00    +0.000 HD
ENDBRANCH  30  32
ENDBRANCH  29  30
ENDBRANCH   4  29
TORSDOF 8
ENDMDL
MODEL 7
REMARK VINA RESULT:      -7.0      0.389      1.142
REMARK  Name = 
REMARK  10 active torsions:
REMARK  status: ('A' for Active; 'I' for Inactive)
REMARK    1  A    between atoms: C_1  and  C_2
REMARK    2  A    between atoms: C_2  and  C_3
REMARK    3  A    between atoms: C_2  and  C_4
REMARK    4  A    between atoms: C_10  and  O_11
REMARK    5  A    between atoms: O_11  and  C_12
REMARK    6  A    between atoms: C_13  and  C_14
REMARK    7  A    between atoms: C_19  and  C_20
REMARK    8  A    between atoms: C_20  and  C_21
REMARK    9  A    between atoms: C_21  and  O_23
REMARK   10  A    between atoms: C_25  and  C_26
REMARK                            x       y       z     vdW  Elec       q    Type
REMARK                         _______ _______ _______ _____ _____    ______ ____
ROOT
ATOM      1  C   UNL     1       4.569   5.283  17.938  0.00  0.00    +0.000 A 
ATOM      2  C   UNL     1       3.777   4.237  17.388  0.00  0.00    +0.000 A 
ATOM      3  C   UNL     1       4.278   3.500  16.299  0.00  0.00    +0.000 A 
ATOM      4  C   UNL     1       5.509   3.815  15.687  0.00  0.00    +0.000 A 
ATOM      5  C   UNL     1       6.273   4.823  16.282  0.00  0.00    +0.000 A 
ATOM      6  C   UNL     1       5.816   5.596  17.351  0.00  0.00    +0.000 A 
ENDROOT
BRANCH   2   7
ATOM      7  C   UNL     1       2.375   3.940  17.903  0.00  0.00    +0.000 C 
ATOM      8  F   UNL     1       1.894   2.723  17.547  0.00  0.00    +0.000 F 
ATOM      9  F   UNL     1       2.318   3.969  19.270  0.00  0.00    +0.000 F 
ATOM     10  F   UNL     1       1.437   4.839  17.491  0.00  0.00    +0.000 F 
ENDBRANCH   2   7
BRANCH   6  11
ATOM     11  C   UNL     1       6.747   6.724  17.799  0.00  0.00    +0.000 C 
ATOM     12  F   UNL     1       7.251   6.666  19.034  0.00  0.00    +0.000 F 
ATOM     13  F   UNL     1       7.804   6.850  16.929  0.00  0.00    +0.000 F 
ATOM     14  F   UNL     1       6.132   7.950  17.800  0.00  0.00    +0.000 F 
ENDBRANCH   6  11
BRANCH   1  15
ATOM     15  O   UNL     1       4.030   5.985  18.993  0.00  0.00    +0.000 OA
BRANCH  15  22
ATOM     16  C   UNL     1       0.644   9.212  20.668  0.00  0.00    +0.000 A 
ATOM     17  C   UNL     1      -0.000  10.186  19.926  0.00  0.00    +0.000 A 
ATOM     18  N   UNL     1       0.498  10.167  18.657  0.00  0.00    +0.000 N 
ATOM     19  C   UNL     1       1.415   9.124  18.518  0.00  0.00    +0.000 A 
ATOM     20  C   UNL     1       2.110   8.745  17.390  0.00  0.00    +0.000 A 
ATOM     21  C   UNL     1       3.029   7.703  17.549  0.00  0.00    +0.000 A 
ATOM     22  C   UNL     1       3.208   7.075  18.783  0.00  0.00    +0.000 A 
ATOM     23  C   UNL     1       2.456   7.479  19.906  0.00  0.00    +0.000 A 
ATOM     24  C   UNL     1       1.536   8.535  19.770  0.00  0.00    +0.000 A 
ATOM     25  H   UNL     1       0.226  10.789  17.910  0.00  0.00    +0.000 HD
BRANCH  16  27
ATOM     26  C   UNL     1       1.691   9.169  22.955  0.00  0.00    +0.000 C 
ATOM     27  C   UNL     1       0.425   8.919  22.130  0.00  0.00    +0.000 C 
ATOM     28  C   UNL     1      -0.742   9.743  22.679  0.00  0.00    +0.000 C 
ENDBRANCH  16  27
ENDBRANCH  15  22
ENDBRANCH   1  15
BRANCH   4  29
ATOM     29  C   UNL     1       5.978   3.083  14.447  0.00  0.00    +0.000 C 
BRANCH  29  30
ATOM     30  C   UNL     1       5.925   3.800  13.120  0.00  0.00    +0.000 C 
ATOM     31  O   UNL     1       5.051   3.673  12.230  0.00  0.00    +0.000 OA
BRANCH  30  32
ATOM     32  O   UNL     1       6.962   4.649  12.925  0.00  0.00    +0.000 OA
ATOM     33  H   UNL     1       6.707   5.598  12.901  0.00  0.00    +0.000 HD
ENDBRANCH  30  32
ENDBRANCH  29  30
ENDBRANCH   4  29
TORSDOF 8
ENDMDL
MODEL 8
REMARK VINA RESULT:      -7.0      4.766      9.134
REMARK  Name = 
REMARK  10 active torsions:
REMARK  status: ('A' for Active; 'I' for Inactive)
REMARK    1  A    between atoms: C_1  and  C_2
REMARK    2  A    between atoms: C_2  and  C_3
REMARK    3  A    between atoms: C_2  and  C_4
REMARK    4  A    between atoms: C_10  and  O_11
REMARK    5  A    between atoms: O_11  and  C_12
REMARK    6  A    between atoms: C_13  and  C_14
REMARK    7  A    between atoms: C_19  and  C_20
REMARK    8  A    between atoms: C_20  and  C_21
REMARK    9  A    between atoms: C_21  and  O_23
REMARK   10  A    between atoms: C_25  and  C_26
REMARK                            x       y       z     vdW  Elec       q    Type
REMARK                         _______ _______ _______ _____ _____    ______ ____
ROOT
ATOM      1  C   UNL     1      -0.298  11.322  18.880  0.00  0.00    +0.000 A 
ATOM      2  C   UNL     1      -1.634  11.108  18.440  0.00  0.00    +0.000 A 
ATOM      3  C   UNL     1      -2.666  11.902  18.976  0.00  0.00    +0.000 A 
ATOM      4  C   UNL     1      -2.427  12.852  19.990  0.00  0.00    +0.000 A 
ATOM      5  C   UNL     1      -1.097  13.059  20.366  0.00  0.00    +0.000 A 
ATOM      6  C   UNL     1      -0.039  12.287  19.879  0.00  0.00    +0.000 A 
ENDROOT
BRANCH   2   7
ATOM      7  C   UNL     1      -1.985  10.000  17.457  0.00  0.00    +0.000 C 
ATOM      8  F   UNL     1      -2.993   9.189  17.863  0.00  0.00    +0.000 F 
ATOM      9  F   UNL     1      -2.383  10.499  16.247  0.00  0.00    +0.000 F 
ATOM     10  F   UNL     1      -0.941   9.171  17.170  0.00  0.00    +0.000 F 
ENDBRANCH   2   7
BRANCH   6  11
ATOM     11  C   UNL     1       1.333  12.588  20.486  0.00  0.00    +0.000 C 
ATOM     12  F   UNL     1       2.375  12.686  19.658  0.00  0.00    +0.000 F 
ATOM     13  F   UNL     1       1.288  13.743  21.230  0.00  0.00    +0.000 F 
ATOM     14  F   UNL     1       1.751  11.614  21.357  0.00  0.00    +0.000 F 
ENDBRANCH   6  11
BRANCH   1  15
ATOM     15  O   UNL     1       0.674  10.512  18.338  0.00  0.00    +0.000 OA
BRANCH  15  22
ATOM     16  C   UNL     1       3.421   6.374  18.451  0.00  0.00    +0.000 A 
ATOM     17  C   UNL     1       3.491   5.463  19.490  0.00  0.00    +0.000 A 
ATOM     18  N   UNL     1       2.730   5.922  20.523  0.00  0.00    +0.000 N 
ATOM     19  C   UNL     1       2.076   7.097  20.151  0.00  0.00    +0.000 A 
ATOM     20  C   UNL     1       1.191   7.851  20.891  0.00  0.00    +0.000 A 
ATOM     21  C   UNL     1       0.737   9.033  20.299  0.00  0.00    +0.000 A 
ATOM     22  C   UNL     1       1.148   9.408  19.018  0.00  0.00    +0.000 A 
ATOM     23  C   UNL     1       2.036   8.593  18.286  0.00  0.00    +0.000 A 
ATOM     24  C   UNL     1       2.515   7.406  18.871  0.00  0.00    +0.000 A 
ATOM     25  H   UNL     1       2.621   5.468  21.418  0.00  0.00    +0.000 HD
BRANCH  16  27
ATOM     26  C   UNL     1       5.475   7.031  17.158  0.00  0.00    +0.000 C 
ATOM     27  C   UNL     1       4.144   6.275  17.133  0.00  0.00    +0.000 C 
ATOM     28  C   UNL     1       4.367   4.811  16.745  0.00  0.00    +0.000 C 
ENDBRANCH  16  27
ENDBRANCH  15  22
ENDBRANCH   1  15
BRANCH   4  29
ATOM     29  C   UNL     1      -3.567  13.615  20.633  0.00  0.00    +0.000 C 
BRANCH  29  30
ATOM     30  C   UNL     1      -3.888  13.352  22.084  0.00  0.00    +0.000 C 
ATOM     31  O   UNL     1      -3.987  12.233  22.642  0.00  0.00    +0.000 OA
BRANCH  30  32
ATOM     32  O   UNL     1      -4.085  14.482  22.805  0.00  0.00    +0.000 OA
ATOM     33  H   UNL     1      -3.305  14.764  23.334  0.00  0.00    +0.000 HD
ENDBRANCH  30  32
ENDBRANCH  29  30
ENDBRANCH   4  29
TORSDOF 8
ENDMDL
MODEL 9
REMARK VINA RESULT:      -7.0      4.803      9.036
REMARK  Name = 
REMARK  10 active torsions:
REMARK  status: ('A' for Active; 'I' for Inactive)
REMARK    1  A    between atoms: C_1  and  C_2
REMARK    2  A    between atoms: C_2  and  C_3
REMARK    3  A    between atoms: C_2  and  C_4
REMARK    4  A    between atoms: C_10  and  O_11
REMARK    5  A    between atoms: O_11  and  C_12
REMARK    6  A    between atoms: C_13  and  C_14
REMARK    7  A    between atoms: C_19  and  C_20
REMARK    8  A    between atoms: C_20  and  C_21
REMARK    9  A    between atoms: C_21  and  O_23
REMARK   10  A    between atoms: C_25  and  C_26
REMARK                            x       y       z     vdW  Elec       q    Type
REMARK                         _______ _______ _______ _____ _____    ______ ____
ROOT
ATOM      1  C   UNL     1      -0.234  11.285  18.779  0.00  0.00    +0.000 A 
ATOM      2  C   UNL     1      -1.567  11.063  18.332  0.00  0.00    +0.000 A 
ATOM      3  C   UNL     1      -2.611  11.825  18.890  0.00  0.00    +0.000 A 
ATOM      4  C   UNL     1      -2.387  12.748  19.933  0.00  0.00    +0.000 A 
ATOM      5  C   UNL     1      -1.061  12.965  20.315  0.00  0.00    +0.000 A 
ATOM      6  C   UNL     1       0.010  12.225  19.806  0.00  0.00    +0.000 A 
ENDROOT
BRANCH   2   7
ATOM      7  C   UNL     1      -1.900   9.979  17.317  0.00  0.00    +0.000 C 
ATOM      8  F   UNL     1      -2.142  10.439  16.064  0.00  0.00    +0.000 F 
ATOM      9  F   UNL     1      -0.881   9.076  17.184  0.00  0.00    +0.000 F 
ATOM     10  F   UNL     1      -2.991   9.233  17.650  0.00  0.00    +0.000 F 
ENDBRANCH   2   7
BRANCH   6  11
ATOM     11  C   UNL     1       1.377  12.529  20.422  0.00  0.00    +0.000 C 
ATOM     12  F   UNL     1       2.428  12.604  19.604  0.00  0.00    +0.000 F 
ATOM     13  F   UNL     1       1.331  13.699  21.142  0.00  0.00    +0.000 F 
ATOM     14  F   UNL     1       1.779  11.570  21.317  0.00  0.00    +0.000 F 
ENDBRANCH   6  11
BRANCH   1  15
ATOM     15  O   UNL     1       0.751  10.507  18.214  0.00  0.00    +0.000 OA
BRANCH  15  22
ATOM     16  C   UNL     1       3.651   6.473  18.253  0.00  0.00    +0.000 A 
ATOM     17  C   UNL     1       3.737   5.534  19.265  0.00  0.00    +0.000 A 
ATOM     18  N   UNL     1       2.939   5.931  20.297  0.00  0.00    +0.000 N 
ATOM     19  C   UNL     1       2.248   7.092  19.948  0.00  0.00    +0.000 A 
ATOM     20  C   UNL     1       1.321   7.788  20.693  0.00  0.00    +0.000 A 
ATOM     21  C   UNL     1       0.833   8.970  20.129  0.00  0.00    +0.000 A 
ATOM     22  C   UNL     1       1.254   9.401  18.869  0.00  0.00    +0.000 A 
ATOM     23  C   UNL     1       2.186   8.643  18.130  0.00  0.00    +0.000 A 
ATOM     24  C   UNL     1       2.699   7.457  18.687  0.00  0.00    +0.000 A 
ATOM     25  H   UNL     1       2.831   5.445  21.175  0.00  0.00    +0.000 HD
BRANCH  16  27
ATOM     26  C   UNL     1       5.776   7.112  17.068  0.00  0.00    +0.000 C 
ATOM     27  C   UNL     1       4.402   6.444  16.948  0.00  0.00    +0.000 C 
ATOM     28  C   UNL     1       4.548   5.008  16.438  0.00  0.00    +0.000 C 
ENDBRANCH  16  27
ENDBRANCH  15  22
ENDBRANCH   1  15
BRANCH   4  29
ATOM     29  C   UNL     1      -3.539  13.475  20.597  0.00  0.00    +0.000 C 
BRANCH  29  30
ATOM     30  C   UNL     1      -4.941  12.959  20.380  0.00  0.00    +0.000 C 
ATOM     31  O   UNL     1      -5.529  12.073  21.045  0.00  0.00    +0.000 OA
BRANCH  30  32
ATOM     32  O   UNL     1      -5.576  13.548  19.338  0.00  0.00    +0.000 OA
ATOM     33  H   UNL     1      -6.339  13.035  18.989  0.00  0.00    +0.000 HD
ENDBRANCH  30  32
ENDBRANCH  29  30
ENDBRANCH   4  29
TORSDOF 8
ENDMDL
