MODEL 1
REMARK VINA RESULT:      -6.0      0.000      0.000
REMARK  Name = 
REMARK  12 active torsions:
REMARK  status: ('A' for Active; 'I' for Inactive)
REMARK    1  A    between atoms: C_1  and  O_2
REMARK    2  A    between atoms: O_2  and  P_3
REMARK    3  A    between atoms: P_3  and  O_5
REMARK    4  A    between atoms: P_3  and  C_7
REMARK    5  A    between atoms: O_5  and  C_6
REMARK    6  A    between atoms: C_7  and  O_8
REMARK    7  A    between atoms: C_7  and  C_9
REMARK    8  A    between atoms: C_7  and  P_16
REMARK    9  A    between atoms: P_16  and  O_18
REMARK   10  A    between atoms: P_16  and  O_20
REMARK   11  A    between atoms: O_18  and  C_19
REMARK   12  A    between atoms: O_20  and  C_21
REMARK                            x       y       z     vdW  Elec       q    Type
REMARK                         _______ _______ _______ _____ _____    ______ ____
ROOT
ATOM      1  C   UNL     1       4.743   5.335  18.339  0.00  0.00    +0.000 C 
ENDROOT
BRANCH   1   2
ATOM      2  C   UNL     1       3.676   6.457  18.553  0.00  0.00    +0.000 A 
ATOM      3  C   UNL     1       3.471   7.428  17.565  0.00  0.00    +0.000 A 
ATOM      4  C   UNL     1       2.518   8.438  17.728  0.00  0.00    +0.000 A 
ATOM      5  C   UNL     1       1.773   8.493  18.898  0.00  0.00    +0.000 A 
ATOM      6  F   UNL     1       0.863   9.461  19.056  0.00  0.00    +0.000 F 
ATOM      7  C   UNL     1       1.964   7.557  19.900  0.00  0.00    +0.000 A 
ATOM      8  C   UNL     1       2.911   6.540  19.732  0.00  0.00    +0.000 A 
ENDBRANCH   1   2
BRANCH   1   9
ATOM      9  P   UNL     1       5.741   5.683  16.845  0.00  0.00    +0.000 P 
ATOM     10  O   UNL     1       6.034   4.184  16.649  0.00  0.00    +0.000 OA
BRANCH   9  12
ATOM     11  C   UNL     1       7.018   4.888  14.641  0.00  0.00    +0.000 C 
ATOM     12  O   UNL     1       6.685   6.012  15.433  0.00  0.00    +0.000 OA
ENDBRANCH   9  12
BRANCH   9  13
ATOM     13  O   UNL     1       7.044   6.187  17.782  0.00  0.00    +0.000 OA
ATOM     14  C   UNL     1       7.570   7.498  17.527  0.00  0.00    +0.000 C 
ENDBRANCH   9  13
ENDBRANCH   1   9
BRANCH   1  15
ATOM     15  O   UNL     1       5.573   5.330  19.538  0.00  0.00    +0.000 OA
ATOM     16  H   UNL     1       4.927   5.393  20.270  0.00  0.00    +0.000 HD
ENDBRANCH   1  15
BRANCH   1  17
ATOM     17  P   UNL     1       3.893   3.726  18.144  0.00  0.00    +0.000 P 
ATOM     18  O   UNL     1       3.961   3.485  19.665  0.00  0.00    +0.000 OA
BRANCH  17  19
ATOM     19  O   UNL     1       2.465   4.412  17.693  0.00  0.00    +0.000 OA
ATOM     20  C   UNL     1       1.259   3.758  18.031  0.00  0.00    +0.000 C 
ENDBRANCH  17  19
BRANCH  17  21
ATOM     21  O   UNL     1       3.089   2.206  17.960  0.00  0.00    +0.000 OA
ATOM     22  C   UNL     1       3.767   1.114  18.554  0.00  0.00    +0.000 C 
ENDBRANCH  17  21
ENDBRANCH   1  17
TORSDOF 8
ENDMDL
MODEL 2
REMARK VINA RESULT:      -6.0      0.092      1.055
REMARK  Name = 
REMARK  12 active torsions:
REMARK  status: ('A' for Active; 'I' for Inactive)
REMARK    1  A    between atoms: C_1  and  O_2
REMARK    2  A    between atoms: O_2  and  P_3
REMARK    3  A    between atoms: P_3  and  O_5
REMARK    4  A    between atoms: P_3  and  C_7
REMARK    5  A    between atoms: O_5  and  C_6
REMARK    6  A    between atoms: C_7  and  O_8
REMARK    7  A    between atoms: C_7  and  C_9
REMARK    8  A    between atoms: C_7  and  P_16
REMARK    9  A    between atoms: P_16  and  O_18
REMARK   10  A    between atoms: P_16  and  O_20
REMARK   11  A    between atoms: O_18  and  C_19
REMARK   12  A    between atoms: O_20  and  C_21
REMARK                            x       y       z     vdW  Elec       q    Type
REMARK                         _______ _______ _______ _____ _____    ______ ____
ROOT
ATOM      1  C   UNL     1       4.787   5.313  18.261  0.00  0.00    +0.000 C 
ENDROOT
BRANCH   1   2
ATOM      2  C   UNL     1       3.728   6.443  18.479  0.00  0.00    +0.000 A 
ATOM      3  C   UNL     1       2.976   6.481  19.660  0.00  0.00    +0.000 A 
ATOM      4  C   UNL     1       2.027   7.484  19.882  0.00  0.00    +0.000 A 
ATOM      5  C   UNL     1       1.812   8.450  18.909  0.00  0.00    +0.000 A 
ATOM      6  F   UNL     1       0.902   9.408  19.119  0.00  0.00    +0.000 F 
ATOM      7  C   UNL     1       2.528   8.429  17.724  0.00  0.00    +0.000 A 
ATOM      8  C   UNL     1       3.485   7.431  17.506  0.00  0.00    +0.000 A 
ENDBRANCH   1   2
BRANCH   1   9
ATOM      9  P   UNL     1       5.785   5.657  16.767  0.00  0.00    +0.000 P 
ATOM     10  O   UNL     1       6.085   4.158  16.580  0.00  0.00    +0.000 OA
BRANCH   9  12
ATOM     11  C   UNL     1       6.923   4.888  14.479  0.00  0.00    +0.000 C 
ATOM     12  O   UNL     1       6.731   5.982  15.355  0.00  0.00    +0.000 OA
ENDBRANCH   9  12
BRANCH   9  13
ATOM     13  O   UNL     1       7.085   6.172  17.703  0.00  0.00    +0.000 OA
ATOM     14  C   UNL     1       7.537   7.521  17.516  0.00  0.00    +0.000 C 
ENDBRANCH   9  13
ENDBRANCH   1   9
BRANCH   1  15
ATOM     15  O   UNL     1       5.618   5.299  19.459  0.00  0.00    +0.000 OA
ATOM     16  H   UNL     1       5.646   4.355  19.713  0.00  0.00    +0.000 HD
ENDBRANCH   1  15
BRANCH   1  17
ATOM     17  P   UNL     1       3.924   3.711  18.063  0.00  0.00    +0.000 P 
ATOM     18  O   UNL     1       3.977   3.474  19.586  0.00  0.00    +0.000 OA
BRANCH  17  19
ATOM     19  O   UNL     1       2.506   4.408  17.598  0.00  0.00    +0.000 OA
ATOM     20  C   UNL     1       1.291   3.785  17.959  0.00  0.00    +0.000 C 
ENDBRANCH  17  19
BRANCH  17  21
ATOM     21  O   UNL     1       3.109   2.197  17.876  0.00  0.00    +0.000 OA
ATOM     22  C   UNL     1       3.716   1.121  18.567  0.00  0.00    +0.000 C 
ENDBRANCH  17  21
ENDBRANCH   1  17
TORSDOF 8
ENDMDL
MODEL 3
REMARK VINA RESULT:      -6.0      1.566      4.587
REMARK  Name = 
REMARK  12 active torsions:
REMARK  status: ('A' for Active; 'I' for Inactive)
REMARK    1  A    between atoms: C_1  and  O_2
REMARK    2  A    between atoms: O_2  and  P_3
REMARK    3  A    between atoms: P_3  and  O_5
REMARK    4  A    between atoms: P_3  and  C_7
REMARK    5  A    between atoms: O_5  and  C_6
REMARK    6  A    between atoms: C_7  and  O_8
REMARK    7  A    between atoms: C_7  and  C_9
REMARK    8  A    between atoms: C_7  and  P_16
REMARK    9  A    between atoms: P_16  and  O_18
REMARK   10  A    between atoms: P_16  and  O_20
REMARK   11  A    between atoms: O_18  and  C_19
REMARK   12  A    between atoms: O_20  and  C_21
REMARK                            x       y       z     vdW  Elec       q    Type
REMARK                         _______ _______ _______ _____ _____    ______ ____
ROOT
ATOM      1  C   UNL     1       3.715   4.552  18.293  0.00  0.00    +0.000 C 
ENDROOT
BRANCH   1   2
ATOM      2  C   UNL     1       3.100   5.965  18.556  0.00  0.00    +0.000 A 
ATOM      3  C   UNL     1       2.530   6.262  19.800  0.00  0.00    +0.000 A 
ATOM      4  C   UNL     1       1.979   7.519  20.063  0.00  0.00    +0.000 A 
ATOM      5  C   UNL     1       1.979   8.488  19.068  0.00  0.00    +0.000 A 
ATOM      6  F   UNL     1       1.449   9.691  19.317  0.00  0.00    +0.000 F 
ATOM      7  C   UNL     1       2.520   8.219  17.822  0.00  0.00    +0.000 A 
ATOM      8  C   UNL     1       3.081   6.963  17.562  0.00  0.00    +0.000 A 
ENDBRANCH   1   2
BRANCH   1   9
ATOM      9  P   UNL     1       3.130   3.360  19.553  0.00  0.00    +0.000 P 
ATOM     10  O   UNL     1       3.532   2.169  18.662  0.00  0.00    +0.000 OA
BRANCH   9  12
ATOM     11  C   UNL     1       1.951   2.796  21.879  0.00  0.00    +0.000 C 
ATOM     12  O   UNL     1       2.576   2.232  20.742  0.00  0.00    +0.000 OA
ENDBRANCH   9  12
BRANCH   9  13
ATOM     13  O   UNL     1       1.527   3.617  19.111  0.00  0.00    +0.000 OA
ATOM     14  C   UNL     1       0.785   2.483  18.639  0.00  0.00    +0.000 C 
ENDBRANCH   9  13
ENDBRANCH   1   9
BRANCH   1  15
ATOM     15  O   UNL     1       3.283   4.161  16.956  0.00  0.00    +0.000 OA
ATOM     16  H   UNL     1       2.542   3.545  17.121  0.00  0.00    +0.000 HD
ENDBRANCH   1  15
BRANCH   1  17
ATOM     17  P   UNL     1       5.541   4.668  18.366  0.00  0.00    +0.000 P 
ATOM     18  O   UNL     1       5.576   3.672  19.542  0.00  0.00    +0.000 OA
BRANCH  17  19
ATOM     19  O   UNL     1       5.754   3.915  16.916  0.00  0.00    +0.000 OA
ATOM     20  C   UNL     1       6.709   4.435  16.014  0.00  0.00    +0.000 C 
ENDBRANCH  17  19
BRANCH  17  21
ATOM     21  O   UNL     1       7.266   4.777  18.433  0.00  0.00    +0.000 OA
ATOM     22  C   UNL     1       7.750   5.820  19.260  0.00  0.00    +0.000 C 
ENDBRANCH  17  21
ENDBRANCH   1  17
TORSDOF 8
ENDMDL
MODEL 4
REMARK VINA RESULT:      -5.9      1.506      4.436
REMARK  Name = 
REMARK  12 active torsions:
REMARK  status: ('A' for Active; 'I' for Inactive)
REMARK    1  A    between atoms: C_1  and  O_2
REMARK    2  A    between atoms: O_2  and  P_3
REMARK    3  A    between atoms: P_3  and  O_5
REMARK    4  A    between atoms: P_3  and  C_7
REMARK    5  A    between atoms: O_5  and  C_6
REMARK    6  A    between atoms: C_7  and  O_8
REMARK    7  A    between atoms: C_7  and  C_9
REMARK    8  A    between atoms: C_7  and  P_16
REMARK    9  A    between atoms: P_16  and  O_18
REMARK   10  A    between atoms: P_16  and  O_20
REMARK   11  A    between atoms: O_18  and  C_19
REMARK   12  A    between atoms: O_20  and  C_21
REMARK                            x       y       z     vdW  Elec       q    Type
REMARK                         _______ _______ _______ _____ _____    ______ ____
ROOT
ATOM      1  C   UNL     1       3.782   4.611  18.153  0.00  0.00    +0.000 C 
ENDROOT
BRANCH   1   2
ATOM      2  C   UNL     1       3.153   6.013  18.443  0.00  0.00    +0.000 A 
ATOM      3  C   UNL     1       3.176   7.008  17.458  0.00  0.00    +0.000 A 
ATOM      4  C   UNL     1       2.616   8.268  17.689  0.00  0.00    +0.000 A 
ATOM      5  C   UNL     1       2.041   8.546  18.921  0.00  0.00    +0.000 A 
ATOM      6  F   UNL     1       1.507   9.752  19.144  0.00  0.00    +0.000 F 
ATOM      7  C   UNL     1       2.018   7.588  19.920  0.00  0.00    +0.000 A 
ATOM      8  C   UNL     1       2.570   6.323  19.686  0.00  0.00    +0.000 A 
ENDBRANCH   1   2
BRANCH   1   9
ATOM      9  P   UNL     1       3.123   3.365  19.321  0.00  0.00    +0.000 P 
ATOM     10  O   UNL     1       3.604   2.214  18.418  0.00  0.00    +0.000 OA
BRANCH   9  12
ATOM     11  C   UNL     1       2.367   2.612  21.766  0.00  0.00    +0.000 C 
ATOM     12  O   UNL     1       2.498   2.187  20.423  0.00  0.00    +0.000 OA
ENDBRANCH   9  12
BRANCH   9  13
ATOM     13  O   UNL     1       1.552   3.622  18.773  0.00  0.00    +0.000 OA
ATOM     14  C   UNL     1       0.686   2.481  18.702  0.00  0.00    +0.000 C 
ENDBRANCH   9  13
ENDBRANCH   1   9
BRANCH   1  15
ATOM     15  O   UNL     1       3.429   4.283  16.777  0.00  0.00    +0.000 OA
ATOM     16  H   UNL     1       2.552   4.699  16.655  0.00  0.00    +0.000 HD
ENDBRANCH   1  15
BRANCH   1  17
ATOM     17  P   UNL     1       5.600   4.718  18.338  0.00  0.00    +0.000 P 
ATOM     18  O   UNL     1       5.561   3.696  19.492  0.00  0.00    +0.000 OA
BRANCH  17  19
ATOM     19  O   UNL     1       5.898   3.996  16.888  0.00  0.00    +0.000 OA
ATOM     20  C   UNL     1       6.830   4.593  16.009  0.00  0.00    +0.000 C 
ENDBRANCH  17  19
BRANCH  17  21
ATOM     21  O   UNL     1       7.318   4.817  18.512  0.00  0.00    +0.000 OA
ATOM     22  C   UNL     1       7.758   5.890  19.324  0.00  0.00    +0.000 C 
ENDBRANCH  17  21
ENDBRANCH   1  17
TORSDOF 8
ENDMDL
MODEL 5
REMARK VINA RESULT:      -5.9      0.852      1.860
REMARK  Name = 
REMARK  12 active torsions:
REMARK  status: ('A' for Active; 'I' for Inactive)
REMARK    1  A    between atoms: C_1  and  O_2
REMARK    2  A    between atoms: O_2  and  P_3
REMARK    3  A    between atoms: P_3  and  O_5
REMARK    4  A    between atoms: P_3  and  C_7
REMARK    5  A    between atoms: O_5  and  C_6
REMARK    6  A    between atoms: C_7  and  O_8
REMARK    7  A    between atoms: C_7  and  C_9
REMARK    8  A    between atoms: C_7  and  P_16
REMARK    9  A    between atoms: P_16  and  O_18
REMARK   10  A    between atoms: P_16  and  O_20
REMARK   11  A    between atoms: O_18  and  C_19
REMARK   12  A    between atoms: O_20  and  C_21
REMARK                            x       y       z     vdW  Elec       q    Type
REMARK                         _______ _______ _______ _____ _____    ______ ____
ROOT
ATOM      1  C   UNL     1       4.331   5.440  18.459  0.00  0.00    +0.000 C 
ENDROOT
BRANCH   1   2
ATOM      2  C   UNL     1       3.349   6.642  18.642  0.00  0.00    +0.000 A 
ATOM      3  C   UNL     1       2.629   6.783  19.835  0.00  0.00    +0.000 A 
ATOM      4  C   UNL     1       1.748   7.852  20.027  0.00  0.00    +0.000 A 
ATOM      5  C   UNL     1       1.570   8.782  19.013  0.00  0.00    +0.000 A 
ATOM      6  F   UNL     1       0.726   9.804  19.195  0.00  0.00    +0.000 F 
ATOM      7  C   UNL     1       2.255   8.661  17.816  0.00  0.00    +0.000 A 
ATOM      8  C   UNL     1       3.144   7.596  17.627  0.00  0.00    +0.000 A 
ENDBRANCH   1   2
BRANCH   1   9
ATOM      9  P   UNL     1       5.223   5.585  16.867  0.00  0.00    +0.000 P 
ATOM     10  O   UNL     1       6.287   4.572  17.332  0.00  0.00    +0.000 OA
BRANCH   9  12
ATOM     11  C   UNL     1       6.624   4.524  14.859  0.00  0.00    +0.000 C 
ATOM     12  O   UNL     1       6.068   5.723  15.364  0.00  0.00    +0.000 OA
ENDBRANCH   9  12
BRANCH   9  13
ATOM     13  O   UNL     1       5.897   7.056  17.332  0.00  0.00    +0.000 OA
ATOM     14  C   UNL     1       7.328   7.132  17.396  0.00  0.00    +0.000 C 
ENDBRANCH   9  13
ENDBRANCH   1   9
BRANCH   1  15
ATOM     15  O   UNL     1       5.254   5.492  19.587  0.00  0.00    +0.000 OA
ATOM     16  H   UNL     1       5.463   4.553  19.761  0.00  0.00    +0.000 HD
ENDBRANCH   1  15
BRANCH   1  17
ATOM     17  P   UNL     1       3.380   3.876  18.484  0.00  0.00    +0.000 P 
ATOM     18  O   UNL     1       3.387   3.826  16.943  0.00  0.00    +0.000 OA
BRANCH  17  19
ATOM     19  O   UNL     1       4.619   3.006  19.133  0.00  0.00    +0.000 OA
ATOM     20  C   UNL     1       4.345   2.130  20.207  0.00  0.00    +0.000 C 
ENDBRANCH  17  19
BRANCH  17  21
ATOM     21  O   UNL     1       2.481   2.398  18.507  0.00  0.00    +0.000 OA
ATOM     22  C   UNL     1       1.078   2.572  18.585  0.00  0.00    +0.000 C 
ENDBRANCH  17  21
ENDBRANCH   1  17
TORSDOF 8
ENDMDL
MODEL 6
REMARK VINA RESULT:      -5.9      0.856      1.512
REMARK  Name = 
REMARK  12 active torsions:
REMARK  status: ('A' for Active; 'I' for Inactive)
REMARK    1  A    between atoms: C_1  and  O_2
REMARK    2  A    between atoms: O_2  and  P_3
REMARK    3  A    between atoms: P_3  and  O_5
REMARK    4  A    between atoms: P_3  and  C_7
REMARK    5  A    between atoms: O_5  and  C_6
REMARK    6  A    between atoms: C_7  and  O_8
REMARK    7  A    between atoms: C_7  and  C_9
REMARK    8  A    between atoms: C_7  and  P_16
REMARK    9  A    between atoms: P_16  and  O_18
REMARK   10  A    between atoms: P_16  and  O_20
REMARK   11  A    between atoms: O_18  and  C_19
REMARK   12  A    between atoms: O_20  and  C_21
REMARK                            x       y       z     vdW  Elec       q    Type
REMARK                         _______ _______ _______ _____ _____    ______ ____
ROOT
ATOM      1  C   UNL     1       4.334   5.385  18.376  0.00  0.00    +0.000 C 
ENDROOT
BRANCH   1   2
ATOM      2  C   UNL     1       3.352   6.580  18.604  0.00  0.00    +0.000 A 
ATOM      3  C   UNL     1       3.165   7.535  17.597  0.00  0.00    +0.000 A 
ATOM      4  C   UNL     1       2.288   8.610  17.773  0.00  0.00    +0.000 A 
ATOM      5  C   UNL     1       1.602   8.745  18.972  0.00  0.00    +0.000 A 
ATOM      6  F   UNL     1       0.765   9.774  19.142  0.00  0.00    +0.000 F 
ATOM      7  C   UNL     1       1.779   7.826  19.993  0.00  0.00    +0.000 A 
ATOM      8  C   UNL     1       2.649   6.744  19.813  0.00  0.00    +0.000 A 
ENDBRANCH   1   2
BRANCH   1   9
ATOM      9  P   UNL     1       5.248   5.603  16.806  0.00  0.00    +0.000 P 
ATOM     10  O   UNL     1       6.301   4.564  17.235  0.00  0.00    +0.000 OA
BRANCH   9  12
ATOM     11  C   UNL     1       6.401   4.623  14.608  0.00  0.00    +0.000 C 
ATOM     12  O   UNL     1       6.113   5.809  15.322  0.00  0.00    +0.000 OA
ENDBRANCH   9  12
BRANCH   9  13
ATOM     13  O   UNL     1       5.921   7.046  17.350  0.00  0.00    +0.000 OA
ATOM     14  C   UNL     1       7.352   7.139  17.367  0.00  0.00    +0.000 C 
ENDBRANCH   9  13
ENDBRANCH   1   9
BRANCH   1  15
ATOM     15  O   UNL     1       5.241   5.380  19.519  0.00  0.00    +0.000 OA
ATOM     16  H   UNL     1       6.129   5.328  19.111  0.00  0.00    +0.000 HD
ENDBRANCH   1  15
BRANCH   1  17
ATOM     17  P   UNL     1       3.378   3.825  18.314  0.00  0.00    +0.000 P 
ATOM     18  O   UNL     1       3.489   3.798  16.777  0.00  0.00    +0.000 OA
BRANCH  17  19
ATOM     19  O   UNL     1       4.568   2.940  19.032  0.00  0.00    +0.000 OA
ATOM     20  C   UNL     1       4.265   2.219  20.208  0.00  0.00    +0.000 C 
ENDBRANCH  17  19
BRANCH  17  21
ATOM     21  O   UNL     1       2.476   2.350  18.255  0.00  0.00    +0.000 OA
ATOM     22  C   UNL     1       1.113   2.488  18.613  0.00  0.00    +0.000 C 
ENDBRANCH  17  21
ENDBRANCH   1  17
TORSDOF 8
ENDMDL
MODEL 7
REMARK VINA RESULT:      -5.8      1.403      1.710
REMARK  Name = 
REMARK  12 active torsions:
REMARK  status: ('A' for Active; 'I' for Inactive)
REMARK    1  A    between atoms: C_1  and  O_2
REMARK    2  A    between atoms: O_2  and  P_3
REMARK    3  A    between atoms: P_3  and  O_5
REMARK    4  A    between atoms: P_3  and  C_7
REMARK    5  A    between atoms: O_5  and  C_6
REMARK    6  A    between atoms: C_7  and  O_8
REMARK    7  A    between atoms: C_7  and  C_9
REMARK    8  A    between atoms: C_7  and  P_16
REMARK    9  A    between atoms: P_16  and  O_18
REMARK   10  A    between atoms: P_16  and  O_20
REMARK   11  A    between atoms: O_18  and  C_19
REMARK   12  A    between atoms: O_20  and  C_21
REMARK                            x       y       z     vdW  Elec       q    Type
REMARK                         _______ _______ _______ _____ _____    ______ ____
ROOT
ATOM      1  C   UNL     1       3.806   5.976  18.722  0.00  0.00    +0.000 C 
ENDROOT
BRANCH   1   2
ATOM      2  C   UNL     1       2.805   7.167  18.880  0.00  0.00    +0.000 A 
ATOM      3  C   UNL     1       2.532   8.003  17.791  0.00  0.00    +0.000 A 
ATOM      4  C   UNL     1       1.636   9.071  17.904  0.00  0.00    +0.000 A 
ATOM      5  C   UNL     1       1.018   9.319  19.122  0.00  0.00    +0.000 A 
ATOM      6  F   UNL     1       0.163  10.342  19.232  0.00  0.00    +0.000 F 
ATOM      7  C   UNL     1       1.280   8.520  20.221  0.00  0.00    +0.000 A 
ATOM      8  C   UNL     1       2.169   7.445  20.106  0.00  0.00    +0.000 A 
ENDBRANCH   1   2
BRANCH   1   9
ATOM      9  P   UNL     1       5.237   6.481  17.700  0.00  0.00    +0.000 P 
ATOM     10  O   UNL     1       4.764   5.590  16.536  0.00  0.00    +0.000 OA
BRANCH   9  12
ATOM     11  C   UNL     1       7.474   7.888  17.330  0.00  0.00    +0.000 C 
ATOM     12  O   UNL     1       6.592   6.957  16.734  0.00  0.00    +0.000 OA
ENDBRANCH   9  12
BRANCH   9  13
ATOM     13  O   UNL     1       6.261   5.451  18.551  0.00  0.00    +0.000 OA
ATOM     14  C   UNL     1       7.091   4.568  17.784  0.00  0.00    +0.000 C 
ENDBRANCH   9  13
ENDBRANCH   1   9
BRANCH   1  15
ATOM     15  O   UNL     1       4.223   5.613  20.071  0.00  0.00    +0.000 OA
ATOM     16  H   UNL     1       3.425   5.200  20.459  0.00  0.00    +0.000 HD
ENDBRANCH   1  15
BRANCH   1  17
ATOM     17  P   UNL     1       2.948   4.573  17.919  0.00  0.00    +0.000 P 
ATOM     18  O   UNL     1       3.839   3.570  18.680  0.00  0.00    +0.000 OA
BRANCH  17  19
ATOM     19  O   UNL     1       1.527   4.851  18.704  0.00  0.00    +0.000 OA
ATOM     20  C   UNL     1       1.139   3.974  19.742  0.00  0.00    +0.000 C 
ENDBRANCH  17  19
BRANCH  17  21
ATOM     21  O   UNL     1       2.137   3.246  17.161  0.00  0.00    +0.000 OA
ATOM     22  C   UNL     1       2.692   1.978  17.461  0.00  0.00    +0.000 C 
ENDBRANCH  17  21
ENDBRANCH   1  17
TORSDOF 8
ENDMDL
MODEL 8
REMARK VINA RESULT:      -5.8      1.386      1.983
REMARK  Name = 
REMARK  12 active torsions:
REMARK  status: ('A' for Active; 'I' for Inactive)
REMARK    1  A    between atoms: C_1  and  O_2
REMARK    2  A    between atoms: O_2  and  P_3
REMARK    3  A    between atoms: P_3  and  O_5
REMARK    4  A    between atoms: P_3  and  C_7
REMARK    5  A    between atoms: O_5  and  C_6
REMARK    6  A    between atoms: C_7  and  O_8
REMARK    7  A    between atoms: C_7  and  C_9
REMARK    8  A    between atoms: C_7  and  P_16
REMARK    9  A    between atoms: P_16  and  O_18
REMARK   10  A    between atoms: P_16  and  O_20
REMARK   11  A    between atoms: O_18  and  C_19
REMARK   12  A    between atoms: O_20  and  C_21
REMARK                            x       y       z     vdW  Elec       q    Type
REMARK                         _______ _______ _______ _____ _____    ______ ____
ROOT
ATOM      1  C   UNL     1       3.864   5.957  18.703  0.00  0.00    +0.000 C 
ENDROOT
BRANCH   1   2
ATOM      2  C   UNL     1       2.858   7.144  18.858  0.00  0.00    +0.000 A 
ATOM      3  C   UNL     1       2.231   7.375  20.088  0.00  0.00    +0.000 A 
ATOM      4  C   UNL     1       1.332   8.434  20.256  0.00  0.00    +0.000 A 
ATOM      5  C   UNL     1       1.042   9.261  19.180  0.00  0.00    +0.000 A 
ATOM      6  F   UNL     1       0.181  10.273  19.338  0.00  0.00    +0.000 F 
ATOM      7  C   UNL     1       1.634   9.048  17.946  0.00  0.00    +0.000 A 
ATOM      8  C   UNL     1       2.541   7.994  17.782  0.00  0.00    +0.000 A 
ENDBRANCH   1   2
BRANCH   1   9
ATOM      9  P   UNL     1       5.306   6.472  17.702  0.00  0.00    +0.000 P 
ATOM     10  O   UNL     1       4.837   5.606  16.517  0.00  0.00    +0.000 OA
BRANCH   9  12
ATOM     11  C   UNL     1       7.518   7.922  17.350  0.00  0.00    +0.000 C 
ATOM     12  O   UNL     1       6.671   6.958  16.756  0.00  0.00    +0.000 OA
ENDBRANCH   9  12
BRANCH   9  13
ATOM     13  O   UNL     1       6.317   5.420  18.541  0.00  0.00    +0.000 OA
ATOM     14  C   UNL     1       7.161   4.559  17.764  0.00  0.00    +0.000 C 
ENDBRANCH   9  13
ENDBRANCH   1   9
BRANCH   1  15
ATOM     15  O   UNL     1       4.265   5.584  20.055  0.00  0.00    +0.000 OA
ATOM     16  H   UNL     1       4.373   4.614  20.007  0.00  0.00    +0.000 HD
ENDBRANCH   1  15
BRANCH   1  17
ATOM     17  P   UNL     1       3.018   4.557  17.879  0.00  0.00    +0.000 P 
ATOM     18  O   UNL     1       3.887   3.550  18.660  0.00  0.00    +0.000 OA
BRANCH  17  19
ATOM     19  O   UNL     1       1.581   4.842  18.631  0.00  0.00    +0.000 OA
ATOM     20  C   UNL     1       1.167   3.967  19.661  0.00  0.00    +0.000 C 
ENDBRANCH  17  19
BRANCH  17  21
ATOM     21  O   UNL     1       2.219   3.235  17.102  0.00  0.00    +0.000 OA
ATOM     22  C   UNL     1       2.723   1.961  17.459  0.00  0.00    +0.000 C 
ENDBRANCH  17  21
ENDBRANCH   1  17
TORSDOF 8
ENDMDL
MODEL 9
REMARK VINA RESULT:      -5.7      1.302      1.370
REMARK  Name = 
REMARK  12 active torsions:
REMARK  status: ('A' for Active; 'I' for Inactive)
REMARK    1  A    between atoms: C_1  and  O_2
REMARK    2  A    between atoms: O_2  and  P_3
REMARK    3  A    between atoms: P_3  and  O_5
REMARK    4  A    between atoms: P_3  and  C_7
REMARK    5  A    between atoms: O_5  and  C_6
REMARK    6  A    between atoms: C_7  and  O_8
REMARK    7  A    between atoms: C_7  and  C_9
REMARK    8  A    between atoms: C_7  and  P_16
REMARK    9  A    between atoms: P_16  and  O_18
REMARK   10  A    between atoms: P_16  and  O_20
REMARK   11  A    between atoms: O_18  and  C_19
REMARK   12  A    between atoms: O_20  and  C_21
REMARK                            x       y       z     vdW  Elec       q    Type
REMARK                         _______ _______ _______ _____ _____    ______ ____
ROOT
ATOM      1  C   UNL     1       3.711   5.883  18.709  0.00  0.00    +0.000 C 
ENDROOT
BRANCH   1   2
ATOM      2  C   UNL     1       2.762   7.114  18.869  0.00  0.00    +0.000 A 
ATOM      3  C   UNL     1       2.474   7.926  17.764  0.00  0.00    +0.000 A 
ATOM      4  C   UNL     1       1.623   9.030  17.879  0.00  0.00    +0.000 A 
ATOM      5  C   UNL     1       1.067   9.340  19.112  0.00  0.00    +0.000 A 
ATOM      6  F   UNL     1       0.255  10.397  19.224  0.00  0.00    +0.000 F 
ATOM      7  C   UNL     1       1.346   8.566  20.226  0.00  0.00    +0.000 A 
ATOM      8  C   UNL     1       2.190   7.455  20.109  0.00  0.00    +0.000 A 
ENDBRANCH   1   2
BRANCH   1   9
ATOM      9  P   UNL     1       4.873   6.151  17.321  0.00  0.00    +0.000 P 
ATOM     10  O   UNL     1       4.353   4.894  16.597  0.00  0.00    +0.000 OA
BRANCH   9  12
ATOM     11  C   UNL     1       5.995   5.390  15.023  0.00  0.00    +0.000 C 
ATOM     12  O   UNL     1       5.972   6.404  16.009  0.00  0.00    +0.000 OA
ENDBRANCH   9  12
BRANCH   9  13
ATOM     13  O   UNL     1       6.157   5.544  18.223  0.00  0.00    +0.000 OA
ATOM     14  C   UNL     1       7.364   6.318  18.252  0.00  0.00    +0.000 C 
ENDBRANCH   9  13
ENDBRANCH   1   9
BRANCH   1  15
ATOM     15  O   UNL     1       4.423   5.750  19.975  0.00  0.00    +0.000 OA
ATOM     16  H   UNL     1       3.712   5.589  20.626  0.00  0.00    +0.000 HD
ENDBRANCH   1  15
BRANCH   1  17
ATOM     17  P   UNL     1       2.706   4.388  18.382  0.00  0.00    +0.000 P 
ATOM     18  O   UNL     1       3.715   3.518  19.160  0.00  0.00    +0.000 OA
BRANCH  17  19
ATOM     19  O   UNL     1       1.459   4.886  19.337  0.00  0.00    +0.000 OA
ATOM     20  C   UNL     1       0.986   4.016  20.346  0.00  0.00    +0.000 C 
ENDBRANCH  17  19
BRANCH  17  21
ATOM     21  O   UNL     1       1.756   2.975  18.075  0.00  0.00    +0.000 OA
ATOM     22  C   UNL     1       2.516   1.802  17.852  0.00  0.00    +0.000 C 
ENDBRANCH  17  21
ENDBRANCH   1  17
TORSDOF 8
ENDMDL
