MODEL 1
REMARK VINA RESULT:      -7.7      0.000      0.000
REMARK  Name = 
REMARK  10 active torsions:
REMARK  status: ('A' for Active; 'I' for Inactive)
REMARK    1  A    between atoms: C_1  and  C_2
REMARK    2  A    between atoms: C_7  and  C_8
REMARK    3  A    between atoms: C_8  and  C_9
REMARK    4  A    between atoms: C_8  and  N_11
REMARK    5  A    between atoms: C_15  and  C_17
REMARK    6  A    between atoms: C_17  and  C_18
REMARK    7  A    between atoms: C_18  and  N_19
REMARK    8  A    between atoms: C_18  and  C_24
REMARK    9  A    between atoms: N_19  and  S_20
REMARK   10  A    between atoms: S_20  and  C_21
REMARK                            x       y       z     vdW  Elec       q    Type
REMARK                         _______ _______ _______ _____ _____    ______ ____
ROOT
ATOM      1  N   UNL     1       2.933   4.239  18.832  0.00  0.00    +0.000 NA
ATOM      2  C   UNL     1       2.355   4.383  20.153  0.00  0.00    +0.000 C 
ATOM      3  C   UNL     1       2.268   5.845  20.626  0.00  0.00    +0.000 C 
ATOM      4  N   UNL     1       1.842   6.815  19.609  0.00  0.00    +0.000 N 
ATOM      5  C   UNL     1       1.670   8.133  20.070  0.00  0.00    +0.000 C 
ATOM      6  O   UNL     1       1.675   8.424  21.266  0.00  0.00    +0.000 OA
ATOM      7  C   UNL     1       2.236   6.552  18.218  0.00  0.00    +0.000 C 
ATOM      8  C   UNL     1       2.308   5.069  17.824  0.00  0.00    +0.000 C 
ENDROOT
BRANCH   1   9
ATOM      9  C   UNL     1       4.233   3.613  18.602  0.00  0.00    +0.000 C 
BRANCH   9  16
ATOM     10  C   UNL     1       5.284   4.201  15.764  0.00  0.00    +0.000 C 
ATOM     11  C   UNL     1       5.959   4.681  17.013  0.00  0.00    +0.000 A 
ATOM     12  N   UNL     1       7.110   5.365  16.772  0.00  0.00    +0.000 NA
ATOM     13  C   UNL     1       7.702   6.007  17.795  0.00  0.00    +0.000 A 
ATOM     14  C   UNL     1       7.186   6.022  19.072  0.00  0.00    +0.000 A 
ATOM     15  C   UNL     1       6.034   5.279  19.324  0.00  0.00    +0.000 A 
ATOM     16  C   UNL     1       5.398   4.553  18.296  0.00  0.00    +0.000 A 
ENDBRANCH   9  16
BRANCH   9  17
ATOM     17  C   UNL     1       4.567   2.655  19.702  0.00  0.00    +0.000 C 
ATOM     18  N   UNL     1       4.836   1.918  20.566  0.00  0.00    +0.000 NA
ENDBRANCH   9  17
ENDBRANCH   1   9
BRANCH   5  19
ATOM     19  C   UNL     1       1.409   9.181  19.006  0.00  0.00    +0.000 C 
BRANCH  19  20
ATOM     20  C   UNL     1       0.501  10.338  19.446  0.00  0.00    +0.000 C 
BRANCH  20  21
ATOM     21  C   UNL     1      -0.801  10.442  18.652  0.00  0.00    +0.000 A 
ATOM     22  C   UNL     1      -1.035   9.721  17.471  0.00  0.00    +0.000 A 
ATOM     23  C   UNL     1      -2.196   9.916  16.724  0.00  0.00    +0.000 A 
ATOM     24  C   UNL     1      -3.155  10.831  17.146  0.00  0.00    +0.000 A 
ATOM     25  C   UNL     1      -2.965  11.529  18.339  0.00  0.00    +0.000 A 
ATOM     26  C   UNL     1      -1.808  11.327  19.091  0.00  0.00    +0.000 A 
ENDBRANCH  20  21
BRANCH  20  27
ATOM     27  N   UNL     1       1.198  11.649  19.519  0.00  0.00    +0.000 NA
ATOM     28  H   UNL     1       1.061  12.207  18.668  0.00  0.00    +0.000 HD
BRANCH  27  29
ATOM     29  S   UNL     1       1.174  12.651  20.855  0.00  0.00    +0.000 S 
ATOM     30  C   UNL     1       0.185  14.052  20.368  0.00  0.00    +0.000 C 
ATOM     31  O   UNL     1       0.433  11.922  21.863  0.00  0.00    +0.000 OA
ATOM     32  O   UNL     1       2.524  13.102  21.114  0.00  0.00    +0.000 OA
ENDBRANCH  27  29
ENDBRANCH  20  27
ENDBRANCH  19  20
ENDBRANCH   5  19
TORSDOF 8
ENDMDL
MODEL 2
REMARK VINA RESULT:      -7.6      1.095      1.239
REMARK  Name = 
REMARK  10 active torsions:
REMARK  status: ('A' for Active; 'I' for Inactive)
REMARK    1  A    between atoms: C_1  and  C_2
REMARK    2  A    between atoms: C_7  and  C_8
REMARK    3  A    between atoms: C_8  and  C_9
REMARK    4  A    between atoms: C_8  and  N_11
REMARK    5  A    between atoms: C_15  and  C_17
REMARK    6  A    between atoms: C_17  and  C_18
REMARK    7  A    between atoms: C_18  and  N_19
REMARK    8  A    between atoms: C_18  and  C_24
REMARK    9  A    between atoms: N_19  and  S_20
REMARK   10  A    between atoms: S_20  and  C_21
REMARK                            x       y       z     vdW  Elec       q    Type
REMARK                         _______ _______ _______ _____ _____    ______ ____
ROOT
ATOM      1  N   UNL     1       3.002   4.155  18.808  0.00  0.00    +0.000 NA
ATOM      2  C   UNL     1       2.442   4.479  20.105  0.00  0.00    +0.000 C 
ATOM      3  C   UNL     1       2.363   5.992  20.375  0.00  0.00    +0.000 C 
ATOM      4  N   UNL     1       1.925   6.816  19.242  0.00  0.00    +0.000 N 
ATOM      5  C   UNL     1       1.760   8.185  19.520  0.00  0.00    +0.000 C 
ATOM      6  O   UNL     1       1.783   8.637  20.666  0.00  0.00    +0.000 OA
ATOM      7  C   UNL     1       2.300   6.365  17.894  0.00  0.00    +0.000 C 
ATOM      8  C   UNL     1       2.364   4.842  17.705  0.00  0.00    +0.000 C 
ENDROOT
BRANCH   1   9
ATOM      9  C   UNL     1       4.298   3.500  18.648  0.00  0.00    +0.000 C 
BRANCH   9  16
ATOM     10  C   UNL     1       5.501   3.920  15.841  0.00  0.00    +0.000 C 
ATOM     11  C   UNL     1       6.118   4.460  17.097  0.00  0.00    +0.000 A 
ATOM     12  N   UNL     1       7.290   5.117  16.879  0.00  0.00    +0.000 NA
ATOM     13  C   UNL     1       7.837   5.807  17.896  0.00  0.00    +0.000 A 
ATOM     14  C   UNL     1       7.256   5.897  19.141  0.00  0.00    +0.000 A 
ATOM     15  C   UNL     1       6.082   5.182  19.373  0.00  0.00    +0.000 A 
ATOM     16  C   UNL     1       5.491   4.408  18.354  0.00  0.00    +0.000 A 
ENDBRANCH   9  16
BRANCH   9  17
ATOM     17  C   UNL     1       4.574   2.575  19.793  0.00  0.00    +0.000 C 
ATOM     18  N   UNL     1       4.795   1.866  20.693  0.00  0.00    +0.000 NA
ENDBRANCH   9  17
ENDBRANCH   1   9
BRANCH   5  19
ATOM     19  C   UNL     1       1.487   9.080  18.327  0.00  0.00    +0.000 C 
BRANCH  19  20
ATOM     20  C   UNL     1       0.861  10.440  18.668  0.00  0.00    +0.000 C 
BRANCH  20  21
ATOM     21  C   UNL     1      -0.643  10.513  18.406  0.00  0.00    +0.000 A 
ATOM     22  C   UNL     1      -1.280   9.774  17.396  0.00  0.00    +0.000 A 
ATOM     23  C   UNL     1      -2.637   9.942  17.126  0.00  0.00    +0.000 A 
ATOM     24  C   UNL     1      -3.393  10.846  17.866  0.00  0.00    +0.000 A 
ATOM     25  C   UNL     1      -2.792  11.561  18.903  0.00  0.00    +0.000 A 
ATOM     26  C   UNL     1      -1.436  11.386  19.179  0.00  0.00    +0.000 A 
ENDBRANCH  20  21
BRANCH  20  27
ATOM     27  N   UNL     1       1.575  11.594  18.061  0.00  0.00    +0.000 NA
ATOM     28  H   UNL     1       1.279  11.764  17.093  0.00  0.00    +0.000 HD
BRANCH  27  29
ATOM     29  S   UNL     1       1.828  13.052  18.835  0.00  0.00    +0.000 S 
ATOM     30  C   UNL     1       1.748  12.674  20.575  0.00  0.00    +0.000 C 
ATOM     31  O   UNL     1       3.196  13.412  18.528  0.00  0.00    +0.000 OA
ATOM     32  O   UNL     1       0.738  13.943  18.502  0.00  0.00    +0.000 OA
ENDBRANCH  27  29
ENDBRANCH  20  27
ENDBRANCH  19  20
ENDBRANCH   5  19
TORSDOF 8
ENDMDL
MODEL 3
REMARK VINA RESULT:      -7.5      3.198      9.311
REMARK  Name = 
REMARK  10 active torsions:
REMARK  status: ('A' for Active; 'I' for Inactive)
REMARK    1  A    between atoms: C_1  and  C_2
REMARK    2  A    between atoms: C_7  and  C_8
REMARK    3  A    between atoms: C_8  and  C_9
REMARK    4  A    between atoms: C_8  and  N_11
REMARK    5  A    between atoms: C_15  and  C_17
REMARK    6  A    between atoms: C_17  and  C_18
REMARK    7  A    between atoms: C_18  and  N_19
REMARK    8  A    between atoms: C_18  and  C_24
REMARK    9  A    between atoms: N_19  and  S_20
REMARK   10  A    between atoms: S_20  and  C_21
REMARK                            x       y       z     vdW  Elec       q    Type
REMARK                         _______ _______ _______ _____ _____    ______ ____
ROOT
ATOM      1  N   UNL     1       0.509  10.639  19.993  0.00  0.00    +0.000 NA
ATOM      2  C   UNL     1       0.856   9.994  21.244  0.00  0.00    +0.000 C 
ATOM      3  C   UNL     1       1.071   8.476  21.109  0.00  0.00    +0.000 C 
ATOM      4  N   UNL     1       1.810   8.045  19.917  0.00  0.00    +0.000 N 
ATOM      5  C   UNL     1       2.090   6.668  19.847  0.00  0.00    +0.000 C 
ATOM      6  O   UNL     1       1.912   5.905  20.798  0.00  0.00    +0.000 OA
ATOM      7  C   UNL     1       1.639   8.838  18.692  0.00  0.00    +0.000 C 
ATOM      8  C   UNL     1       1.421  10.343  18.908  0.00  0.00    +0.000 C 
ENDROOT
BRANCH   1   9
ATOM      9  C   UNL     1      -0.806  11.223  19.743  0.00  0.00    +0.000 C 
BRANCH   9  16
ATOM     10  C   UNL     1      -2.630  12.569  21.833  0.00  0.00    +0.000 C 
ATOM     11  C   UNL     1      -1.881  13.325  20.777  0.00  0.00    +0.000 A 
ATOM     12  N   UNL     1      -2.123  14.664  20.804  0.00  0.00    +0.000 NA
ATOM     13  C   UNL     1      -1.367  15.468  20.034  0.00  0.00    +0.000 A 
ATOM     14  C   UNL     1      -0.345  15.001  19.237  0.00  0.00    +0.000 A 
ATOM     15  C   UNL     1      -0.135  13.625  19.176  0.00  0.00    +0.000 A 
ATOM     16  C   UNL     1      -0.928  12.735  19.929  0.00  0.00    +0.000 A 
ENDBRANCH   9  16
BRANCH   9  17
ATOM     17  C   UNL     1      -1.343  10.783  18.417  0.00  0.00    +0.000 C 
ATOM     18  N   UNL     1      -1.754  10.449  17.377  0.00  0.00    +0.000 NA
ENDBRANCH   9  17
ENDBRANCH   1   9
BRANCH   5  19
ATOM     19  C   UNL     1       2.689   6.175  18.544  0.00  0.00    +0.000 C 
BRANCH  19  20
ATOM     20  C   UNL     1       3.783   5.108  18.697  0.00  0.00    +0.000 C 
BRANCH  20  21
ATOM     21  C   UNL     1       5.198   5.630  18.445  0.00  0.00    +0.000 A 
ATOM     22  C   UNL     1       6.300   5.260  19.230  0.00  0.00    +0.000 A 
ATOM     23  C   UNL     1       7.555   5.832  19.028  0.00  0.00    +0.000 A 
ATOM     24  C   UNL     1       7.739   6.783  18.029  0.00  0.00    +0.000 A 
ATOM     25  C   UNL     1       6.668   7.136  17.208  0.00  0.00    +0.000 A 
ATOM     26  C   UNL     1       5.415   6.557  17.404  0.00  0.00    +0.000 A 
ENDBRANCH  20  21
BRANCH  20  27
ATOM     27  N   UNL     1       3.517   3.866  17.927  0.00  0.00    +0.000 NA
ATOM     28  H   UNL     1       4.304   3.614  17.317  0.00  0.00    +0.000 HD
BRANCH  27  29
ATOM     29  S   UNL     1       2.850   2.481  18.580  0.00  0.00    +0.000 S 
ATOM     30  C   UNL     1       3.028   2.668  20.344  0.00  0.00    +0.000 C 
ATOM     31  O   UNL     1       1.438   2.559  18.272  0.00  0.00    +0.000 OA
ATOM     32  O   UNL     1       3.637   1.346  18.151  0.00  0.00    +0.000 OA
ENDBRANCH  27  29
ENDBRANCH  20  27
ENDBRANCH  19  20
ENDBRANCH   5  19
TORSDOF 8
ENDMDL
MODEL 4
REMARK VINA RESULT:      -7.5      3.514      9.142
REMARK  Name = 
REMARK  10 active torsions:
REMARK  status: ('A' for Active; 'I' for Inactive)
REMARK    1  A    between atoms: C_1  and  C_2
REMARK    2  A    between atoms: C_7  and  C_8
REMARK    3  A    between atoms: C_8  and  C_9
REMARK    4  A    between atoms: C_8  and  N_11
REMARK    5  A    between atoms: C_15  and  C_17
REMARK    6  A    between atoms: C_17  and  C_18
REMARK    7  A    between atoms: C_18  and  N_19
REMARK    8  A    between atoms: C_18  and  C_24
REMARK    9  A    between atoms: N_19  and  S_20
REMARK   10  A    between atoms: S_20  and  C_21
REMARK                            x       y       z     vdW  Elec       q    Type
REMARK                         _______ _______ _______ _____ _____    ______ ____
ROOT
ATOM      1  N   UNL     1      -0.705  10.599  19.853  0.00  0.00    +0.000 NA
ATOM      2  C   UNL     1      -0.702  10.334  18.428  0.00  0.00    +0.000 C 
ATOM      3  C   UNL     1       0.632   9.765  17.915  0.00  0.00    +0.000 C 
ATOM      4  N   UNL     1       1.264   8.758  18.776  0.00  0.00    +0.000 N 
ATOM      5  C   UNL     1       2.432   8.169  18.258  0.00  0.00    +0.000 C 
ATOM      6  O   UNL     1       2.795   8.330  17.092  0.00  0.00    +0.000 OA
ATOM      7  C   UNL     1       1.073   8.893  20.227  0.00  0.00    +0.000 C 
ATOM      8  C   UNL     1      -0.280   9.475  20.661  0.00  0.00    +0.000 C 
ENDROOT
BRANCH   1   9
ATOM      9  C   UNL     1      -0.769  11.951  20.405  0.00  0.00    +0.000 C 
BRANCH   9  16
ATOM     10  C   UNL     1      -3.709  12.443  19.619  0.00  0.00    +0.000 C 
ATOM     11  C   UNL     1      -3.186  12.604  21.014  0.00  0.00    +0.000 A 
ATOM     12  N   UNL     1      -4.131  13.035  21.895  0.00  0.00    +0.000 NA
ATOM     13  C   UNL     1      -3.833  13.033  23.207  0.00  0.00    +0.000 A 
ATOM     14  C   UNL     1      -2.625  12.596  23.703  0.00  0.00    +0.000 A 
ATOM     15  C   UNL     1      -1.645  12.203  22.794  0.00  0.00    +0.000 A 
ATOM     16  C   UNL     1      -1.890  12.227  21.406  0.00  0.00    +0.000 A 
ENDBRANCH   9  16
BRANCH   9  17
ATOM     17  C   UNL     1       0.565  12.375  20.935  0.00  0.00    +0.000 C 
ATOM     18  N   UNL     1       1.612  12.702  21.336  0.00  0.00    +0.000 NA
ENDBRANCH   9  17
ENDBRANCH   1   9
BRANCH   5  19
ATOM     19  C   UNL     1       3.199   7.265  19.203  0.00  0.00    +0.000 C 
BRANCH  19  20
ATOM     20  C   UNL     1       3.509   5.866  18.651  0.00  0.00    +0.000 C 
BRANCH  20  21
ATOM     21  C   UNL     1       2.478   4.805  19.035  0.00  0.00    +0.000 A 
ATOM     22  C   UNL     1       1.930   4.703  20.324  0.00  0.00    +0.000 A 
ATOM     23  C   UNL     1       1.067   3.662  20.660  0.00  0.00    +0.000 A 
ATOM     24  C   UNL     1       0.722   2.703  19.714  0.00  0.00    +0.000 A 
ATOM     25  C   UNL     1       1.220   2.806  18.414  0.00  0.00    +0.000 A 
ATOM     26  C   UNL     1       2.078   3.853  18.075  0.00  0.00    +0.000 A 
ENDBRANCH  20  21
BRANCH  20  27
ATOM     27  N   UNL     1       4.893   5.406  18.934  0.00  0.00    +0.000 NA
ATOM     28  H   UNL     1       4.914   4.656  19.635  0.00  0.00    +0.000 HD
BRANCH  27  29
ATOM     29  S   UNL     1       6.042   5.108  17.759  0.00  0.00    +0.000 S 
ATOM     30  C   UNL     1       6.577   6.719  17.214  0.00  0.00    +0.000 C 
ATOM     31  O   UNL     1       7.150   4.493  18.459  0.00  0.00    +0.000 OA
ATOM     32  O   UNL     1       5.401   4.432  16.653  0.00  0.00    +0.000 OA
ENDBRANCH  27  29
ENDBRANCH  20  27
ENDBRANCH  19  20
ENDBRANCH   5  19
TORSDOF 8
ENDMDL
MODEL 5
REMARK VINA RESULT:      -7.3      3.124      8.929
REMARK  Name = 
REMARK  10 active torsions:
REMARK  status: ('A' for Active; 'I' for Inactive)
REMARK    1  A    between atoms: C_1  and  C_2
REMARK    2  A    between atoms: C_7  and  C_8
REMARK    3  A    between atoms: C_8  and  C_9
REMARK    4  A    between atoms: C_8  and  N_11
REMARK    5  A    between atoms: C_15  and  C_17
REMARK    6  A    between atoms: C_17  and  C_18
REMARK    7  A    between atoms: C_18  and  N_19
REMARK    8  A    between atoms: C_18  and  C_24
REMARK    9  A    between atoms: N_19  and  S_20
REMARK   10  A    between atoms: S_20  and  C_21
REMARK                            x       y       z     vdW  Elec       q    Type
REMARK                         _______ _______ _______ _____ _____    ______ ____
ROOT
ATOM      1  N   UNL     1      -0.061  11.252  20.296  0.00  0.00    +0.000 NA
ATOM      2  C   UNL     1      -0.072  11.221  18.847  0.00  0.00    +0.000 C 
ATOM      3  C   UNL     1       1.052  10.359  18.247  0.00  0.00    +0.000 C 
ATOM      4  N   UNL     1       1.311   9.087  18.932  0.00  0.00    +0.000 N 
ATOM      5  C   UNL     1       2.271   8.259  18.324  0.00  0.00    +0.000 C 
ATOM      6  O   UNL     1       2.719   8.479  17.198  0.00  0.00    +0.000 OA
ATOM      7  C   UNL     1       1.102   9.050  20.387  0.00  0.00    +0.000 C 
ATOM      8  C   UNL     1      -0.033   9.942  20.911  0.00  0.00    +0.000 C 
ENDROOT
BRANCH   1   9
ATOM      9  C   UNL     1       0.258  12.457  21.058  0.00  0.00    +0.000 C 
BRANCH   9  16
ATOM     10  C   UNL     1       2.707  13.586  19.564  0.00  0.00    +0.000 C 
ATOM     11  C   UNL     1       1.427  14.343  19.748  0.00  0.00    +0.000 A 
ATOM     12  N   UNL     1       1.468  15.600  19.227  0.00  0.00    +0.000 NA
ATOM     13  C   UNL     1       0.324  16.305  19.160  0.00  0.00    +0.000 A 
ATOM     14  C   UNL     1      -0.891  15.806  19.573  0.00  0.00    +0.000 A 
ATOM     15  C   UNL     1      -0.919  14.537  20.150  0.00  0.00    +0.000 A 
ATOM     16  C   UNL     1       0.259  13.774  20.285  0.00  0.00    +0.000 A 
ENDBRANCH   9  16
BRANCH   9  17
ATOM     17  C   UNL     1      -0.576  12.542  22.298  0.00  0.00    +0.000 C 
ATOM     18  N   UNL     1      -1.224  12.623  23.266  0.00  0.00    +0.000 NA
ENDBRANCH   9  17
ENDBRANCH   1   9
BRANCH   5  19
ATOM     19  C   UNL     1       2.685   7.030  19.109  0.00  0.00    +0.000 C 
BRANCH  19  20
ATOM     20  C   UNL     1       3.230   5.873  18.260  0.00  0.00    +0.000 C 
BRANCH  20  21
ATOM     21  C   UNL     1       2.488   4.551  18.463  0.00  0.00    +0.000 A 
ATOM     22  C   UNL     1       1.528   4.361  19.469  0.00  0.00    +0.000 A 
ATOM     23  C   UNL     1       0.945   3.113  19.683  0.00  0.00    +0.000 A 
ATOM     24  C   UNL     1       1.301   2.027  18.890  0.00  0.00    +0.000 A 
ATOM     25  C   UNL     1       2.222   2.201  17.856  0.00  0.00    +0.000 A 
ATOM     26  C   UNL     1       2.799   3.452  17.636  0.00  0.00    +0.000 A 
ENDBRANCH  20  21
BRANCH  20  27
ATOM     27  N   UNL     1       4.701   5.692  18.371  0.00  0.00    +0.000 NA
ATOM     28  H   UNL     1       4.947   4.816  18.846  0.00  0.00    +0.000 HD
BRANCH  27  29
ATOM     29  S   UNL     1       5.778   5.976  17.126  0.00  0.00    +0.000 S 
ATOM     30  C   UNL     1       7.090   4.794  17.369  0.00  0.00    +0.000 C 
ATOM     31  O   UNL     1       5.070   5.603  15.920  0.00  0.00    +0.000 OA
ATOM     32  O   UNL     1       6.317   7.309  17.283  0.00  0.00    +0.000 OA
ENDBRANCH  27  29
ENDBRANCH  20  27
ENDBRANCH  19  20
ENDBRANCH   5  19
TORSDOF 8
ENDMDL
MODEL 6
REMARK VINA RESULT:      -7.3      3.126      8.933
REMARK  Name = 
REMARK  10 active torsions:
REMARK  status: ('A' for Active; 'I' for Inactive)
REMARK    1  A    between atoms: C_1  and  C_2
REMARK    2  A    between atoms: C_7  and  C_8
REMARK    3  A    between atoms: C_8  and  C_9
REMARK    4  A    between atoms: C_8  and  N_11
REMARK    5  A    between atoms: C_15  and  C_17
REMARK    6  A    between atoms: C_17  and  C_18
REMARK    7  A    between atoms: C_18  and  N_19
REMARK    8  A    between atoms: C_18  and  C_24
REMARK    9  A    between atoms: N_19  and  S_20
REMARK   10  A    between atoms: S_20  and  C_21
REMARK                            x       y       z     vdW  Elec       q    Type
REMARK                         _______ _______ _______ _____ _____    ______ ____
ROOT
ATOM      1  N   UNL     1      -0.074  11.477  20.316  0.00  0.00    +0.000 NA
ATOM      2  C   UNL     1      -0.092  11.430  18.867  0.00  0.00    +0.000 C 
ATOM      3  C   UNL     1       1.000  10.523  18.273  0.00  0.00    +0.000 C 
ATOM      4  N   UNL     1       1.218   9.251  18.972  0.00  0.00    +0.000 N 
ATOM      5  C   UNL     1       2.146   8.383  18.370  0.00  0.00    +0.000 C 
ATOM      6  O   UNL     1       2.597   8.575  17.240  0.00  0.00    +0.000 OA
ATOM      7  C   UNL     1       1.013   9.237  20.428  0.00  0.00    +0.000 C 
ATOM      8  C   UNL     1      -0.088  10.174  20.946  0.00  0.00    +0.000 C 
ENDROOT
BRANCH   1   9
ATOM      9  C   UNL     1       0.290  12.679  21.063  0.00  0.00    +0.000 C 
BRANCH   9  16
ATOM     10  C   UNL     1       2.758  13.759  19.565  0.00  0.00    +0.000 C 
ATOM     11  C   UNL     1       1.489  14.537  19.739  0.00  0.00    +0.000 A 
ATOM     12  N   UNL     1       1.550  15.789  19.209  0.00  0.00    +0.000 NA
ATOM     13  C   UNL     1       0.416  16.510  19.133  0.00  0.00    +0.000 A 
ATOM     14  C   UNL     1      -0.807  16.032  19.547  0.00  0.00    +0.000 A 
ATOM     15  C   UNL     1      -0.855  14.769  20.135  0.00  0.00    +0.000 A 
ATOM     16  C   UNL     1       0.311  13.990  20.278  0.00  0.00    +0.000 A 
ENDBRANCH   9  16
BRANCH   9  17
ATOM     17  C   UNL     1      -0.521  12.796  22.315  0.00  0.00    +0.000 C 
ATOM     18  N   UNL     1      -1.157  12.901  23.289  0.00  0.00    +0.000 NA
ENDBRANCH   9  17
ENDBRANCH   1   9
BRANCH   5  19
ATOM     19  C   UNL     1       2.521   7.150  19.168  0.00  0.00    +0.000 C 
BRANCH  19  20
ATOM     20  C   UNL     1       2.432   5.827  18.394  0.00  0.00    +0.000 C 
BRANCH  20  21
ATOM     21  C   UNL     1       2.208   4.603  19.282  0.00  0.00    +0.000 A 
ATOM     22  C   UNL     1       1.954   3.322  18.768  0.00  0.00    +0.000 A 
ATOM     23  C   UNL     1       1.659   2.251  19.611  0.00  0.00    +0.000 A 
ATOM     24  C   UNL     1       1.620   2.434  20.989  0.00  0.00    +0.000 A 
ATOM     25  C   UNL     1       1.910   3.688  21.527  0.00  0.00    +0.000 A 
ATOM     26  C   UNL     1       2.214   4.758  20.684  0.00  0.00    +0.000 A 
ENDBRANCH  20  21
BRANCH  20  27
ATOM     27  N   UNL     1       3.559   5.612  17.449  0.00  0.00    +0.000 NA
ATOM     28  H   UNL     1       3.395   6.069  16.544  0.00  0.00    +0.000 HD
BRANCH  27  29
ATOM     29  S   UNL     1       5.171   5.750  17.863  0.00  0.00    +0.000 S 
ATOM     30  C   UNL     1       6.004   4.495  16.911  0.00  0.00    +0.000 C 
ATOM     31  O   UNL     1       5.586   7.037  17.348  0.00  0.00    +0.000 OA
ATOM     32  O   UNL     1       5.311   5.437  19.268  0.00  0.00    +0.000 OA
ENDBRANCH  27  29
ENDBRANCH  20  27
ENDBRANCH  19  20
ENDBRANCH   5  19
TORSDOF 8
ENDMDL
MODEL 7
REMARK VINA RESULT:      -7.3      3.184      9.462
REMARK  Name = 
REMARK  10 active torsions:
REMARK  status: ('A' for Active; 'I' for Inactive)
REMARK    1  A    between atoms: C_1  and  C_2
REMARK    2  A    between atoms: C_7  and  C_8
REMARK    3  A    between atoms: C_8  and  C_9
REMARK    4  A    between atoms: C_8  and  N_11
REMARK    5  A    between atoms: C_15  and  C_17
REMARK    6  A    between atoms: C_17  and  C_18
REMARK    7  A    between atoms: C_18  and  N_19
REMARK    8  A    between atoms: C_18  and  C_24
REMARK    9  A    between atoms: N_19  and  S_20
REMARK   10  A    between atoms: S_20  and  C_21
REMARK                            x       y       z     vdW  Elec       q    Type
REMARK                         _______ _______ _______ _____ _____    ______ ____
ROOT
ATOM      1  N   UNL     1       0.435  10.943  19.880  0.00  0.00    +0.000 NA
ATOM      2  C   UNL     1       0.832  10.305  21.119  0.00  0.00    +0.000 C 
ATOM      3  C   UNL     1       1.069   8.791  20.977  0.00  0.00    +0.000 C 
ATOM      4  N   UNL     1       1.778   8.372  19.762  0.00  0.00    +0.000 N 
ATOM      5  C   UNL     1       2.079   7.000  19.683  0.00  0.00    +0.000 C 
ATOM      6  O   UNL     1       1.945   6.235  20.639  0.00  0.00    +0.000 OA
ATOM      7  C   UNL     1       1.553   9.161  18.543  0.00  0.00    +0.000 C 
ATOM      8  C   UNL     1       1.317  10.662  18.766  0.00  0.00    +0.000 C 
ENDROOT
BRANCH   1   9
ATOM      9  C   UNL     1      -0.898  11.504  19.672  0.00  0.00    +0.000 C 
BRANCH   9  16
ATOM     10  C   UNL     1      -2.727  12.674  21.861  0.00  0.00    +0.000 C 
ATOM     11  C   UNL     1      -2.016  13.511  20.841  0.00  0.00    +0.000 A 
ATOM     12  N   UNL     1      -2.295  14.839  20.948  0.00  0.00    +0.000 NA
ATOM     13  C   UNL     1      -1.573  15.707  20.216  0.00  0.00    +0.000 A 
ATOM     14  C   UNL     1      -0.552  15.317  19.380  0.00  0.00    +0.000 A 
ATOM     15  C   UNL     1      -0.303  13.953  19.236  0.00  0.00    +0.000 A 
ATOM     16  C   UNL     1      -1.059  12.999  19.947  0.00  0.00    +0.000 A 
ENDBRANCH   9  16
BRANCH   9  17
ATOM     17  C   UNL     1      -1.432  11.127  18.326  0.00  0.00    +0.000 C 
ATOM     18  N   UNL     1      -1.859  10.824  17.283  0.00  0.00    +0.000 NA
ENDBRANCH   9  17
ENDBRANCH   1   9
BRANCH   5  19
ATOM     19  C   UNL     1       2.644   6.517  18.362  0.00  0.00    +0.000 C 
BRANCH  19  20
ATOM     20  C   UNL     1       3.203   5.087  18.381  0.00  0.00    +0.000 C 
BRANCH  20  21
ATOM     21  C   UNL     1       4.596   4.956  17.765  0.00  0.00    +0.000 A 
ATOM     22  C   UNL     1       4.814   4.479  16.463  0.00  0.00    +0.000 A 
ATOM     23  C   UNL     1       6.104   4.284  15.973  0.00  0.00    +0.000 A 
ATOM     24  C   UNL     1       7.208   4.571  16.770  0.00  0.00    +0.000 A 
ATOM     25  C   UNL     1       7.018   5.086  18.052  0.00  0.00    +0.000 A 
ATOM     26  C   UNL     1       5.726   5.290  18.539  0.00  0.00    +0.000 A 
ENDBRANCH  20  21
BRANCH  20  27
ATOM     27  N   UNL     1       2.268   4.073  17.827  0.00  0.00    +0.000 NA
ATOM     28  H   UNL     1       2.320   4.019  16.803  0.00  0.00    +0.000 HD
BRANCH  27  29
ATOM     29  S   UNL     1       2.062   2.541  18.460  0.00  0.00    +0.000 S 
ATOM     30  C   UNL     1       2.449   2.699  20.193  0.00  0.00    +0.000 C 
ATOM     31  O   UNL     1       0.644   2.273  18.351  0.00  0.00    +0.000 OA
ATOM     32  O   UNL     1       3.029   1.658  17.846  0.00  0.00    +0.000 OA
ENDBRANCH  27  29
ENDBRANCH  20  27
ENDBRANCH  19  20
ENDBRANCH   5  19
TORSDOF 8
ENDMDL
MODEL 8
REMARK VINA RESULT:      -7.3      3.146      9.117
REMARK  Name = 
REMARK  10 active torsions:
REMARK  status: ('A' for Active; 'I' for Inactive)
REMARK    1  A    between atoms: C_1  and  C_2
REMARK    2  A    between atoms: C_7  and  C_8
REMARK    3  A    between atoms: C_8  and  C_9
REMARK    4  A    between atoms: C_8  and  N_11
REMARK    5  A    between atoms: C_15  and  C_17
REMARK    6  A    between atoms: C_17  and  C_18
REMARK    7  A    between atoms: C_18  and  N_19
REMARK    8  A    between atoms: C_18  and  C_24
REMARK    9  A    between atoms: N_19  and  S_20
REMARK   10  A    between atoms: S_20  and  C_21
REMARK                            x       y       z     vdW  Elec       q    Type
REMARK                         _______ _______ _______ _____ _____    ______ ____
ROOT
ATOM      1  N   UNL     1      -0.047  11.961  20.225  0.00  0.00    +0.000 NA
ATOM      2  C   UNL     1      -0.061  11.758  18.790  0.00  0.00    +0.000 C 
ATOM      3  C   UNL     1       0.971  10.722  18.311  0.00  0.00    +0.000 C 
ATOM      4  N   UNL     1       1.100   9.522  19.146  0.00  0.00    +0.000 N 
ATOM      5  C   UNL     1       1.972   8.535  18.653  0.00  0.00    +0.000 C 
ATOM      6  O   UNL     1       2.440   8.572  17.514  0.00  0.00    +0.000 OA
ATOM      7  C   UNL     1       0.889   9.680  20.592  0.00  0.00    +0.000 C 
ATOM      8  C   UNL     1      -0.151  10.738  20.993  0.00  0.00    +0.000 C 
ENDROOT
BRANCH   1   9
ATOM      9  C   UNL     1       0.393  13.210  20.842  0.00  0.00    +0.000 C 
BRANCH   9  16
ATOM     10  C   UNL     1       2.879  14.040  19.219  0.00  0.00    +0.000 C 
ATOM     11  C   UNL     1       1.643  14.881  19.329  0.00  0.00    +0.000 A 
ATOM     12  N   UNL     1       1.745  16.072  18.678  0.00  0.00    +0.000 NA
ATOM     13  C   UNL     1       0.639  16.826  18.544  0.00  0.00    +0.000 A 
ATOM     14  C   UNL     1      -0.596  16.441  19.016  0.00  0.00    +0.000 A 
ATOM     15  C   UNL     1      -0.684  15.244  19.725  0.00  0.00    +0.000 A 
ATOM     16  C   UNL     1       0.454  14.437  19.932  0.00  0.00    +0.000 A 
ENDBRANCH   9  16
BRANCH   9  17
ATOM     17  C   UNL     1      -0.377  13.488  22.095  0.00  0.00    +0.000 C 
ATOM     18  N   UNL     1      -0.983  13.716  23.066  0.00  0.00    +0.000 NA
ENDBRANCH   9  17
ENDBRANCH   1   9
BRANCH   5  19
ATOM     19  C   UNL     1       2.260   7.374  19.584  0.00  0.00    +0.000 C 
BRANCH  19  20
ATOM     20  C   UNL     1       2.778   6.104  18.894  0.00  0.00    +0.000 C 
BRANCH  20  21
ATOM     21  C   UNL     1       2.256   4.805  19.511  0.00  0.00    +0.000 A 
ATOM     22  C   UNL     1       1.477   3.881  18.799  0.00  0.00    +0.000 A 
ATOM     23  C   UNL     1       0.939   2.757  19.425  0.00  0.00    +0.000 A 
ATOM     24  C   UNL     1       1.176   2.526  20.776  0.00  0.00    +0.000 A 
ATOM     25  C   UNL     1       1.983   3.408  21.495  0.00  0.00    +0.000 A 
ATOM     26  C   UNL     1       2.528   4.528  20.867  0.00  0.00    +0.000 A 
ENDBRANCH  20  21
BRANCH  20  27
ATOM     27  N   UNL     1       4.255   6.072  18.733  0.00  0.00    +0.000 NA
ATOM     28  H   UNL     1       4.744   6.256  19.618  0.00  0.00    +0.000 HD
BRANCH  27  29
ATOM     29  S   UNL     1       5.080   4.904  17.870  0.00  0.00    +0.000 S 
ATOM     30  C   UNL     1       6.509   5.739  17.208  0.00  0.00    +0.000 C 
ATOM     31  O   UNL     1       5.547   3.958  18.861  0.00  0.00    +0.000 OA
ATOM     32  O   UNL     1       4.244   4.471  16.772  0.00  0.00    +0.000 OA
ENDBRANCH  27  29
ENDBRANCH  20  27
ENDBRANCH  19  20
ENDBRANCH   5  19
TORSDOF 8
ENDMDL
MODEL 9
REMARK VINA RESULT:      -7.3      3.412      9.052
REMARK  Name = 
REMARK  10 active torsions:
REMARK  status: ('A' for Active; 'I' for Inactive)
REMARK    1  A    between atoms: C_1  and  C_2
REMARK    2  A    between atoms: C_7  and  C_8
REMARK    3  A    between atoms: C_8  and  C_9
REMARK    4  A    between atoms: C_8  and  N_11
REMARK    5  A    between atoms: C_15  and  C_17
REMARK    6  A    between atoms: C_17  and  C_18
REMARK    7  A    between atoms: C_18  and  N_19
REMARK    8  A    between atoms: C_18  and  C_24
REMARK    9  A    between atoms: N_19  and  S_20
REMARK   10  A    between atoms: S_20  and  C_21
REMARK                            x       y       z     vdW  Elec       q    Type
REMARK                         _______ _______ _______ _____ _____    ______ ____
ROOT
ATOM      1  N   UNL     1      -0.505  10.572  19.781  0.00  0.00    +0.000 NA
ATOM      2  C   UNL     1      -0.491  10.276  18.363  0.00  0.00    +0.000 C 
ATOM      3  C   UNL     1       0.822   9.629  17.887  0.00  0.00    +0.000 C 
ATOM      4  N   UNL     1       1.385   8.609  18.780  0.00  0.00    +0.000 N 
ATOM      5  C   UNL     1       2.531   7.951  18.296  0.00  0.00    +0.000 C 
ATOM      6  O   UNL     1       2.922   8.068  17.134  0.00  0.00    +0.000 OA
ATOM      7  C   UNL     1       1.176   8.786  20.224  0.00  0.00    +0.000 C 
ATOM      8  C   UNL     1      -0.154   9.445  20.620  0.00  0.00    +0.000 C 
ENDROOT
BRANCH   1   9
ATOM      9  C   UNL     1      -0.510  11.936  20.304  0.00  0.00    +0.000 C 
BRANCH   9  16
ATOM     10  C   UNL     1      -3.480  12.481  19.685  0.00  0.00    +0.000 C 
ATOM     11  C   UNL     1      -2.871  12.657  21.044  0.00  0.00    +0.000 A 
ATOM     12  N   UNL     1      -3.751  13.127  21.969  0.00  0.00    +0.000 NA
ATOM     13  C   UNL     1      -3.375  13.144  23.261  0.00  0.00    +0.000 A 
ATOM     14  C   UNL     1      -2.150  12.689  23.693  0.00  0.00    +0.000 A 
ATOM     15  C   UNL     1      -1.234  12.255  22.736  0.00  0.00    +0.000 A 
ATOM     16  C   UNL     1      -1.562  12.258  21.364  0.00  0.00    +0.000 A 
ENDBRANCH   9  16
BRANCH   9  17
ATOM     17  C   UNL     1       0.862  12.345  20.742  0.00  0.00    +0.000 C 
ATOM     18  N   UNL     1       1.930  12.676  21.076  0.00  0.00    +0.000 NA
ENDBRANCH   9  17
ENDBRANCH   1   9
BRANCH   5  19
ATOM     19  C   UNL     1       3.232   7.029  19.274  0.00  0.00    +0.000 C 
BRANCH  19  20
ATOM     20  C   UNL     1       3.674   5.680  18.689  0.00  0.00    +0.000 C 
BRANCH  20  21
ATOM     21  C   UNL     1       2.714   4.529  18.992  0.00  0.00    +0.000 A 
ATOM     22  C   UNL     1       2.769   3.294  18.328  0.00  0.00    +0.000 A 
ATOM     23  C   UNL     1       1.815   2.305  18.564  0.00  0.00    +0.000 A 
ATOM     24  C   UNL     1       0.789   2.524  19.478  0.00  0.00    +0.000 A 
ATOM     25  C   UNL     1       0.738   3.727  20.182  0.00  0.00    +0.000 A 
ATOM     26  C   UNL     1       1.697   4.714  19.952  0.00  0.00    +0.000 A 
ENDBRANCH  20  21
BRANCH  20  27
ATOM     27  N   UNL     1       5.077   5.317  19.017  0.00  0.00    +0.000 NA
ATOM     28  H   UNL     1       5.134   4.446  19.557  0.00  0.00    +0.000 HD
BRANCH  27  29
ATOM     29  S   UNL     1       6.342   5.387  17.929  0.00  0.00    +0.000 S 
ATOM     30  C   UNL     1       5.694   4.698  16.418  0.00  0.00    +0.000 C 
ATOM     31  O   UNL     1       6.572   6.798  17.703  0.00  0.00    +0.000 OA
ATOM     32  O   UNL     1       7.407   4.534  18.410  0.00  0.00    +0.000 OA
ENDBRANCH  27  29
ENDBRANCH  20  27
ENDBRANCH  19  20
ENDBRANCH   5  19
TORSDOF 8
ENDMDL
