MODEL 1
REMARK VINA RESULT:      -8.3      0.000      0.000
REMARK  Name = 
REMARK  6 active torsions:
REMARK  status: ('A' for Active; 'I' for Inactive)
REMARK    1  A    between atoms: C_1  and  O_2
REMARK    2  A    between atoms: O_2  and  C_3
REMARK    3  A    between atoms: C_6  and  C_7
REMARK    4  A    between atoms: N_9  and  C_10
REMARK    5  A    between atoms: C_19  and  C_20
REMARK    6  A    between atoms: C_20  and  O_22
REMARK                            x       y       z     vdW  Elec       q    Type
REMARK                         _______ _______ _______ _____ _____    ______ ____
ROOT
ATOM      1  C   UNL     1       3.195   5.929  18.257  0.00  0.00    +0.000 A 
ATOM      2  C   UNL     1       2.356   4.817  18.082  0.00  0.00    +0.000 A 
ATOM      3  C   UNL     1       2.749   3.747  17.289  0.00  0.00    +0.000 A 
ATOM      4  F   UNL     1       1.912   2.717  17.117  0.00  0.00    +0.000 F 
ATOM      5  C   UNL     1       4.008   3.710  16.729  0.00  0.00    +0.000 A 
ATOM      6  C   UNL     1       4.876   4.779  16.959  0.00  0.00    +0.000 A 
ATOM      7  C   UNL     1       6.284   4.617  16.588  0.00  0.00    +0.000 A 
ATOM      8  O   UNL     1       6.696   3.634  15.982  0.00  0.00    +0.000 OA
ATOM      9  C   UNL     1       7.207   5.659  17.032  0.00  0.00    +0.000 A 
ATOM     10  C   UNL     1       6.692   6.778  17.555  0.00  0.00    +0.000 A 
ATOM     11  O   UNL     1       5.341   6.987  17.835  0.00  0.00    +0.000 OA
ATOM     12  C   UNL     1       4.472   5.929  17.659  0.00  0.00    +0.000 A 
ENDROOT
BRANCH   1  15
ATOM     13  C   UNL     1       2.062   8.077  18.774  0.00  0.00    +0.000 C 
ATOM     14  O   UNL     1       1.914   8.438  17.612  0.00  0.00    +0.000 OA
ATOM     15  N   UNL     1       2.695   6.906  19.150  0.00  0.00    +0.000 N 
ATOM     16  H   UNL     1       2.416   6.547  20.054  0.00  0.00    +0.000 HD
BRANCH  13  20
ATOM     17  C   UNL     1       0.241  10.227  22.073  0.00  0.00    +0.000 A 
ATOM     18  C   UNL     1       0.847   8.983  22.253  0.00  0.00    +0.000 A 
ATOM     19  C   UNL     1       1.463   8.319  21.186  0.00  0.00    +0.000 A 
ATOM     20  C   UNL     1       1.459   8.877  19.902  0.00  0.00    +0.000 A 
ATOM     21  C   UNL     1       0.858  10.137  19.725  0.00  0.00    +0.000 A 
ATOM     22  C   UNL     1       0.257  10.810  20.806  0.00  0.00    +0.000 A 
BRANCH  17  24
ATOM     23  C   UNL     1      -1.496  11.582  22.971  0.00  0.00    +0.000 C 
ATOM     24  O   UNL     1      -0.376  10.731  23.181  0.00  0.00    +0.000 OA
ENDBRANCH  17  24
ENDBRANCH  13  20
ENDBRANCH   1  15
BRANCH  10  25
ATOM     25  C   UNL     1       7.671   7.875  17.802  0.00  0.00    +0.000 C 
ATOM     26  O   UNL     1       7.671   8.944  17.228  0.00  0.00    +0.000 OA
BRANCH  25  27
ATOM     27  O   UNL     1       8.521   7.562  18.811  0.00  0.00    +0.000 OA
ATOM     28  H   UNL     1       8.171   7.782  19.704  0.00  0.00    +0.000 HD
ENDBRANCH  25  27
ENDBRANCH  10  25
TORSDOF 5
ENDMDL
MODEL 2
REMARK VINA RESULT:      -7.7      3.070      6.608
REMARK  Name = 
REMARK  6 active torsions:
REMARK  status: ('A' for Active; 'I' for Inactive)
REMARK    1  A    between atoms: C_1  and  O_2
REMARK    2  A    between atoms: O_2  and  C_3
REMARK    3  A    between atoms: C_6  and  C_7
REMARK    4  A    between atoms: N_9  and  C_10
REMARK    5  A    between atoms: C_19  and  C_20
REMARK    6  A    between atoms: C_20  and  O_22
REMARK                            x       y       z     vdW  Elec       q    Type
REMARK                         _______ _______ _______ _____ _____    ______ ____
ROOT
ATOM      1  C   UNL     1       6.158   6.403  16.930  0.00  0.00    +0.000 A 
ATOM      2  C   UNL     1       6.762   5.764  15.836  0.00  0.00    +0.000 A 
ATOM      3  C   UNL     1       6.269   4.559  15.355  0.00  0.00    +0.000 A 
ATOM      4  F   UNL     1       6.887   3.959  14.331  0.00  0.00    +0.000 F 
ATOM      5  C   UNL     1       5.118   4.009  15.880  0.00  0.00    +0.000 A 
ATOM      6  C   UNL     1       4.469   4.677  16.920  0.00  0.00    +0.000 A 
ATOM      7  C   UNL     1       3.123   4.233  17.292  0.00  0.00    +0.000 A 
ATOM      8  O   UNL     1       2.604   3.234  16.808  0.00  0.00    +0.000 OA
ATOM      9  C   UNL     1       2.386   5.078  18.229  0.00  0.00    +0.000 A 
ATOM     10  C   UNL     1       3.047   6.068  18.841  0.00  0.00    +0.000 A 
ATOM     11  O   UNL     1       4.359   6.451  18.563  0.00  0.00    +0.000 OA
ATOM     12  C   UNL     1       5.004   5.836  17.509  0.00  0.00    +0.000 A 
ENDROOT
BRANCH   1  15
ATOM     13  C   UNL     1       7.781   7.848  18.131  0.00  0.00    +0.000 C 
ATOM     14  O   UNL     1       8.319   6.950  18.771  0.00  0.00    +0.000 OA
ATOM     15  N   UNL     1       6.723   7.658  17.261  0.00  0.00    +0.000 N 
ATOM     16  H   UNL     1       6.638   8.362  16.540  0.00  0.00    +0.000 HD
BRANCH  13  20
ATOM     17  C   UNL     1       9.327  11.887  18.484  0.00  0.00    +0.000 A 
ATOM     18  C   UNL     1       9.798  10.847  19.288  0.00  0.00    +0.000 A 
ATOM     19  C   UNL     1       9.316   9.543  19.137  0.00  0.00    +0.000 A 
ATOM     20  C   UNL     1       8.325   9.255  18.191  0.00  0.00    +0.000 A 
ATOM     21  C   UNL     1       7.860  10.302  17.373  0.00  0.00    +0.000 A 
ATOM     22  C   UNL     1       8.363  11.608  17.516  0.00  0.00    +0.000 A 
BRANCH  17  24
ATOM     23  C   UNL     1      10.885  13.604  17.954  0.00  0.00    +0.000 C 
ATOM     24  O   UNL     1       9.836  13.118  18.781  0.00  0.00    +0.000 OA
ENDBRANCH  17  24
ENDBRANCH  13  20
ENDBRANCH   1  15
BRANCH  10  25
ATOM     25  C   UNL     1       2.293   6.761  19.925  0.00  0.00    +0.000 C 
ATOM     26  O   UNL     1       1.884   7.901  19.862  0.00  0.00    +0.000 OA
BRANCH  25  27
ATOM     27  O   UNL     1       2.049   5.929  20.967  0.00  0.00    +0.000 OA
ATOM     28  H   UNL     1       1.196   6.108  21.424  0.00  0.00    +0.000 HD
ENDBRANCH  25  27
ENDBRANCH  10  25
TORSDOF 5
ENDMDL
MODEL 3
REMARK VINA RESULT:      -7.6      2.737      4.138
REMARK  Name = 
REMARK  6 active torsions:
REMARK  status: ('A' for Active; 'I' for Inactive)
REMARK    1  A    between atoms: C_1  and  O_2
REMARK    2  A    between atoms: O_2  and  C_3
REMARK    3  A    between atoms: C_6  and  C_7
REMARK    4  A    between atoms: N_9  and  C_10
REMARK    5  A    between atoms: C_19  and  C_20
REMARK    6  A    between atoms: C_20  and  O_22
REMARK                            x       y       z     vdW  Elec       q    Type
REMARK                         _______ _______ _______ _____ _____    ______ ____
ROOT
ATOM      1  C   UNL     1       3.290   6.723  18.752  0.00  0.00    +0.000 A 
ATOM      2  C   UNL     1       3.802   7.263  17.561  0.00  0.00    +0.000 A 
ATOM      3  C   UNL     1       4.444   6.456  16.633  0.00  0.00    +0.000 A 
ATOM      4  F   UNL     1       4.950   7.007  15.523  0.00  0.00    +0.000 F 
ATOM      5  C   UNL     1       4.514   5.090  16.814  0.00  0.00    +0.000 A 
ATOM      6  C   UNL     1       3.942   4.537  17.961  0.00  0.00    +0.000 A 
ATOM      7  C   UNL     1       3.787   3.081  18.021  0.00  0.00    +0.000 A 
ATOM      8  O   UNL     1       4.245   2.335  17.162  0.00  0.00    +0.000 OA
ATOM      9  C   UNL     1       2.997   2.547  19.128  0.00  0.00    +0.000 A 
ATOM     10  C   UNL     1       2.649   3.381  20.115  0.00  0.00    +0.000 A 
ATOM     11  O   UNL     1       2.866   4.759  20.117  0.00  0.00    +0.000 OA
ATOM     12  C   UNL     1       3.387   5.335  18.976  0.00  0.00    +0.000 A 
ENDROOT
BRANCH   1  15
ATOM     13  C   UNL     1       1.656   8.558  19.111  0.00  0.00    +0.000 C 
ATOM     14  O   UNL     1       1.356   8.708  17.932  0.00  0.00    +0.000 OA
ATOM     15  N   UNL     1       2.597   7.651  19.565  0.00  0.00    +0.000 N 
ATOM     16  H   UNL     1       2.471   7.358  20.525  0.00  0.00    +0.000 HD
BRANCH  13  20
ATOM     17  C   UNL     1      -0.317  10.873  22.204  0.00  0.00    +0.000 A 
ATOM     18  C   UNL     1       0.223  11.477  21.068  0.00  0.00    +0.000 A 
ATOM     19  C   UNL     1       0.823  10.712  20.062  0.00  0.00    +0.000 A 
ATOM     20  C   UNL     1       0.922   9.321  20.187  0.00  0.00    +0.000 A 
ATOM     21  C   UNL     1       0.366   8.714  21.328  0.00  0.00    +0.000 A 
ATOM     22  C   UNL     1      -0.254   9.486  22.327  0.00  0.00    +0.000 A 
BRANCH  17  24
ATOM     23  C   UNL     1      -2.229  11.872  23.209  0.00  0.00    +0.000 C 
ATOM     24  O   UNL     1      -0.814  11.741  23.133  0.00  0.00    +0.000 OA
ENDBRANCH  17  24
ENDBRANCH  13  20
ENDBRANCH   1  15
BRANCH  10  25
ATOM     25  C   UNL     1       2.020   2.734  21.303  0.00  0.00    +0.000 C 
ATOM     26  O   UNL     1       2.630   2.292  22.252  0.00  0.00    +0.000 OA
BRANCH  25  27
ATOM     27  O   UNL     1       0.666   2.773  21.228  0.00  0.00    +0.000 OA
ATOM     28  H   UNL     1       0.242   1.887  21.283  0.00  0.00    +0.000 HD
ENDBRANCH  25  27
ENDBRANCH  10  25
TORSDOF 5
ENDMDL
MODEL 4
REMARK VINA RESULT:      -7.4      2.764      3.991
REMARK  Name = 
REMARK  6 active torsions:
REMARK  status: ('A' for Active; 'I' for Inactive)
REMARK    1  A    between atoms: C_1  and  O_2
REMARK    2  A    between atoms: O_2  and  C_3
REMARK    3  A    between atoms: C_6  and  C_7
REMARK    4  A    between atoms: N_9  and  C_10
REMARK    5  A    between atoms: C_19  and  C_20
REMARK    6  A    between atoms: C_20  and  O_22
REMARK                            x       y       z     vdW  Elec       q    Type
REMARK                         _______ _______ _______ _____ _____    ______ ____
ROOT
ATOM      1  C   UNL     1       3.297   6.692  18.810  0.00  0.00    +0.000 A 
ATOM      2  C   UNL     1       3.794   7.229  17.612  0.00  0.00    +0.000 A 
ATOM      3  C   UNL     1       4.435   6.423  16.682  0.00  0.00    +0.000 A 
ATOM      4  F   UNL     1       4.926   6.973  15.565  0.00  0.00    +0.000 F 
ATOM      5  C   UNL     1       4.518   5.059  16.870  0.00  0.00    +0.000 A 
ATOM      6  C   UNL     1       3.961   4.507  18.025  0.00  0.00    +0.000 A 
ATOM      7  C   UNL     1       3.819   3.050  18.094  0.00  0.00    +0.000 A 
ATOM      8  O   UNL     1       4.276   2.304  17.235  0.00  0.00    +0.000 OA
ATOM      9  C   UNL     1       3.044   2.515  19.210  0.00  0.00    +0.000 A 
ATOM     10  C   UNL     1       2.697   3.351  20.196  0.00  0.00    +0.000 A 
ATOM     11  O   UNL     1       2.902   4.731  20.189  0.00  0.00    +0.000 OA
ATOM     12  C   UNL     1       3.408   5.305  19.041  0.00  0.00    +0.000 A 
ENDROOT
BRANCH   1  15
ATOM     13  C   UNL     1       1.679   8.540  19.168  0.00  0.00    +0.000 C 
ATOM     14  O   UNL     1       1.397   8.708  17.986  0.00  0.00    +0.000 OA
ATOM     15  N   UNL     1       2.603   7.618  19.625  0.00  0.00    +0.000 N 
ATOM     16  H   UNL     1       2.460   7.316  20.579  0.00  0.00    +0.000 HD
BRANCH  13  20
ATOM     17  C   UNL     1      -0.502  10.564  22.326  0.00  0.00    +0.000 A 
ATOM     18  C   UNL     1       0.353   9.493  22.594  0.00  0.00    +0.000 A 
ATOM     19  C   UNL     1       1.077   8.875  21.569  0.00  0.00    +0.000 A 
ATOM     20  C   UNL     1       0.939   9.300  20.242  0.00  0.00    +0.000 A 
ATOM     21  C   UNL     1       0.086  10.387  19.976  0.00  0.00    +0.000 A 
ATOM     22  C   UNL     1      -0.626  11.018  21.013  0.00  0.00    +0.000 A 
BRANCH  17  24
ATOM     23  C   UNL     1      -2.279  11.913  23.151  0.00  0.00    +0.000 C 
ATOM     24  O   UNL     1      -1.194  11.030  23.407  0.00  0.00    +0.000 OA
ENDBRANCH  17  24
ENDBRANCH  13  20
ENDBRANCH   1  15
BRANCH  10  25
ATOM     25  C   UNL     1       2.084   2.705  21.393  0.00  0.00    +0.000 C 
ATOM     26  O   UNL     1       0.895   2.674  21.627  0.00  0.00    +0.000 OA
BRANCH  25  27
ATOM     27  O   UNL     1       3.019   2.082  22.152  0.00  0.00    +0.000 OA
ATOM     28  H   UNL     1       3.773   2.661  22.404  0.00  0.00    +0.000 HD
ENDBRANCH  25  27
ENDBRANCH  10  25
TORSDOF 5
ENDMDL
MODEL 5
REMARK VINA RESULT:      -7.4      2.739      4.076
REMARK  Name = 
REMARK  6 active torsions:
REMARK  status: ('A' for Active; 'I' for Inactive)
REMARK    1  A    between atoms: C_1  and  O_2
REMARK    2  A    between atoms: O_2  and  C_3
REMARK    3  A    between atoms: C_6  and  C_7
REMARK    4  A    between atoms: N_9  and  C_10
REMARK    5  A    between atoms: C_19  and  C_20
REMARK    6  A    between atoms: C_20  and  O_22
REMARK                            x       y       z     vdW  Elec       q    Type
REMARK                         _______ _______ _______ _____ _____    ______ ____
ROOT
ATOM      1  C   UNL     1       3.253   6.754  18.457  0.00  0.00    +0.000 A 
ATOM      2  C   UNL     1       3.870   7.182  17.272  0.00  0.00    +0.000 A 
ATOM      3  C   UNL     1       4.613   6.302  16.498  0.00  0.00    +0.000 A 
ATOM      4  F   UNL     1       5.216   6.751  15.390  0.00  0.00    +0.000 F 
ATOM      5  C   UNL     1       4.687   4.965  16.826  0.00  0.00    +0.000 A 
ATOM      6  C   UNL     1       4.015   4.516  17.964  0.00  0.00    +0.000 A 
ATOM      7  C   UNL     1       3.879   3.070  18.160  0.00  0.00    +0.000 A 
ATOM      8  O   UNL     1       4.431   2.253  17.432  0.00  0.00    +0.000 OA
ATOM      9  C   UNL     1       2.993   2.631  19.236  0.00  0.00    +0.000 A 
ATOM     10  C   UNL     1       2.537   3.552  20.094  0.00  0.00    +0.000 A 
ATOM     11  O   UNL     1       2.730   4.928  19.973  0.00  0.00    +0.000 OA
ATOM     12  C   UNL     1       3.351   5.398  18.833  0.00  0.00    +0.000 A 
ENDROOT
BRANCH   1  15
ATOM     13  C   UNL     1       1.881   8.823  18.469  0.00  0.00    +0.000 C 
ATOM     14  O   UNL     1       2.024   9.090  17.281  0.00  0.00    +0.000 OA
ATOM     15  N   UNL     1       2.468   7.740  19.100  0.00  0.00    +0.000 N 
ATOM     16  H   UNL     1       1.983   7.421  19.928  0.00  0.00    +0.000 HD
BRANCH  13  20
ATOM     17  C   UNL     1      -0.863  11.020  21.012  0.00  0.00    +0.000 A 
ATOM     18  C   UNL     1      -0.013  10.039  21.525  0.00  0.00    +0.000 A 
ATOM     19  C   UNL     1       0.892   9.366  20.698  0.00  0.00    +0.000 A 
ATOM     20  C   UNL     1       0.946   9.641  19.326  0.00  0.00    +0.000 A 
ATOM     21  C   UNL     1       0.096  10.638  18.814  0.00  0.00    +0.000 A 
ATOM     22  C   UNL     1      -0.799  11.327  19.653  0.00  0.00    +0.000 A 
BRANCH  17  24
ATOM     23  C   UNL     1      -1.188  12.322  22.976  0.00  0.00    +0.000 C 
ATOM     24  O   UNL     1      -1.738  11.551  21.916  0.00  0.00    +0.000 OA
ENDBRANCH  17  24
ENDBRANCH  13  20
ENDBRANCH   1  15
BRANCH  10  25
ATOM     25  C   UNL     1       1.805   3.013  21.276  0.00  0.00    +0.000 C 
ATOM     26  O   UNL     1       2.311   2.778  22.353  0.00  0.00    +0.000 OA
BRANCH  25  27
ATOM     27  O   UNL     1       0.478   2.893  21.024  0.00  0.00    +0.000 OA
ATOM     28  H   UNL     1       0.095   3.664  20.548  0.00  0.00    +0.000 HD
ENDBRANCH  25  27
ENDBRANCH  10  25
TORSDOF 5
ENDMDL
MODEL 6
REMARK VINA RESULT:      -7.3      0.727      1.190
REMARK  Name = 
REMARK  6 active torsions:
REMARK  status: ('A' for Active; 'I' for Inactive)
REMARK    1  A    between atoms: C_1  and  O_2
REMARK    2  A    between atoms: O_2  and  C_3
REMARK    3  A    between atoms: C_6  and  C_7
REMARK    4  A    between atoms: N_9  and  C_10
REMARK    5  A    between atoms: C_19  and  C_20
REMARK    6  A    between atoms: C_20  and  O_22
REMARK                            x       y       z     vdW  Elec       q    Type
REMARK                         _______ _______ _______ _____ _____    ______ ____
ROOT
ATOM      1  C   UNL     1       2.777   5.666  18.401  0.00  0.00    +0.000 A 
ATOM      2  C   UNL     1       1.972   4.516  18.428  0.00  0.00    +0.000 A 
ATOM      3  C   UNL     1       2.320   3.387  17.700  0.00  0.00    +0.000 A 
ATOM      4  F   UNL     1       1.514   2.319  17.721  0.00  0.00    +0.000 F 
ATOM      5  C   UNL     1       3.511   3.334  17.007  0.00  0.00    +0.000 A 
ATOM      6  C   UNL     1       4.353   4.447  17.035  0.00  0.00    +0.000 A 
ATOM      7  C   UNL     1       5.717   4.294  16.523  0.00  0.00    +0.000 A 
ATOM      8  O   UNL     1       6.100   3.270  15.969  0.00  0.00    +0.000 OA
ATOM      9  C   UNL     1       6.638   5.404  16.760  0.00  0.00    +0.000 A 
ATOM     10  C   UNL     1       6.136   6.552  17.229  0.00  0.00    +0.000 A 
ATOM     11  O   UNL     1       4.818   6.744  17.640  0.00  0.00    +0.000 OA
ATOM     12  C   UNL     1       3.980   5.647  17.664  0.00  0.00    +0.000 A 
ENDROOT
BRANCH   1  15
ATOM     13  C   UNL     1       1.890   7.946  18.821  0.00  0.00    +0.000 C 
ATOM     14  O   UNL     1       1.879   8.308  17.649  0.00  0.00    +0.000 OA
ATOM     15  N   UNL     1       2.338   6.710  19.249  0.00  0.00    +0.000 N 
ATOM     16  H   UNL     1       1.946   6.401  20.129  0.00  0.00    +0.000 HD
BRANCH  13  20
ATOM     17  C   UNL     1       0.317  10.627  21.848  0.00  0.00    +0.000 A 
ATOM     18  C   UNL     1       0.395  11.000  20.505  0.00  0.00    +0.000 A 
ATOM     19  C   UNL     1       0.870  10.111  19.536  0.00  0.00    +0.000 A 
ATOM     20  C   UNL     1       1.308   8.831  19.896  0.00  0.00    +0.000 A 
ATOM     21  C   UNL     1       1.217   8.452  21.248  0.00  0.00    +0.000 A 
ATOM     22  C   UNL     1       0.720   9.344  22.217  0.00  0.00    +0.000 A 
BRANCH  17  24
ATOM     23  C   UNL     1      -1.473  11.594  23.081  0.00  0.00    +0.000 C 
ATOM     24  O   UNL     1      -0.104  11.612  22.694  0.00  0.00    +0.000 OA
ENDBRANCH  17  24
ENDBRANCH  13  20
ENDBRANCH   1  15
BRANCH  10  25
ATOM     25  C   UNL     1       7.090   7.698  17.259  0.00  0.00    +0.000 C 
ATOM     26  O   UNL     1       6.909   8.731  17.867  0.00  0.00    +0.000 OA
BRANCH  25  27
ATOM     27  O   UNL     1       8.230   7.411  16.583  0.00  0.00    +0.000 OA
ATOM     28  H   UNL     1       9.009   7.266  17.167  0.00  0.00    +0.000 HD
ENDBRANCH  25  27
ENDBRANCH  10  25
TORSDOF 5
ENDMDL
MODEL 7
REMARK VINA RESULT:      -7.3      2.844      4.244
REMARK  Name = 
REMARK  6 active torsions:
REMARK  status: ('A' for Active; 'I' for Inactive)
REMARK    1  A    between atoms: C_1  and  O_2
REMARK    2  A    between atoms: O_2  and  C_3
REMARK    3  A    between atoms: C_6  and  C_7
REMARK    4  A    between atoms: N_9  and  C_10
REMARK    5  A    between atoms: C_19  and  C_20
REMARK    6  A    between atoms: C_20  and  O_22
REMARK                            x       y       z     vdW  Elec       q    Type
REMARK                         _______ _______ _______ _____ _____    ______ ____
ROOT
ATOM      1  C   UNL     1       3.138   6.924  18.448  0.00  0.00    +0.000 A 
ATOM      2  C   UNL     1       3.746   7.374  17.265  0.00  0.00    +0.000 A 
ATOM      3  C   UNL     1       4.533   6.524  16.501  0.00  0.00    +0.000 A 
ATOM      4  F   UNL     1       5.125   6.994  15.397  0.00  0.00    +0.000 F 
ATOM      5  C   UNL     1       4.662   5.193  16.836  0.00  0.00    +0.000 A 
ATOM      6  C   UNL     1       4.001   4.720  17.971  0.00  0.00    +0.000 A 
ATOM      7  C   UNL     1       3.926   3.270  18.173  0.00  0.00    +0.000 A 
ATOM      8  O   UNL     1       4.519   2.475  17.453  0.00  0.00    +0.000 OA
ATOM      9  C   UNL     1       3.051   2.798  19.244  0.00  0.00    +0.000 A 
ATOM     10  C   UNL     1       2.548   3.702  20.093  0.00  0.00    +0.000 A 
ATOM     11  O   UNL     1       2.682   5.084  19.968  0.00  0.00    +0.000 OA
ATOM     12  C   UNL     1       3.291   5.576  18.831  0.00  0.00    +0.000 A 
ENDROOT
BRANCH   1  15
ATOM     13  C   UNL     1       1.766   8.993  18.463  0.00  0.00    +0.000 C 
ATOM     14  O   UNL     1       1.997   9.321  17.305  0.00  0.00    +0.000 OA
ATOM     15  N   UNL     1       2.306   7.879  19.080  0.00  0.00    +0.000 N 
ATOM     16  H   UNL     1       1.760   7.518  19.851  0.00  0.00    +0.000 HD
BRANCH  13  20
ATOM     17  C   UNL     1      -1.066  11.369  20.735  0.00  0.00    +0.000 A 
ATOM     18  C   UNL     1      -1.039  11.394  19.340  0.00  0.00    +0.000 A 
ATOM     19  C   UNL     1      -0.145  10.594  18.621  0.00  0.00    +0.000 A 
ATOM     20  C   UNL     1       0.768   9.769  19.288  0.00  0.00    +0.000 A 
ATOM     21  C   UNL     1       0.731   9.735  20.695  0.00  0.00    +0.000 A 
ATOM     22  C   UNL     1      -0.184  10.527  21.413  0.00  0.00    +0.000 A 
BRANCH  17  24
ATOM     23  C   UNL     1      -3.033  12.688  20.511  0.00  0.00    +0.000 C 
ATOM     24  O   UNL     1      -1.942  12.245  21.309  0.00  0.00    +0.000 OA
ENDBRANCH  17  24
ENDBRANCH  13  20
ENDBRANCH   1  15
BRANCH  10  25
ATOM     25  C   UNL     1       1.831   3.136  21.272  0.00  0.00    +0.000 C 
ATOM     26  O   UNL     1       2.322   2.982  22.370  0.00  0.00    +0.000 OA
BRANCH  25  27
ATOM     27  O   UNL     1       0.529   2.889  20.987  0.00  0.00    +0.000 OA
ATOM     28  H   UNL     1       0.139   3.520  20.340  0.00  0.00    +0.000 HD
ENDBRANCH  25  27
ENDBRANCH  10  25
TORSDOF 5
ENDMDL
MODEL 8
REMARK VINA RESULT:      -7.2      3.693      8.795
REMARK  Name = 
REMARK  6 active torsions:
REMARK  status: ('A' for Active; 'I' for Inactive)
REMARK    1  A    between atoms: C_1  and  O_2
REMARK    2  A    between atoms: O_2  and  C_3
REMARK    3  A    between atoms: C_6  and  C_7
REMARK    4  A    between atoms: N_9  and  C_10
REMARK    5  A    between atoms: C_19  and  C_20
REMARK    6  A    between atoms: C_20  and  O_22
REMARK                            x       y       z     vdW  Elec       q    Type
REMARK                         _______ _______ _______ _____ _____    ______ ____
ROOT
ATOM      1  C   UNL     1       0.065   9.894  19.675  0.00  0.00    +0.000 A 
ATOM      2  C   UNL     1       0.286  10.134  21.041  0.00  0.00    +0.000 A 
ATOM      3  C   UNL     1      -0.438  11.104  21.719  0.00  0.00    +0.000 A 
ATOM      4  F   UNL     1      -0.180  11.330  23.013  0.00  0.00    +0.000 F 
ATOM      5  C   UNL     1      -1.456  11.791  21.092  0.00  0.00    +0.000 A 
ATOM      6  C   UNL     1      -1.731  11.506  19.753  0.00  0.00    +0.000 A 
ATOM      7  C   UNL     1      -2.966  12.040  19.173  0.00  0.00    +0.000 A 
ATOM      8  O   UNL     1      -3.695  12.816  19.780  0.00  0.00    +0.000 OA
ATOM      9  C   UNL     1      -3.336  11.553  17.846  0.00  0.00    +0.000 A 
ATOM     10  C   UNL     1      -2.439  10.829  17.166  0.00  0.00    +0.000 A 
ATOM     11  O   UNL     1      -1.217  10.385  17.671  0.00  0.00    +0.000 OA
ATOM     12  C   UNL     1      -0.943  10.615  19.004  0.00  0.00    +0.000 A 
ENDROOT
BRANCH   1  15
ATOM     13  C   UNL     1       1.848   8.963  18.219  0.00  0.00    +0.000 C 
ATOM     14  O   UNL     1       2.183  10.028  17.713  0.00  0.00    +0.000 OA
ATOM     15  N   UNL     1       0.822   8.826  19.138  0.00  0.00    +0.000 N 
ATOM     16  H   UNL     1       0.903   8.019  19.742  0.00  0.00    +0.000 HD
BRANCH  13  20
ATOM     17  C   UNL     1       4.049   5.285  17.545  0.00  0.00    +0.000 A 
ATOM     18  C   UNL     1       2.785   5.286  18.137  0.00  0.00    +0.000 A 
ATOM     19  C   UNL     1       2.072   6.477  18.314  0.00  0.00    +0.000 A 
ATOM     20  C   UNL     1       2.626   7.703  17.926  0.00  0.00    +0.000 A 
ATOM     21  C   UNL     1       3.895   7.698  17.317  0.00  0.00    +0.000 A 
ATOM     22  C   UNL     1       4.599   6.495  17.124  0.00  0.00    +0.000 A 
BRANCH  17  24
ATOM     23  C   UNL     1       4.322   3.127  18.509  0.00  0.00    +0.000 C 
ATOM     24  O   UNL     1       4.657   4.064  17.492  0.00  0.00    +0.000 OA
ENDBRANCH  17  24
ENDBRANCH  13  20
ENDBRANCH   1  15
BRANCH  10  25
ATOM     25  C   UNL     1      -2.800  10.535  15.750  0.00  0.00    +0.000 C 
ATOM     26  O   UNL     1      -2.669   9.456  15.213  0.00  0.00    +0.000 OA
BRANCH  25  27
ATOM     27  O   UNL     1      -3.374  11.609  15.152  0.00  0.00    +0.000 OA
ATOM     28  H   UNL     1      -2.763  12.372  15.042  0.00  0.00    +0.000 HD
ENDBRANCH  25  27
ENDBRANCH  10  25
TORSDOF 5
ENDMDL
MODEL 9
REMARK VINA RESULT:      -7.2      3.607      8.857
REMARK  Name = 
REMARK  6 active torsions:
REMARK  status: ('A' for Active; 'I' for Inactive)
REMARK    1  A    between atoms: C_1  and  O_2
REMARK    2  A    between atoms: O_2  and  C_3
REMARK    3  A    between atoms: C_6  and  C_7
REMARK    4  A    between atoms: N_9  and  C_10
REMARK    5  A    between atoms: C_19  and  C_20
REMARK    6  A    between atoms: C_20  and  O_22
REMARK                            x       y       z     vdW  Elec       q    Type
REMARK                         _______ _______ _______ _____ _____    ______ ____
ROOT
ATOM      1  C   UNL     1       0.134   9.801  19.689  0.00  0.00    +0.000 A 
ATOM      2  C   UNL     1       0.349  10.038  21.056  0.00  0.00    +0.000 A 
ATOM      3  C   UNL     1      -0.364  11.020  21.729  0.00  0.00    +0.000 A 
ATOM      4  F   UNL     1      -0.112  11.242  23.024  0.00  0.00    +0.000 F 
ATOM      5  C   UNL     1      -1.366  11.723  21.094  0.00  0.00    +0.000 A 
ATOM      6  C   UNL     1      -1.637  11.442  19.753  0.00  0.00    +0.000 A 
ATOM      7  C   UNL     1      -2.859  11.996  19.165  0.00  0.00    +0.000 A 
ATOM      8  O   UNL     1      -3.579  12.785  19.767  0.00  0.00    +0.000 OA
ATOM      9  C   UNL     1      -3.227  11.515  17.835  0.00  0.00    +0.000 A 
ATOM     10  C   UNL     1      -2.336  10.777  17.162  0.00  0.00    +0.000 A 
ATOM     11  O   UNL     1      -1.126  10.313  17.675  0.00  0.00    +0.000 OA
ATOM     12  C   UNL     1      -0.858  10.539  19.010  0.00  0.00    +0.000 A 
ENDROOT
BRANCH   1  15
ATOM     13  C   UNL     1       1.908   8.841  18.241  0.00  0.00    +0.000 C 
ATOM     14  O   UNL     1       2.260   9.900  17.732  0.00  0.00    +0.000 OA
ATOM     15  N   UNL     1       0.878   8.721  19.156  0.00  0.00    +0.000 N 
ATOM     16  H   UNL     1       0.945   7.915  19.764  0.00  0.00    +0.000 HD
BRANCH  13  20
ATOM     17  C   UNL     1       4.122   5.245  17.245  0.00  0.00    +0.000 A 
ATOM     18  C   UNL     1       4.602   6.516  16.923  0.00  0.00    +0.000 A 
ATOM     19  C   UNL     1       3.894   7.667  17.284  0.00  0.00    +0.000 A 
ATOM     20  C   UNL     1       2.668   7.569  17.953  0.00  0.00    +0.000 A 
ATOM     21  C   UNL     1       2.193   6.288  18.288  0.00  0.00    +0.000 A 
ATOM     22  C   UNL     1       2.919   5.134  17.941  0.00  0.00    +0.000 A 
BRANCH  17  24
ATOM     23  C   UNL     1       6.032   4.542  16.014  0.00  0.00    +0.000 C 
ATOM     24  O   UNL     1       4.880   4.210  16.778  0.00  0.00    +0.000 OA
ENDBRANCH  17  24
ENDBRANCH  13  20
ENDBRANCH   1  15
BRANCH  10  25
ATOM     25  C   UNL     1      -2.692  10.489  15.742  0.00  0.00    +0.000 C 
ATOM     26  O   UNL     1      -2.515   9.425  15.189  0.00  0.00    +0.000 OA
BRANCH  25  27
ATOM     27  O   UNL     1      -3.319  11.544  15.165  0.00  0.00    +0.000 OA
ATOM     28  H   UNL     1      -4.298  11.454  15.136  0.00  0.00    +0.000 HD
ENDBRANCH  25  27
ENDBRANCH  10  25
TORSDOF 5
ENDMDL
