MODEL 1
REMARK VINA RESULT:      -8.5      0.000      0.000
REMARK  Name = 
REMARK  5 active torsions:
REMARK  status: ('A' for Active; 'I' for Inactive)
REMARK    1  A    between atoms: C_4  and  C_5
REMARK    2  A    between atoms: C_16  and  C_17
REMARK    3  A    between atoms: C_17  and  N_18
REMARK    4  A    between atoms: N_18  and  C_19
REMARK    5  A    between atoms: C_19  and  C_20
REMARK                            x       y       z     vdW  Elec       q    Type
REMARK                         _______ _______ _______ _____ _____    ______ ____
ROOT
ATOM      1  N   UNL     1       2.214   3.729  21.558  0.00  0.00    +0.000 N 
ATOM      2  C   UNL     1       2.553   4.685  20.632  0.00  0.00    +0.000 A 
ATOM      3  N   UNL     1       3.510   4.361  19.731  0.00  0.00    +0.000 NA
ATOM      4  C   UNL     1       3.841   5.261  18.761  0.00  0.00    +0.000 A 
ATOM      5  C   UNL     1       3.184   6.459  18.724  0.00  0.00    +0.000 A 
ATOM      6  C   UNL     1       2.253   6.720  19.716  0.00  0.00    +0.000 A 
ATOM      7  N   UNL     1       1.921   5.866  20.692  0.00  0.00    +0.000 NA
ATOM      8  C   UNL     1       1.689   8.041  19.531  0.00  0.00    +0.000 A 
ATOM      9  C   UNL     1       0.753   8.774  20.236  0.00  0.00    +0.000 A 
ATOM     10  C   UNL     1       0.423  10.077  19.788  0.00  0.00    +0.000 A 
ATOM     11  C   UNL     1       1.045  10.613  18.632  0.00  0.00    +0.000 A 
ATOM     12  C   UNL     1       1.981   9.874  17.919  0.00  0.00    +0.000 A 
ATOM     13  C   UNL     1       2.266   8.610  18.391  0.00  0.00    +0.000 A 
ATOM     14  C   UNL     1       3.192   7.627  17.822  0.00  0.00    +0.000 C 
ATOM     15  O   UNL     1       3.790   7.798  16.780  0.00  0.00    +0.000 OA
ATOM     16  H   UNL     1       2.949   3.045  21.670  0.00  0.00    +0.000 HD
ATOM     17  H   UNL     1       1.810   4.137  22.388  0.00  0.00    +0.000 HD
ENDROOT
BRANCH   4  18
ATOM     18  C   UNL     1       4.904   4.844  17.821  0.00  0.00    +0.000 A 
ATOM     19  C   UNL     1       4.593   4.334  16.546  0.00  0.00    +0.000 A 
ATOM     20  C   UNL     1       5.601   3.974  15.640  0.00  0.00    +0.000 A 
ATOM     21  C   UNL     1       6.940   4.130  15.977  0.00  0.00    +0.000 A 
ATOM     22  C   UNL     1       7.276   4.613  17.232  0.00  0.00    +0.000 A 
ATOM     23  C   UNL     1       6.270   4.929  18.148  0.00  0.00    +0.000 A 
ENDBRANCH   4  18
BRANCH  10  24
ATOM     24  C   UNL     1      -0.606  10.899  20.534  0.00  0.00    +0.000 C 
BRANCH  24  25
ATOM     25  N   UNL     1      -1.049  12.013  19.709  0.00  0.00    +0.000 NA
ATOM     26  H   UNL     1      -0.670  11.907  18.768  0.00  0.00    +0.000 HD
BRANCH  25  27
ATOM     27  C   UNL     1      -2.504  12.072  19.608  0.00  0.00    +0.000 C 
BRANCH  27  28
ATOM     28  C   UNL     1      -2.913  11.663  18.239  0.00  0.00    +0.000 A 
ATOM     29  C   UNL     1      -2.223  11.156  17.157  0.00  0.00    +0.000 A 
ATOM     30  C   UNL     1      -3.185  10.910  16.148  0.00  0.00    +0.000 A 
ATOM     31  C   UNL     1      -4.399  11.282  16.678  0.00  0.00    +0.000 A 
ATOM     32  O   UNL     1      -4.245  11.742  17.946  0.00  0.00    +0.000 OA
ENDBRANCH  27  28
ENDBRANCH  25  27
ENDBRANCH  24  25
ENDBRANCH  10  24
TORSDOF 5
ENDMDL
MODEL 2
REMARK VINA RESULT:      -8.3      2.245      2.945
REMARK  Name = 
REMARK  5 active torsions:
REMARK  status: ('A' for Active; 'I' for Inactive)
REMARK    1  A    between atoms: C_4  and  C_5
REMARK    2  A    between atoms: C_16  and  C_17
REMARK    3  A    between atoms: C_17  and  N_18
REMARK    4  A    between atoms: N_18  and  C_19
REMARK    5  A    between atoms: C_19  and  C_20
REMARK                            x       y       z     vdW  Elec       q    Type
REMARK                         _______ _______ _______ _____ _____    ______ ____
ROOT
ATOM      1  N   UNL     1       2.337   3.617  21.486  0.00  0.00    +0.000 N 
ATOM      2  C   UNL     1       2.646   4.593  20.570  0.00  0.00    +0.000 A 
ATOM      3  N   UNL     1       3.553   4.280  19.615  0.00  0.00    +0.000 NA
ATOM      4  C   UNL     1       3.851   5.201  18.654  0.00  0.00    +0.000 A 
ATOM      5  C   UNL     1       3.211   6.408  18.681  0.00  0.00    +0.000 A 
ATOM      6  C   UNL     1       2.333   6.655  19.723  0.00  0.00    +0.000 A 
ATOM      7  N   UNL     1       2.036   5.781  20.692  0.00  0.00    +0.000 NA
ATOM      8  C   UNL     1       1.781   7.989  19.600  0.00  0.00    +0.000 A 
ATOM      9  C   UNL     1       0.891   8.716  20.368  0.00  0.00    +0.000 A 
ATOM     10  C   UNL     1       0.560  10.034  19.971  0.00  0.00    +0.000 A 
ATOM     11  C   UNL     1       1.133  10.592  18.800  0.00  0.00    +0.000 A 
ATOM     12  C   UNL     1       2.023   9.860  18.024  0.00  0.00    +0.000 A 
ATOM     13  C   UNL     1       2.311   8.580  18.448  0.00  0.00    +0.000 A 
ATOM     14  C   UNL     1       3.193   7.600  17.810  0.00  0.00    +0.000 C 
ATOM     15  O   UNL     1       3.743   7.790  16.745  0.00  0.00    +0.000 OA
ATOM     16  H   UNL     1       3.067   2.920  21.545  0.00  0.00    +0.000 HD
ATOM     17  H   UNL     1       1.980   4.008  22.345  0.00  0.00    +0.000 HD
ENDROOT
BRANCH   4  18
ATOM     18  C   UNL     1       4.861   4.794  17.653  0.00  0.00    +0.000 A 
ATOM     19  C   UNL     1       4.482   4.305  16.389  0.00  0.00    +0.000 A 
ATOM     20  C   UNL     1       5.438   3.956  15.426  0.00  0.00    +0.000 A 
ATOM     21  C   UNL     1       6.794   4.102  15.695  0.00  0.00    +0.000 A 
ATOM     22  C   UNL     1       7.198   4.564  16.937  0.00  0.00    +0.000 A 
ATOM     23  C   UNL     1       6.243   4.869  17.909  0.00  0.00    +0.000 A 
ENDBRANCH   4  18
BRANCH  10  24
ATOM     24  C   UNL     1      -0.420  10.850  20.786  0.00  0.00    +0.000 C 
BRANCH  24  25
ATOM     25  N   UNL     1      -0.011  10.873  22.183  0.00  0.00    +0.000 NA
ATOM     26  H   UNL     1       0.464  11.754  22.380  0.00  0.00    +0.000 HD
BRANCH  25  27
ATOM     27  C   UNL     1      -1.151  10.760  23.088  0.00  0.00    +0.000 C 
BRANCH  27  28
ATOM     28  C   UNL     1      -1.845  12.072  23.163  0.00  0.00    +0.000 A 
ATOM     29  C   UNL     1      -3.152  12.465  22.957  0.00  0.00    +0.000 A 
ATOM     30  C   UNL     1      -3.202  13.851  23.239  0.00  0.00    +0.000 A 
ATOM     31  C   UNL     1      -1.925  14.216  23.597  0.00  0.00    +0.000 A 
ATOM     32  O   UNL     1      -1.092  13.143  23.552  0.00  0.00    +0.000 OA
ENDBRANCH  27  28
ENDBRANCH  25  27
ENDBRANCH  24  25
ENDBRANCH  10  24
TORSDOF 5
ENDMDL
MODEL 3
REMARK VINA RESULT:      -8.3      2.416      2.758
REMARK  Name = 
REMARK  5 active torsions:
REMARK  status: ('A' for Active; 'I' for Inactive)
REMARK    1  A    between atoms: C_4  and  C_5
REMARK    2  A    between atoms: C_16  and  C_17
REMARK    3  A    between atoms: C_17  and  N_18
REMARK    4  A    between atoms: N_18  and  C_19
REMARK    5  A    between atoms: C_19  and  C_20
REMARK                            x       y       z     vdW  Elec       q    Type
REMARK                         _______ _______ _______ _____ _____    ______ ____
ROOT
ATOM      1  N   UNL     1       3.196   2.361  21.016  0.00  0.00    +0.000 N 
ATOM      2  C   UNL     1       3.279   3.534  20.305  0.00  0.00    +0.000 A 
ATOM      3  N   UNL     1       4.093   3.545  19.224  0.00  0.00    +0.000 NA
ATOM      4  C   UNL     1       4.166   4.671  18.459  0.00  0.00    +0.000 A 
ATOM      5  C   UNL     1       3.402   5.751  18.805  0.00  0.00    +0.000 A 
ATOM      6  C   UNL     1       2.636   5.662  19.955  0.00  0.00    +0.000 A 
ATOM      7  N   UNL     1       2.558   4.578  20.737  0.00  0.00    +0.000 NA
ATOM      8  C   UNL     1       1.926   6.906  20.174  0.00  0.00    +0.000 A 
ATOM      9  C   UNL     1       1.060   7.336  21.161  0.00  0.00    +0.000 A 
ATOM     10  C   UNL     1       0.537   8.650  21.090  0.00  0.00    +0.000 A 
ATOM     11  C   UNL     1       0.897   9.504  20.018  0.00  0.00    +0.000 A 
ATOM     12  C   UNL     1       1.762   9.071  19.021  0.00  0.00    +0.000 A 
ATOM     13  C   UNL     1       2.242   7.782  19.131  0.00  0.00    +0.000 A 
ATOM     14  C   UNL     1       3.145   7.080  18.216  0.00  0.00    +0.000 C 
ATOM     15  O   UNL     1       3.536   7.552  17.169  0.00  0.00    +0.000 OA
ATOM     16  H   UNL     1       4.001   1.771  20.854  0.00  0.00    +0.000 HD
ATOM     17  H   UNL     1       2.904   2.519  21.969  0.00  0.00    +0.000 HD
ENDROOT
BRANCH   4  18
ATOM     18  C   UNL     1       5.086   4.615  17.302  0.00  0.00    +0.000 A 
ATOM     19  C   UNL     1       4.613   4.347  16.004  0.00  0.00    +0.000 A 
ATOM     20  C   UNL     1       5.478   4.331  14.901  0.00  0.00    +0.000 A 
ATOM     21  C   UNL     1       6.832   4.599  15.065  0.00  0.00    +0.000 A 
ATOM     22  C   UNL     1       7.330   4.848  16.334  0.00  0.00    +0.000 A 
ATOM     23  C   UNL     1       6.472   4.820  17.435  0.00  0.00    +0.000 A 
ENDBRANCH   4  18
BRANCH  10  24
ATOM     24  C   UNL     1      -0.422   9.145  22.152  0.00  0.00    +0.000 C 
BRANCH  24  25
ATOM     25  N   UNL     1       0.107  10.345  22.783  0.00  0.00    +0.000 NA
ATOM     26  H   UNL     1       0.946  10.645  22.286  0.00  0.00    +0.000 HD
BRANCH  25  27
ATOM     27  C   UNL     1      -0.853  11.444  22.758  0.00  0.00    +0.000 C 
BRANCH  27  28
ATOM     28  C   UNL     1      -0.473  12.397  21.681  0.00  0.00    +0.000 A 
ATOM     29  C   UNL     1      -1.197  13.094  20.736  0.00  0.00    +0.000 A 
ATOM     30  C   UNL     1      -0.266  13.889  20.025  0.00  0.00    +0.000 A 
ATOM     31  C   UNL     1       0.965  13.626  20.580  0.00  0.00    +0.000 A 
ATOM     32  O   UNL     1       0.851  12.719  21.585  0.00  0.00    +0.000 OA
ENDBRANCH  27  28
ENDBRANCH  25  27
ENDBRANCH  24  25
ENDBRANCH  10  24
TORSDOF 5
ENDMDL
MODEL 4
REMARK VINA RESULT:      -8.2      2.133      3.022
REMARK  Name = 
REMARK  5 active torsions:
REMARK  status: ('A' for Active; 'I' for Inactive)
REMARK    1  A    between atoms: C_4  and  C_5
REMARK    2  A    between atoms: C_16  and  C_17
REMARK    3  A    between atoms: C_17  and  N_18
REMARK    4  A    between atoms: N_18  and  C_19
REMARK    5  A    between atoms: C_19  and  C_20
REMARK                            x       y       z     vdW  Elec       q    Type
REMARK                         _______ _______ _______ _____ _____    ______ ____
ROOT
ATOM      1  N   UNL     1       2.472   3.557  21.331  0.00  0.00    +0.000 N 
ATOM      2  C   UNL     1       2.754   4.555  20.431  0.00  0.00    +0.000 A 
ATOM      3  N   UNL     1       3.673   4.285  19.475  0.00  0.00    +0.000 NA
ATOM      4  C   UNL     1       3.946   5.229  18.529  0.00  0.00    +0.000 A 
ATOM      5  C   UNL     1       3.269   6.415  18.571  0.00  0.00    +0.000 A 
ATOM      6  C   UNL     1       2.380   6.619  19.614  0.00  0.00    +0.000 A 
ATOM      7  N   UNL     1       2.106   5.721  20.568  0.00  0.00    +0.000 NA
ATOM      8  C   UNL     1       1.787   7.937  19.508  0.00  0.00    +0.000 A 
ATOM      9  C   UNL     1       0.872   8.624  20.284  0.00  0.00    +0.000 A 
ATOM     10  C   UNL     1       0.501   9.938  19.905  0.00  0.00    +0.000 A 
ATOM     11  C   UNL     1       1.061  10.530  18.746  0.00  0.00    +0.000 A 
ATOM     12  C   UNL     1       1.976   9.838  17.962  0.00  0.00    +0.000 A 
ATOM     13  C   UNL     1       2.302   8.561  18.368  0.00  0.00    +0.000 A 
ATOM     14  C   UNL     1       3.217   7.619  17.718  0.00  0.00    +0.000 C 
ATOM     15  O   UNL     1       3.764   7.842  16.659  0.00  0.00    +0.000 OA
ATOM     16  H   UNL     1       3.223   2.882  21.383  0.00  0.00    +0.000 HD
ATOM     17  H   UNL     1       2.100   3.923  22.195  0.00  0.00    +0.000 HD
ENDROOT
BRANCH   4  18
ATOM     18  C   UNL     1       4.971   4.869  17.526  0.00  0.00    +0.000 A 
ATOM     19  C   UNL     1       6.342   5.043  17.788  0.00  0.00    +0.000 A 
ATOM     20  C   UNL     1       7.317   4.667  16.853  0.00  0.00    +0.000 A 
ATOM     21  C   UNL     1       6.946   4.092  15.642  0.00  0.00    +0.000 A 
ATOM     22  C   UNL     1       5.602   3.925  15.350  0.00  0.00    +0.000 A 
ATOM     23  C   UNL     1       4.634   4.342  16.265  0.00  0.00    +0.000 A 
ENDBRANCH   4  18
BRANCH  10  24
ATOM     24  C   UNL     1      -0.505  10.710  20.729  0.00  0.00    +0.000 C 
BRANCH  24  25
ATOM     25  N   UNL     1       0.015  10.940  22.069  0.00  0.00    +0.000 NA
ATOM     26  H   UNL     1       0.324  11.909  22.148  0.00  0.00    +0.000 HD
BRANCH  25  27
ATOM     27  C   UNL     1      -0.995  10.700  23.096  0.00  0.00    +0.000 C 
BRANCH  27  28
ATOM     28  C   UNL     1      -1.792  11.939  23.292  0.00  0.00    +0.000 A 
ATOM     29  C   UNL     1      -1.476  13.282  23.265  0.00  0.00    +0.000 A 
ATOM     30  C   UNL     1      -2.688  13.983  23.471  0.00  0.00    +0.000 A 
ATOM     31  C   UNL     1      -3.666  13.025  23.610  0.00  0.00    +0.000 A 
ATOM     32  O   UNL     1      -3.131  11.780  23.506  0.00  0.00    +0.000 OA
ENDBRANCH  27  28
ENDBRANCH  25  27
ENDBRANCH  24  25
ENDBRANCH  10  24
TORSDOF 5
ENDMDL
MODEL 5
REMARK VINA RESULT:      -8.0      2.223      2.847
REMARK  Name = 
REMARK  5 active torsions:
REMARK  status: ('A' for Active; 'I' for Inactive)
REMARK    1  A    between atoms: C_4  and  C_5
REMARK    2  A    between atoms: C_16  and  C_17
REMARK    3  A    between atoms: C_17  and  N_18
REMARK    4  A    between atoms: N_18  and  C_19
REMARK    5  A    between atoms: C_19  and  C_20
REMARK                            x       y       z     vdW  Elec       q    Type
REMARK                         _______ _______ _______ _____ _____    ______ ____
ROOT
ATOM      1  N   UNL     1       3.170   2.538  21.047  0.00  0.00    +0.000 N 
ATOM      2  C   UNL     1       3.258   3.695  20.311  0.00  0.00    +0.000 A 
ATOM      3  N   UNL     1       4.086   3.685  19.241  0.00  0.00    +0.000 NA
ATOM      4  C   UNL     1       4.164   4.794  18.451  0.00  0.00    +0.000 A 
ATOM      5  C   UNL     1       3.392   5.878  18.762  0.00  0.00    +0.000 A 
ATOM      6  C   UNL     1       2.610   5.812  19.904  0.00  0.00    +0.000 A 
ATOM      7  N   UNL     1       2.527   4.746  20.710  0.00  0.00    +0.000 NA
ATOM      8  C   UNL     1       1.893   7.057  20.085  0.00  0.00    +0.000 A 
ATOM      9  C   UNL     1       1.012   7.506  21.051  0.00  0.00    +0.000 A 
ATOM     10  C   UNL     1       0.484   8.816  20.944  0.00  0.00    +0.000 A 
ATOM     11  C   UNL     1       0.855   9.647  19.857  0.00  0.00    +0.000 A 
ATOM     12  C   UNL     1       1.735   9.194  18.881  0.00  0.00    +0.000 A 
ATOM     13  C   UNL     1       2.219   7.911  19.027  0.00  0.00    +0.000 A 
ATOM     14  C   UNL     1       3.136   7.192  18.140  0.00  0.00    +0.000 C 
ATOM     15  O   UNL     1       3.540   7.642  17.088  0.00  0.00    +0.000 OA
ATOM     16  H   UNL     1       3.979   1.949  20.909  0.00  0.00    +0.000 HD
ATOM     17  H   UNL     1       2.865   2.717  21.993  0.00  0.00    +0.000 HD
ENDROOT
BRANCH   4  18
ATOM     18  C   UNL     1       5.099   4.715  17.308  0.00  0.00    +0.000 A 
ATOM     19  C   UNL     1       6.466   5.014  17.460  0.00  0.00    +0.000 A 
ATOM     20  C   UNL     1       7.360   4.902  16.386  0.00  0.00    +0.000 A 
ATOM     21  C   UNL     1       6.915   4.475  15.141  0.00  0.00    +0.000 A 
ATOM     22  C   UNL     1       5.571   4.191  14.957  0.00  0.00    +0.000 A 
ATOM     23  C   UNL     1       4.677   4.345  16.018  0.00  0.00    +0.000 A 
ENDBRANCH   4  18
BRANCH  10  24
ATOM     24  C   UNL     1      -0.490   9.331  21.981  0.00  0.00    +0.000 C 
BRANCH  24  25
ATOM     25  N   UNL     1      -0.685  10.763  21.816  0.00  0.00    +0.000 NA
ATOM     26  H   UNL     1      -1.411  10.926  21.118  0.00  0.00    +0.000 HD
BRANCH  25  27
ATOM     27  C   UNL     1      -1.100  11.404  23.060  0.00  0.00    +0.000 C 
BRANCH  27  28
ATOM     28  C   UNL     1      -2.422  12.054  22.855  0.00  0.00    +0.000 A 
ATOM     29  C   UNL     1      -3.433  12.433  23.714  0.00  0.00    +0.000 A 
ATOM     30  C   UNL     1      -4.422  13.059  22.917  0.00  0.00    +0.000 A 
ATOM     31  C   UNL     1      -3.951  13.021  21.625  0.00  0.00    +0.000 A 
ATOM     32  O   UNL     1      -2.739  12.411  21.576  0.00  0.00    +0.000 OA
ENDBRANCH  27  28
ENDBRANCH  25  27
ENDBRANCH  24  25
ENDBRANCH  10  24
TORSDOF 5
ENDMDL
MODEL 6
REMARK VINA RESULT:      -7.9      2.426      2.778
REMARK  Name = 
REMARK  5 active torsions:
REMARK  status: ('A' for Active; 'I' for Inactive)
REMARK    1  A    between atoms: C_4  and  C_5
REMARK    2  A    between atoms: C_16  and  C_17
REMARK    3  A    between atoms: C_17  and  N_18
REMARK    4  A    between atoms: N_18  and  C_19
REMARK    5  A    between atoms: C_19  and  C_20
REMARK                            x       y       z     vdW  Elec       q    Type
REMARK                         _______ _______ _______ _____ _____    ______ ____
ROOT
ATOM      1  N   UNL     1       2.755   2.509  21.282  0.00  0.00    +0.000 N 
ATOM      2  C   UNL     1       2.931   3.655  20.545  0.00  0.00    +0.000 A 
ATOM      3  N   UNL     1       3.804   3.599  19.513  0.00  0.00    +0.000 NA
ATOM      4  C   UNL     1       3.972   4.698  18.723  0.00  0.00    +0.000 A 
ATOM      5  C   UNL     1       3.239   5.820  18.995  0.00  0.00    +0.000 A 
ATOM      6  C   UNL     1       2.406   5.799  20.100  0.00  0.00    +0.000 A 
ATOM      7  N   UNL     1       2.235   4.743  20.906  0.00  0.00    +0.000 NA
ATOM      8  C   UNL     1       1.742   7.078  20.244  0.00  0.00    +0.000 A 
ATOM      9  C   UNL     1       0.842   7.575  21.168  0.00  0.00    +0.000 A 
ATOM     10  C   UNL     1       0.383   8.908  21.031  0.00  0.00    +0.000 A 
ATOM     11  C   UNL     1       0.842   9.713  19.958  0.00  0.00    +0.000 A 
ATOM     12  C   UNL     1       1.742   9.212  19.025  0.00  0.00    +0.000 A 
ATOM     13  C   UNL     1       2.156   7.908  19.198  0.00  0.00    +0.000 A 
ATOM     14  C   UNL     1       3.076   7.140  18.356  0.00  0.00    +0.000 C 
ATOM     15  O   UNL     1       3.547   7.564  17.321  0.00  0.00    +0.000 OA
ATOM     16  H   UNL     1       3.540   1.880  21.183  0.00  0.00    +0.000 HD
ATOM     17  H   UNL     1       2.418   2.708  22.212  0.00  0.00    +0.000 HD
ENDROOT
BRANCH   4  18
ATOM     18  C   UNL     1       4.952   4.567  17.623  0.00  0.00    +0.000 A 
ATOM     19  C   UNL     1       4.590   4.007  16.384  0.00  0.00    +0.000 A 
ATOM     20  C   UNL     1       5.508   3.917  15.328  0.00  0.00    +0.000 A 
ATOM     21  C   UNL     1       6.803   4.399  15.478  0.00  0.00    +0.000 A 
ATOM     22  C   UNL     1       7.193   4.940  16.693  0.00  0.00    +0.000 A 
ATOM     23  C   UNL     1       6.288   4.987  17.756  0.00  0.00    +0.000 A 
ENDBRANCH   4  18
BRANCH  10  24
ATOM     24  C   UNL     1      -0.610   9.476  22.022  0.00  0.00    +0.000 C 
BRANCH  24  25
ATOM     25  N   UNL     1      -0.840  10.886  21.747  0.00  0.00    +0.000 NA
ATOM     26  H   UNL     1      -1.663  10.984  21.154  0.00  0.00    +0.000 HD
BRANCH  25  27
ATOM     27  C   UNL     1      -1.068  11.650  22.970  0.00  0.00    +0.000 C 
BRANCH  27  28
ATOM     28  C   UNL     1      -2.364  12.370  22.858  0.00  0.00    +0.000 A 
ATOM     29  C   UNL     1      -2.814  13.387  22.041  0.00  0.00    +0.000 A 
ATOM     30  C   UNL     1      -4.171  13.603  22.382  0.00  0.00    +0.000 A 
ATOM     31  C   UNL     1      -4.461  12.706  23.384  0.00  0.00    +0.000 A 
ATOM     32  O   UNL     1      -3.370  11.955  23.682  0.00  0.00    +0.000 OA
ENDBRANCH  27  28
ENDBRANCH  25  27
ENDBRANCH  24  25
ENDBRANCH  10  24
TORSDOF 5
ENDMDL
MODEL 7
REMARK VINA RESULT:      -7.9      2.010      2.430
REMARK  Name = 
REMARK  5 active torsions:
REMARK  status: ('A' for Active; 'I' for Inactive)
REMARK    1  A    between atoms: C_4  and  C_5
REMARK    2  A    between atoms: C_16  and  C_17
REMARK    3  A    between atoms: C_17  and  N_18
REMARK    4  A    between atoms: N_18  and  C_19
REMARK    5  A    between atoms: C_19  and  C_20
REMARK                            x       y       z     vdW  Elec       q    Type
REMARK                         _______ _______ _______ _____ _____    ______ ____
ROOT
ATOM      1  N   UNL     1       2.232   3.701  21.528  0.00  0.00    +0.000 N 
ATOM      2  C   UNL     1       2.546   4.681  20.617  0.00  0.00    +0.000 A 
ATOM      3  N   UNL     1       3.473   4.378  19.679  0.00  0.00    +0.000 NA
ATOM      4  C   UNL     1       3.778   5.303  18.723  0.00  0.00    +0.000 A 
ATOM      5  C   UNL     1       3.125   6.504  18.739  0.00  0.00    +0.000 A 
ATOM      6  C   UNL     1       2.227   6.741  19.767  0.00  0.00    +0.000 A 
ATOM      7  N   UNL     1       1.922   5.862  20.729  0.00  0.00    +0.000 NA
ATOM      8  C   UNL     1       1.663   8.068  19.634  0.00  0.00    +0.000 A 
ATOM      9  C   UNL     1       0.752   8.785  20.388  0.00  0.00    +0.000 A 
ATOM     10  C   UNL     1       0.414  10.101  19.986  0.00  0.00    +0.000 A 
ATOM     11  C   UNL     1       1.002  10.665  18.826  0.00  0.00    +0.000 A 
ATOM     12  C   UNL     1       1.913   9.943  18.065  0.00  0.00    +0.000 A 
ATOM     13  C   UNL     1       2.207   8.666  18.493  0.00  0.00    +0.000 A 
ATOM     14  C   UNL     1       3.110   7.696  17.869  0.00  0.00    +0.000 C 
ATOM     15  O   UNL     1       3.677   7.892  16.814  0.00  0.00    +0.000 OA
ATOM     16  H   UNL     1       2.968   3.011  21.599  0.00  0.00    +0.000 HD
ATOM     17  H   UNL     1       1.856   4.087  22.380  0.00  0.00    +0.000 HD
ENDROOT
BRANCH   4  18
ATOM     18  C   UNL     1       4.809   4.907  17.740  0.00  0.00    +0.000 A 
ATOM     19  C   UNL     1       4.461   4.299  16.520  0.00  0.00    +0.000 A 
ATOM     20  C   UNL     1       5.434   3.959  15.570  0.00  0.00    +0.000 A 
ATOM     21  C   UNL     1       6.776   4.233  15.808  0.00  0.00    +0.000 A 
ATOM     22  C   UNL     1       7.151   4.815  17.008  0.00  0.00    +0.000 A 
ATOM     23  C   UNL     1       6.183   5.112  17.969  0.00  0.00    +0.000 A 
ENDBRANCH   4  18
BRANCH  10  24
ATOM     24  C   UNL     1      -0.587  10.906  20.785  0.00  0.00    +0.000 C 
BRANCH  24  25
ATOM     25  N   UNL     1       0.092  11.649  21.836  0.00  0.00    +0.000 NA
ATOM     26  H   UNL     1       1.095  11.658  21.647  0.00  0.00    +0.000 HD
BRANCH  25  27
ATOM     27  C   UNL     1      -0.368  13.032  21.911  0.00  0.00    +0.000 C 
BRANCH  27  28
ATOM     28  C   UNL     1       0.156  13.784  20.741  0.00  0.00    +0.000 A 
ATOM     29  C   UNL     1       1.430  14.097  20.311  0.00  0.00    +0.000 A 
ATOM     30  C   UNL     1       1.279  14.790  19.086  0.00  0.00    +0.000 A 
ATOM     31  C   UNL     1      -0.074  14.857  18.847  0.00  0.00    +0.000 A 
ATOM     32  O   UNL     1      -0.765  14.251  19.848  0.00  0.00    +0.000 OA
ENDBRANCH  27  28
ENDBRANCH  25  27
ENDBRANCH  24  25
ENDBRANCH  10  24
TORSDOF 5
ENDMDL
MODEL 8
REMARK VINA RESULT:      -7.9      2.275      3.208
REMARK  Name = 
REMARK  5 active torsions:
REMARK  status: ('A' for Active; 'I' for Inactive)
REMARK    1  A    between atoms: C_4  and  C_5
REMARK    2  A    between atoms: C_16  and  C_17
REMARK    3  A    between atoms: C_17  and  N_18
REMARK    4  A    between atoms: N_18  and  C_19
REMARK    5  A    between atoms: C_19  and  C_20
REMARK                            x       y       z     vdW  Elec       q    Type
REMARK                         _______ _______ _______ _____ _____    ______ ____
ROOT
ATOM      1  N   UNL     1       2.265   3.708  21.547  0.00  0.00    +0.000 N 
ATOM      2  C   UNL     1       2.584   4.672  20.622  0.00  0.00    +0.000 A 
ATOM      3  N   UNL     1       3.523   4.358  19.700  0.00  0.00    +0.000 NA
ATOM      4  C   UNL     1       3.833   5.267  18.731  0.00  0.00    +0.000 A 
ATOM      5  C   UNL     1       3.173   6.464  18.718  0.00  0.00    +0.000 A 
ATOM      6  C   UNL     1       2.262   6.714  19.730  0.00  0.00    +0.000 A 
ATOM      7  N   UNL     1       1.951   5.852  20.705  0.00  0.00    +0.000 NA
ATOM      8  C   UNL     1       1.692   8.036  19.567  0.00  0.00    +0.000 A 
ATOM      9  C   UNL     1       0.769   8.761  20.296  0.00  0.00    +0.000 A 
ATOM     10  C   UNL     1       0.428  10.067  19.867  0.00  0.00    +0.000 A 
ATOM     11  C   UNL     1       1.025  10.614  18.703  0.00  0.00    +0.000 A 
ATOM     12  C   UNL     1       1.949   9.883  17.966  0.00  0.00    +0.000 A 
ATOM     13  C   UNL     1       2.245   8.615  18.421  0.00  0.00    +0.000 A 
ATOM     14  C   UNL     1       3.161   7.639  17.825  0.00  0.00    +0.000 C 
ATOM     15  O   UNL     1       3.738   7.820  16.773  0.00  0.00    +0.000 OA
ATOM     16  H   UNL     1       3.004   3.024  21.639  0.00  0.00    +0.000 HD
ATOM     17  H   UNL     1       1.877   4.108  22.388  0.00  0.00    +0.000 HD
ENDROOT
BRANCH   4  18
ATOM     18  C   UNL     1       4.878   4.860  17.766  0.00  0.00    +0.000 A 
ATOM     19  C   UNL     1       4.543   4.360  16.494  0.00  0.00    +0.000 A 
ATOM     20  C   UNL     1       5.533   4.010  15.564  0.00  0.00    +0.000 A 
ATOM     21  C   UNL     1       6.878   4.166  15.877  0.00  0.00    +0.000 A 
ATOM     22  C   UNL     1       7.238   4.638  17.129  0.00  0.00    +0.000 A 
ATOM     23  C   UNL     1       6.250   4.944  18.067  0.00  0.00    +0.000 A 
ENDBRANCH   4  18
BRANCH  10  24
ATOM     24  C   UNL     1      -0.588  10.880  20.640  0.00  0.00    +0.000 C 
BRANCH  24  25
ATOM     25  N   UNL     1      -0.465  12.289  20.297  0.00  0.00    +0.000 NA
ATOM     26  H   UNL     1      -1.385  12.658  20.055  0.00  0.00    +0.000 HD
BRANCH  25  27
ATOM     27  C   UNL     1       0.062  13.078  21.407  0.00  0.00    +0.000 C 
BRANCH  27  28
ATOM     28  C   UNL     1       1.352  13.692  20.996  0.00  0.00    +0.000 A 
ATOM     29  C   UNL     1       1.921  13.968  19.770  0.00  0.00    +0.000 A 
ATOM     30  C   UNL     1       3.151  14.617  20.035  0.00  0.00    +0.000 A 
ATOM     31  C   UNL     1       3.255  14.694  21.405  0.00  0.00    +0.000 A 
ATOM     32  O   UNL     1       2.168  14.134  21.998  0.00  0.00    +0.000 OA
ENDBRANCH  27  28
ENDBRANCH  25  27
ENDBRANCH  24  25
ENDBRANCH  10  24
TORSDOF 5
ENDMDL
MODEL 9
REMARK VINA RESULT:      -7.9      1.386      1.753
REMARK  Name = 
REMARK  5 active torsions:
REMARK  status: ('A' for Active; 'I' for Inactive)
REMARK    1  A    between atoms: C_4  and  C_5
REMARK    2  A    between atoms: C_16  and  C_17
REMARK    3  A    between atoms: C_17  and  N_18
REMARK    4  A    between atoms: N_18  and  C_19
REMARK    5  A    between atoms: C_19  and  C_20
REMARK                            x       y       z     vdW  Elec       q    Type
REMARK                         _______ _______ _______ _____ _____    ______ ____
ROOT
ATOM      1  N   UNL     1       2.211   3.746  21.562  0.00  0.00    +0.000 N 
ATOM      2  C   UNL     1       2.547   4.704  20.637  0.00  0.00    +0.000 A 
ATOM      3  N   UNL     1       3.489   4.377  19.722  0.00  0.00    +0.000 NA
ATOM      4  C   UNL     1       3.815   5.279  18.753  0.00  0.00    +0.000 A 
ATOM      5  C   UNL     1       3.168   6.483  18.731  0.00  0.00    +0.000 A 
ATOM      6  C   UNL     1       2.252   6.746  19.736  0.00  0.00    +0.000 A 
ATOM      7  N   UNL     1       1.925   5.890  20.712  0.00  0.00    +0.000 NA
ATOM      8  C   UNL     1       1.696   8.072  19.564  0.00  0.00    +0.000 A 
ATOM      9  C   UNL     1       0.775   8.809  20.285  0.00  0.00    +0.000 A 
ATOM     10  C   UNL     1       0.450  10.117  19.848  0.00  0.00    +0.000 A 
ATOM     11  C   UNL     1       1.061  10.654  18.687  0.00  0.00    +0.000 A 
ATOM     12  C   UNL     1       1.983   9.911  17.959  0.00  0.00    +0.000 A 
ATOM     13  C   UNL     1       2.263   8.643  18.420  0.00  0.00    +0.000 A 
ATOM     14  C   UNL     1       3.174   7.656  17.835  0.00  0.00    +0.000 C 
ATOM     15  O   UNL     1       3.760   7.827  16.786  0.00  0.00    +0.000 OA
ATOM     16  H   UNL     1       2.943   3.055  21.662  0.00  0.00    +0.000 HD
ATOM     17  H   UNL     1       1.822   4.152  22.400  0.00  0.00    +0.000 HD
ENDROOT
BRANCH   4  18
ATOM     18  C   UNL     1       4.863   4.859  17.797  0.00  0.00    +0.000 A 
ATOM     19  C   UNL     1       4.532   4.342  16.531  0.00  0.00    +0.000 A 
ATOM     20  C   UNL     1       5.524   3.978  15.609  0.00  0.00    +0.000 A 
ATOM     21  C   UNL     1       6.868   4.138  15.923  0.00  0.00    +0.000 A 
ATOM     22  C   UNL     1       7.225   4.628  17.170  0.00  0.00    +0.000 A 
ATOM     23  C   UNL     1       6.234   4.947  18.100  0.00  0.00    +0.000 A 
ENDBRANCH   4  18
BRANCH  10  24
ATOM     24  C   UNL     1      -0.562  10.943  20.611  0.00  0.00    +0.000 C 
BRANCH  24  25
ATOM     25  N   UNL     1      -1.591  11.434  19.706  0.00  0.00    +0.000 NA
ATOM     26  H   UNL     1      -2.385  10.794  19.721  0.00  0.00    +0.000 HD
BRANCH  25  27
ATOM     27  C   UNL     1      -2.069  12.759  20.090  0.00  0.00    +0.000 C 
BRANCH  27  28
ATOM     28  C   UNL     1      -3.495  12.662  20.500  0.00  0.00    +0.000 A 
ATOM     29  C   UNL     1      -4.145  12.821  21.706  0.00  0.00    +0.000 A 
ATOM     30  C   UNL     1      -5.526  12.656  21.442  0.00  0.00    +0.000 A 
ATOM     31  C   UNL     1      -5.630  12.406  20.092  0.00  0.00    +0.000 A 
ATOM     32  O   UNL     1      -4.402  12.406  19.512  0.00  0.00    +0.000 OA
ENDBRANCH  27  28
ENDBRANCH  25  27
ENDBRANCH  24  25
ENDBRANCH  10  24
TORSDOF 5
ENDMDL
