MODEL 1
REMARK VINA RESULT:      -7.8      0.000      0.000
REMARK  Name = 
REMARK  4 active torsions:
REMARK  status: ('A' for Active; 'I' for Inactive)
REMARK    1  A    between atoms: C_1  and  C_2
REMARK    2  A    between atoms: C_19  and  O_20
REMARK    3  A    between atoms: O_20  and  C_21
REMARK    4  A    between atoms: C_21  and  O_22
REMARK                            x       y       z     vdW  Elec       q    Type
REMARK                         _______ _______ _______ _____ _____    ______ ____
ROOT
ATOM      1  C   UNL     1       0.299   8.407  18.123  0.00  0.00    +0.000 C 
ATOM      2  C   UNL     1       1.442   8.776  19.110  0.00  0.00    +0.000 C 
ATOM      3  C   UNL     1       2.616   9.343  18.314  0.00  0.00    +0.000 C 
ATOM      4  C   UNL     1       3.234   8.274  17.412  0.00  0.00    +0.000 C 
ATOM      5  C   UNL     1       3.681   7.014  18.185  0.00  0.00    +0.000 C 
ATOM      6  C   UNL     1       4.196   5.858  17.270  0.00  0.00    +0.000 C 
ATOM      7  C   UNL     1       5.086   6.318  16.096  0.00  0.00    +0.000 C 
ATOM      8  C   UNL     1       6.507   5.794  15.979  0.00  0.00    +0.000 C 
ATOM      9  C   UNL     1       6.939   4.733  16.948  0.00  0.00    +0.000 C 
ATOM     10  O   UNL     1       8.058   4.226  16.879  0.00  0.00    +0.000 OA
ATOM     11  C   UNL     1       6.023   4.288  18.012  0.00  0.00    +0.000 C 
ATOM     12  C   UNL     1       4.785   4.781  18.152  0.00  0.00    +0.000 C 
ATOM     13  C   UNL     1       3.867   4.260  19.237  0.00  0.00    +0.000 C 
ATOM     14  C   UNL     1       3.192   5.376  20.045  0.00  0.00    +0.000 C 
ATOM     15  C   UNL     1       2.564   6.457  19.142  0.00  0.00    +0.000 C 
ATOM     16  C   UNL     1       1.962   7.603  19.966  0.00  0.00    +0.000 C 
ATOM     17  C   UNL     1       0.777   7.360  20.894  0.00  0.00    +0.000 C 
ATOM     18  C   UNL     1       0.402   8.793  21.320  0.00  0.00    +0.000 C 
ATOM     19  C   UNL     1       0.937   9.736  20.218  0.00  0.00    +0.000 C 
ENDROOT
BRANCH  19  20
ATOM     20  O   UNL     1      -0.038  10.618  19.683  0.00  0.00    +0.000 OA
BRANCH  20  21
ATOM     21  C   UNL     1       0.002  11.967  20.141  0.00  0.00    +0.000 C 
ATOM     22  C   UNL     1      -1.160  12.627  19.362  0.00  0.00    +0.000 C 
ATOM     23  O   UNL     1      -1.140  13.025  18.209  0.00  0.00    +0.000 OA
ATOM     24  C   UNL     1      -2.320  12.711  20.248  0.00  0.00    +0.000 A 
ATOM     25  C   UNL     1      -3.629  13.032  19.923  0.00  0.00    +0.000 A 
ATOM     26  C   UNL     1      -4.569  13.015  20.959  0.00  0.00    +0.000 A 
ATOM     27  C   UNL     1      -4.189  12.692  22.277  0.00  0.00    +0.000 A 
ATOM     28  C   UNL     1      -2.860  12.384  22.583  0.00  0.00    +0.000 A 
ATOM     29  C   UNL     1      -1.949  12.394  21.542  0.00  0.00    +0.000 A 
ATOM     30  C   UNL     1      -0.517  12.101  21.596  0.00  0.00    +0.000 C 
ATOM     31  O   UNL     1       0.100  12.001  22.641  0.00  0.00    +0.000 OA
BRANCH  21  32
ATOM     32  O   UNL     1       1.225  12.581  19.833  0.00  0.00    +0.000 OA
ATOM     33  H   UNL     1       1.048  13.539  19.850  0.00  0.00    +0.000 HD
ENDBRANCH  21  32
ENDBRANCH  20  21
ENDBRANCH  19  20
TORSDOF 3
ENDMDL
MODEL 2
REMARK VINA RESULT:      -7.7      3.120      4.630
REMARK  Name = 
REMARK  4 active torsions:
REMARK  status: ('A' for Active; 'I' for Inactive)
REMARK    1  A    between atoms: C_1  and  C_2
REMARK    2  A    between atoms: C_19  and  O_20
REMARK    3  A    between atoms: O_20  and  C_21
REMARK    4  A    between atoms: C_21  and  O_22
REMARK                            x       y       z     vdW  Elec       q    Type
REMARK                         _______ _______ _______ _____ _____    ______ ____
ROOT
ATOM      1  C   UNL     1      -0.709  11.707  18.776  0.00  0.00    +0.000 C 
ATOM      2  C   UNL     1       0.525  11.843  19.711  0.00  0.00    +0.000 C 
ATOM      3  C   UNL     1       1.792  11.839  18.858  0.00  0.00    +0.000 C 
ATOM      4  C   UNL     1       1.990  10.486  18.175  0.00  0.00    +0.000 C 
ATOM      5  C   UNL     1       2.021   9.305  19.170  0.00  0.00    +0.000 C 
ATOM      6  C   UNL     1       2.092   7.903  18.487  0.00  0.00    +0.000 C 
ATOM      7  C   UNL     1       3.043   7.827  17.274  0.00  0.00    +0.000 C 
ATOM      8  C   UNL     1       4.206   6.850  17.288  0.00  0.00    +0.000 C 
ATOM      9  C   UNL     1       4.295   5.893  18.440  0.00  0.00    +0.000 C 
ATOM     10  O   UNL     1       5.181   5.039  18.490  0.00  0.00    +0.000 OA
ATOM     11  C   UNL     1       3.322   5.970  19.542  0.00  0.00    +0.000 C 
ATOM     12  C   UNL     1       2.322   6.863  19.561  0.00  0.00    +0.000 C 
ATOM     13  C   UNL     1       1.322   6.874  20.696  0.00  0.00    +0.000 C 
ATOM     14  C   UNL     1       1.083   8.274  21.277  0.00  0.00    +0.000 C 
ATOM     15  C   UNL     1       0.817   9.327  20.181  0.00  0.00    +0.000 C 
ATOM     16  C   UNL     1       0.657  10.733  20.774  0.00  0.00    +0.000 C 
ATOM     17  C   UNL     1      -0.509  11.064  21.700  0.00  0.00    +0.000 C 
ATOM     18  C   UNL     1      -0.373  12.591  21.856  0.00  0.00    +0.000 C 
ATOM     19  C   UNL     1       0.406  13.095  20.618  0.00  0.00    +0.000 C 
ENDROOT
BRANCH  19  20
ATOM     20  O   UNL     1      -0.241  14.142  19.911  0.00  0.00    +0.000 OA
BRANCH  20  21
ATOM     21  C   UNL     1      -0.107  15.454  20.452  0.00  0.00    +0.000 C 
ATOM     22  C   UNL     1       1.248  15.925  19.872  0.00  0.00    +0.000 C 
ATOM     23  O   UNL     1       2.361  15.648  20.286  0.00  0.00    +0.000 OA
ATOM     24  C   UNL     1       0.983  16.786  18.721  0.00  0.00    +0.000 A 
ATOM     25  C   UNL     1       1.880  17.260  17.776  0.00  0.00    +0.000 A 
ATOM     26  C   UNL     1       1.366  18.052  16.744  0.00  0.00    +0.000 A 
ATOM     27  C   UNL     1      -0.008  18.359  16.683  0.00  0.00    +0.000 A 
ATOM     28  C   UNL     1      -0.892  17.881  17.654  0.00  0.00    +0.000 A 
ATOM     29  C   UNL     1      -0.366  17.087  18.658  0.00  0.00    +0.000 A 
ATOM     30  C   UNL     1      -1.072  16.461  19.775  0.00  0.00    +0.000 C 
ATOM     31  O   UNL     1      -2.220  16.738  20.072  0.00  0.00    +0.000 OA
BRANCH  21  32
ATOM     32  O   UNL     1      -0.073  15.435  21.854  0.00  0.00    +0.000 OA
ATOM     33  H   UNL     1       0.477  16.196  22.112  0.00  0.00    +0.000 HD
ENDBRANCH  21  32
ENDBRANCH  20  21
ENDBRANCH  19  20
TORSDOF 3
ENDMDL
MODEL 3
REMARK VINA RESULT:      -7.7      2.489      4.405
REMARK  Name = 
REMARK  4 active torsions:
REMARK  status: ('A' for Active; 'I' for Inactive)
REMARK    1  A    between atoms: C_1  and  C_2
REMARK    2  A    between atoms: C_19  and  O_20
REMARK    3  A    between atoms: O_20  and  C_21
REMARK    4  A    between atoms: C_21  and  O_22
REMARK                            x       y       z     vdW  Elec       q    Type
REMARK                         _______ _______ _______ _____ _____    ______ ____
ROOT
ATOM      1  C   UNL     1       0.935  11.187  21.664  0.00  0.00    +0.000 C 
ATOM      2  C   UNL     1      -0.143  10.612  20.703  0.00  0.00    +0.000 C 
ATOM      3  C   UNL     1      -0.670   9.301  21.282  0.00  0.00    +0.000 C 
ATOM      4  C   UNL     1       0.421   8.231  21.300  0.00  0.00    +0.000 C 
ATOM      5  C   UNL     1       1.046   7.978  19.910  0.00  0.00    +0.000 C 
ATOM      6  C   UNL     1       2.250   6.985  19.926  0.00  0.00    +0.000 C 
ATOM      7  C   UNL     1       2.058   5.760  20.845  0.00  0.00    +0.000 C 
ATOM      8  C   UNL     1       2.110   4.361  20.255  0.00  0.00    +0.000 C 
ATOM      9  C   UNL     1       2.488   4.230  18.809  0.00  0.00    +0.000 C 
ATOM     10  O   UNL     1       2.601   3.125  18.279  0.00  0.00    +0.000 OA
ATOM     11  C   UNL     1       2.721   5.435  17.994  0.00  0.00    +0.000 C 
ATOM     12  C   UNL     1       2.628   6.674  18.496  0.00  0.00    +0.000 C 
ATOM     13  C   UNL     1       2.918   7.879  17.627  0.00  0.00    +0.000 C 
ATOM     14  C   UNL     1       1.842   8.968  17.726  0.00  0.00    +0.000 C 
ATOM     15  C   UNL     1       1.481   9.306  19.188  0.00  0.00    +0.000 C 
ATOM     16  C   UNL     1       0.350  10.340  19.267  0.00  0.00    +0.000 C 
ATOM     17  C   UNL     1       0.549  11.759  18.744  0.00  0.00    +0.000 C 
ATOM     18  C   UNL     1      -0.737  12.461  19.223  0.00  0.00    +0.000 C 
ATOM     19  C   UNL     1      -1.262  11.650  20.430  0.00  0.00    +0.000 C 
ENDROOT
BRANCH  19  20
ATOM     20  O   UNL     1      -1.493  12.426  21.595  0.00  0.00    +0.000 OA
BRANCH  20  21
ATOM     21  C   UNL     1      -2.733  13.128  21.658  0.00  0.00    +0.000 C 
ATOM     22  C   UNL     1      -3.124  12.995  23.149  0.00  0.00    +0.000 C 
ATOM     23  O   UNL     1      -3.648  12.035  23.690  0.00  0.00    +0.000 OA
ATOM     24  C   UNL     1      -2.767  14.238  23.832  0.00  0.00    +0.000 A 
ATOM     25  C   UNL     1      -2.740  14.494  25.195  0.00  0.00    +0.000 A 
ATOM     26  C   UNL     1      -2.330  15.768  25.599  0.00  0.00    +0.000 A 
ATOM     27  C   UNL     1      -1.973  16.749  24.652  0.00  0.00    +0.000 A 
ATOM     28  C   UNL     1      -2.020  16.472  23.283  0.00  0.00    +0.000 A 
ATOM     29  C   UNL     1      -2.414  15.201  22.904  0.00  0.00    +0.000 A 
ATOM     30  C   UNL     1      -2.536  14.662  21.550  0.00  0.00    +0.000 C 
ATOM     31  O   UNL     1      -2.490  15.359  20.552  0.00  0.00    +0.000 OA
BRANCH  21  32
ATOM     32  O   UNL     1      -3.701  12.541  20.831  0.00  0.00    +0.000 OA
ATOM     33  H   UNL     1      -3.802  13.148  20.076  0.00  0.00    +0.000 HD
ENDBRANCH  21  32
ENDBRANCH  20  21
ENDBRANCH  19  20
TORSDOF 3
ENDMDL
MODEL 4
REMARK VINA RESULT:      -7.5      2.711      4.477
REMARK  Name = 
REMARK  4 active torsions:
REMARK  status: ('A' for Active; 'I' for Inactive)
REMARK    1  A    between atoms: C_1  and  C_2
REMARK    2  A    between atoms: C_19  and  O_20
REMARK    3  A    between atoms: O_20  and  C_21
REMARK    4  A    between atoms: C_21  and  O_22
REMARK                            x       y       z     vdW  Elec       q    Type
REMARK                         _______ _______ _______ _____ _____    ______ ____
ROOT
ATOM      1  C   UNL     1      -0.789  11.087  18.792  0.00  0.00    +0.000 C 
ATOM      2  C   UNL     1       0.423  11.276  19.747  0.00  0.00    +0.000 C 
ATOM      3  C   UNL     1       1.694  11.408  18.911  0.00  0.00    +0.000 C 
ATOM      4  C   UNL     1       2.002  10.106  18.172  0.00  0.00    +0.000 C 
ATOM      5  C   UNL     1       2.117   8.887  19.114  0.00  0.00    +0.000 C 
ATOM      6  C   UNL     1       2.302   7.527  18.372  0.00  0.00    +0.000 C 
ATOM      7  C   UNL     1       3.267   7.580  17.168  0.00  0.00    +0.000 C 
ATOM      8  C   UNL     1       4.502   6.695  17.154  0.00  0.00    +0.000 C 
ATOM      9  C   UNL     1       4.655   5.697  18.263  0.00  0.00    +0.000 C 
ATOM     10  O   UNL     1       5.604   4.913  18.287  0.00  0.00    +0.000 OA
ATOM     11  C   UNL     1       3.669   5.650  19.356  0.00  0.00    +0.000 C 
ATOM     12  C   UNL     1       2.603   6.461  19.401  0.00  0.00    +0.000 C 
ATOM     13  C   UNL     1       1.594   6.344  20.524  0.00  0.00    +0.000 C 
ATOM     14  C   UNL     1       1.242   7.694  21.162  0.00  0.00    +0.000 C 
ATOM     15  C   UNL     1       0.905   8.771  20.110  0.00  0.00    +0.000 C 
ATOM     16  C   UNL     1       0.631  10.133  20.762  0.00  0.00    +0.000 C 
ATOM     17  C   UNL     1      -0.566  10.330  21.687  0.00  0.00    +0.000 C 
ATOM     18  C   UNL     1      -0.550  11.855  21.911  0.00  0.00    +0.000 C 
ATOM     19  C   UNL     1       0.198  12.473  20.707  0.00  0.00    +0.000 C 
ENDROOT
BRANCH  19  20
ATOM     20  O   UNL     1      -0.522  13.497  20.039  0.00  0.00    +0.000 OA
BRANCH  20  21
ATOM     21  C   UNL     1      -0.118  14.838  20.306  0.00  0.00    +0.000 C 
ATOM     22  C   UNL     1       1.276  14.652  20.951  0.00  0.00    +0.000 C 
ATOM     23  O   UNL     1       1.516  14.356  22.110  0.00  0.00    +0.000 OA
ATOM     24  C   UNL     1       2.293  14.901  19.931  0.00  0.00    +0.000 A 
ATOM     25  C   UNL     1       3.655  14.650  19.995  0.00  0.00    +0.000 A 
ATOM     26  C   UNL     1       4.417  14.954  18.862  0.00  0.00    +0.000 A 
ATOM     27  C   UNL     1       3.816  15.502  17.711  0.00  0.00    +0.000 A 
ATOM     28  C   UNL     1       2.442  15.759  17.674  0.00  0.00    +0.000 A 
ATOM     29  C   UNL     1       1.705  15.438  18.800  0.00  0.00    +0.000 A 
ATOM     30  C   UNL     1       0.266  15.596  19.010  0.00  0.00    +0.000 C 
ATOM     31  O   UNL     1      -0.447  16.236  18.258  0.00  0.00    +0.000 OA
BRANCH  21  32
ATOM     32  O   UNL     1      -0.999  15.477  21.190  0.00  0.00    +0.000 OA
ATOM     33  H   UNL     1      -1.862  15.488  20.737  0.00  0.00    +0.000 HD
ENDBRANCH  21  32
ENDBRANCH  20  21
ENDBRANCH  19  20
TORSDOF 3
ENDMDL
MODEL 5
REMARK VINA RESULT:      -7.4      3.720      5.918
REMARK  Name = 
REMARK  4 active torsions:
REMARK  status: ('A' for Active; 'I' for Inactive)
REMARK    1  A    between atoms: C_1  and  C_2
REMARK    2  A    between atoms: C_19  and  O_20
REMARK    3  A    between atoms: O_20  and  C_21
REMARK    4  A    between atoms: C_21  and  O_22
REMARK                            x       y       z     vdW  Elec       q    Type
REMARK                         _______ _______ _______ _____ _____    ______ ____
ROOT
ATOM      1  C   UNL     1      -1.842  13.195  19.947  0.00  0.00    +0.000 C 
ATOM      2  C   UNL     1      -0.441  13.324  20.606  0.00  0.00    +0.000 C 
ATOM      3  C   UNL     1       0.626  13.247  19.516  0.00  0.00    +0.000 C 
ATOM      4  C   UNL     1       0.647  11.863  18.867  0.00  0.00    +0.000 C 
ATOM      5  C   UNL     1       0.850  10.719  19.884  0.00  0.00    +0.000 C 
ATOM      6  C   UNL     1       0.745   9.291  19.263  0.00  0.00    +0.000 C 
ATOM      7  C   UNL     1       1.427   9.139  17.887  0.00  0.00    +0.000 C 
ATOM      8  C   UNL     1       2.544   8.124  17.707  0.00  0.00    +0.000 C 
ATOM      9  C   UNL     1       2.842   7.208  18.858  0.00  0.00    +0.000 C 
ATOM     10  O   UNL     1       3.697   6.328  18.765  0.00  0.00    +0.000 OA
ATOM     11  C   UNL     1       2.114   7.359  20.129  0.00  0.00    +0.000 C 
ATOM     12  C   UNL     1       1.163   8.284  20.311  0.00  0.00    +0.000 C 
ATOM     13  C   UNL     1       0.414   8.372  21.624  0.00  0.00    +0.000 C 
ATOM     14  C   UNL     1       0.334   9.799  22.180  0.00  0.00    +0.000 C 
ATOM     15  C   UNL     1      -0.123  10.819  21.116  0.00  0.00    +0.000 C 
ATOM     16  C   UNL     1      -0.124  12.251  21.667  0.00  0.00    +0.000 C 
ATOM     17  C   UNL     1      -1.068  12.654  22.795  0.00  0.00    +0.000 C 
ATOM     18  C   UNL     1      -0.865  14.181  22.854  0.00  0.00    +0.000 C 
ATOM     19  C   UNL     1      -0.342  14.612  21.464  0.00  0.00    +0.000 C 
ENDROOT
BRANCH  19  20
ATOM     20  O   UNL     1      -1.092  15.653  20.858  0.00  0.00    +0.000 OA
BRANCH  20  21
ATOM     21  C   UNL     1      -0.587  16.977  21.013  0.00  0.00    +0.000 C 
ATOM     22  C   UNL     1       0.825  16.877  20.387  0.00  0.00    +0.000 C 
ATOM     23  O   UNL     1       1.834  16.438  20.913  0.00  0.00    +0.000 OA
ATOM     24  C   UNL     1       0.766  17.415  19.029  0.00  0.00    +0.000 A 
ATOM     25  C   UNL     1       1.726  17.339  18.031  0.00  0.00    +0.000 A 
ATOM     26  C   UNL     1       1.413  17.915  16.795  0.00  0.00    +0.000 A 
ATOM     27  C   UNL     1       0.174  18.553  16.586  0.00  0.00    +0.000 A 
ATOM     28  C   UNL     1      -0.774  18.628  17.611  0.00  0.00    +0.000 A 
ATOM     29  C   UNL     1      -0.450  18.040  18.821  0.00  0.00    +0.000 A 
ATOM     30  C   UNL     1      -1.262  17.973  20.036  0.00  0.00    +0.000 C 
ATOM     31  O   UNL     1      -2.280  18.624  20.189  0.00  0.00    +0.000 OA
BRANCH  21  32
ATOM     32  O   UNL     1      -0.512  17.347  22.363  0.00  0.00    +0.000 OA
ATOM     33  H   UNL     1      -0.383  18.313  22.362  0.00  0.00    +0.000 HD
ENDBRANCH  21  32
ENDBRANCH  20  21
ENDBRANCH  19  20
TORSDOF 3
ENDMDL
MODEL 6
REMARK VINA RESULT:      -7.4      2.337      3.654
REMARK  Name = 
REMARK  4 active torsions:
REMARK  status: ('A' for Active; 'I' for Inactive)
REMARK    1  A    between atoms: C_1  and  C_2
REMARK    2  A    between atoms: C_19  and  O_20
REMARK    3  A    between atoms: O_20  and  C_21
REMARK    4  A    between atoms: C_21  and  O_22
REMARK                            x       y       z     vdW  Elec       q    Type
REMARK                         _______ _______ _______ _____ _____    ______ ____
ROOT
ATOM      1  C   UNL     1      -1.019  10.389  19.475  0.00  0.00    +0.000 C 
ATOM      2  C   UNL     1       0.228  10.571  20.384  0.00  0.00    +0.000 C 
ATOM      3  C   UNL     1       1.423  10.949  19.511  0.00  0.00    +0.000 C 
ATOM      4  C   UNL     1       1.806   9.800  18.579  0.00  0.00    +0.000 C 
ATOM      5  C   UNL     1       2.099   8.482  19.330  0.00  0.00    +0.000 C 
ATOM      6  C   UNL     1       2.366   7.263  18.393  0.00  0.00    +0.000 C 
ATOM      7  C   UNL     1       3.240   7.581  17.162  0.00  0.00    +0.000 C 
ATOM      8  C   UNL     1       4.551   6.840  16.957  0.00  0.00    +0.000 C 
ATOM      9  C   UNL     1       4.872   5.722  17.904  0.00  0.00    +0.000 C 
ATOM     10  O   UNL     1       5.891   5.045  17.767  0.00  0.00    +0.000 OA
ATOM     11  C   UNL     1       3.968   5.422  19.027  0.00  0.00    +0.000 C 
ATOM     12  C   UNL     1       2.835   6.104  19.243  0.00  0.00    +0.000 C 
ATOM     13  C   UNL     1       1.918   5.730  20.388  0.00  0.00    +0.000 C 
ATOM     14  C   UNL     1       1.480   6.935  21.229  0.00  0.00    +0.000 C 
ATOM     15  C   UNL     1       0.972   8.105  20.361  0.00  0.00    +0.000 C 
ATOM     16  C   UNL     1       0.611   9.328  21.213  0.00  0.00    +0.000 C 
ATOM     17  C   UNL     1      -0.536   9.271  22.217  0.00  0.00    +0.000 C 
ATOM     18  C   UNL     1      -0.652  10.744  22.656  0.00  0.00    +0.000 C 
ATOM     19  C   UNL     1      -0.048  11.595  21.516  0.00  0.00    +0.000 C 
ENDROOT
BRANCH  19  20
ATOM     20  O   UNL     1      -0.905  12.621  21.038  0.00  0.00    +0.000 OA
BRANCH  20  21
ATOM     21  C   UNL     1      -0.793  13.892  21.673  0.00  0.00    +0.000 C 
ATOM     22  C   UNL     1       0.671  14.293  21.375  0.00  0.00    +0.000 C 
ATOM     23  O   UNL     1       1.671  13.918  21.965  0.00  0.00    +0.000 OA
ATOM     24  C   UNL     1       0.674  15.226  20.250  0.00  0.00    +0.000 A 
ATOM     25  C   UNL     1       1.757  15.681  19.512  0.00  0.00    +0.000 A 
ATOM     26  C   UNL     1       1.490  16.556  18.454  0.00  0.00    +0.000 A 
ATOM     27  C   UNL     1       0.171  16.962  18.165  0.00  0.00    +0.000 A 
ATOM     28  C   UNL     1      -0.903  16.501  18.931  0.00  0.00    +0.000 A 
ATOM     29  C   UNL     1      -0.619  15.625  19.963  0.00  0.00    +0.000 A 
ATOM     30  C   UNL     1      -1.555  14.997  20.896  0.00  0.00    +0.000 C 
ATOM     31  O   UNL     1      -2.719  15.339  20.998  0.00  0.00    +0.000 OA
BRANCH  21  32
ATOM     32  O   UNL     1      -1.018  13.802  23.054  0.00  0.00    +0.000 OA
ATOM     33  H   UNL     1      -0.341  14.368  23.466  0.00  0.00    +0.000 HD
ENDBRANCH  21  32
ENDBRANCH  20  21
ENDBRANCH  19  20
TORSDOF 3
ENDMDL
MODEL 7
REMARK VINA RESULT:      -7.4      2.146      2.984
REMARK  Name = 
REMARK  4 active torsions:
REMARK  status: ('A' for Active; 'I' for Inactive)
REMARK    1  A    between atoms: C_1  and  C_2
REMARK    2  A    between atoms: C_19  and  O_20
REMARK    3  A    between atoms: O_20  and  C_21
REMARK    4  A    between atoms: C_21  and  O_22
REMARK                            x       y       z     vdW  Elec       q    Type
REMARK                         _______ _______ _______ _____ _____    ______ ____
ROOT
ATOM      1  C   UNL     1      -1.261  10.385  19.356  0.00  0.00    +0.000 C 
ATOM      2  C   UNL     1      -0.010  10.710  20.219  0.00  0.00    +0.000 C 
ATOM      3  C   UNL     1       1.146  11.076  19.291  0.00  0.00    +0.000 C 
ATOM      4  C   UNL     1       1.576   9.874  18.450  0.00  0.00    +0.000 C 
ATOM      5  C   UNL     1       1.955   8.643  19.302  0.00  0.00    +0.000 C 
ATOM      6  C   UNL     1       2.272   7.365  18.464  0.00  0.00    +0.000 C 
ATOM      7  C   UNL     1       3.105   7.623  17.191  0.00  0.00    +0.000 C 
ATOM      8  C   UNL     1       4.452   6.940  17.021  0.00  0.00    +0.000 C 
ATOM      9  C   UNL     1       4.851   5.924  18.050  0.00  0.00    +0.000 C 
ATOM     10  O   UNL     1       5.903   5.294  17.948  0.00  0.00    +0.000 OA
ATOM     11  C   UNL     1       3.985   5.673  19.215  0.00  0.00    +0.000 C 
ATOM     12  C   UNL     1       2.819   6.308  19.398  0.00  0.00    +0.000 C 
ATOM     13  C   UNL     1       1.945   5.984  20.590  0.00  0.00    +0.000 C 
ATOM     14  C   UNL     1       1.456   7.231  21.337  0.00  0.00    +0.000 C 
ATOM     15  C   UNL     1       0.869   8.294  20.385  0.00  0.00    +0.000 C 
ATOM     16  C   UNL     1       0.456   9.565  21.140  0.00  0.00    +0.000 C 
ATOM     17  C   UNL     1      -0.668   9.531  22.171  0.00  0.00    +0.000 C 
ATOM     18  C   UNL     1      -0.858  11.028  22.487  0.00  0.00    +0.000 C 
ATOM     19  C   UNL     1      -0.322  11.810  21.266  0.00  0.00    +0.000 C 
ENDROOT
BRANCH  19  20
ATOM     20  O   UNL     1      -1.243  12.744  20.724  0.00  0.00    +0.000 OA
BRANCH  20  21
ATOM     21  C   UNL     1      -0.910  14.123  20.864  0.00  0.00    +0.000 C 
ATOM     22  C   UNL     1      -2.285  14.779  21.138  0.00  0.00    +0.000 C 
ATOM     23  O   UNL     1      -3.135  15.076  20.315  0.00  0.00    +0.000 OA
ATOM     24  C   UNL     1      -2.409  15.006  22.577  0.00  0.00    +0.000 A 
ATOM     25  C   UNL     1      -3.537  15.372  23.295  0.00  0.00    +0.000 A 
ATOM     26  C   UNL     1      -3.401  15.497  24.682  0.00  0.00    +0.000 A 
ATOM     27  C   UNL     1      -2.161  15.268  25.312  0.00  0.00    +0.000 A 
ATOM     28  C   UNL     1      -1.035  14.911  24.565  0.00  0.00    +0.000 A 
ATOM     29  C   UNL     1      -1.194  14.779  23.197  0.00  0.00    +0.000 A 
ATOM     30  C   UNL     1      -0.185  14.410  22.204  0.00  0.00    +0.000 C 
ATOM     31  O   UNL     1       1.006  14.365  22.455  0.00  0.00    +0.000 OA
BRANCH  21  32
ATOM     32  O   UNL     1      -0.333  14.637  19.694  0.00  0.00    +0.000 OA
ATOM     33  H   UNL     1       0.095  13.877  19.259  0.00  0.00    +0.000 HD
ENDBRANCH  21  32
ENDBRANCH  20  21
ENDBRANCH  19  20
TORSDOF 3
ENDMDL
MODEL 8
REMARK VINA RESULT:      -7.3      1.630      2.506
REMARK  Name = 
REMARK  4 active torsions:
REMARK  status: ('A' for Active; 'I' for Inactive)
REMARK    1  A    between atoms: C_1  and  C_2
REMARK    2  A    between atoms: C_19  and  O_20
REMARK    3  A    between atoms: O_20  and  C_21
REMARK    4  A    between atoms: C_21  and  O_22
REMARK                            x       y       z     vdW  Elec       q    Type
REMARK                         _______ _______ _______ _____ _____    ______ ____
ROOT
ATOM      1  C   UNL     1      -1.113   9.848  19.625  0.00  0.00    +0.000 C 
ATOM      2  C   UNL     1       0.130  10.051  20.536  0.00  0.00    +0.000 C 
ATOM      3  C   UNL     1       1.281  10.587  19.687  0.00  0.00    +0.000 C 
ATOM      4  C   UNL     1       1.736   9.550  18.661  0.00  0.00    +0.000 C 
ATOM      5  C   UNL     1       2.138   8.202  19.300  0.00  0.00    +0.000 C 
ATOM      6  C   UNL     1       2.482   7.086  18.264  0.00  0.00    +0.000 C 
ATOM      7  C   UNL     1       3.312   7.568  17.055  0.00  0.00    +0.000 C 
ATOM      8  C   UNL     1       4.672   6.948  16.781  0.00  0.00    +0.000 C 
ATOM      9  C   UNL     1       5.090   5.785  17.631  0.00  0.00    +0.000 C 
ATOM     10  O   UNL     1       6.155   5.201  17.431  0.00  0.00    +0.000 OA
ATOM     11  C   UNL     1       4.227   5.328  18.733  0.00  0.00    +0.000 C 
ATOM     12  C   UNL     1       3.049   5.901  19.013  0.00  0.00    +0.000 C 
ATOM     13  C   UNL     1       2.179   5.367  20.131  0.00  0.00    +0.000 C 
ATOM     14  C   UNL     1       1.664   6.464  21.071  0.00  0.00    +0.000 C 
ATOM     15  C   UNL     1       1.057   7.658  20.305  0.00  0.00    +0.000 C 
ATOM     16  C   UNL     1       0.618   8.778  21.257  0.00  0.00    +0.000 C 
ATOM     17  C   UNL     1      -0.507   8.553  22.263  0.00  0.00    +0.000 C 
ATOM     18  C   UNL     1      -0.728   9.973  22.821  0.00  0.00    +0.000 C 
ATOM     19  C   UNL     1      -0.206  10.956  21.749  0.00  0.00    +0.000 C 
ENDROOT
BRANCH  19  20
ATOM     20  O   UNL     1      -1.144  11.949  21.363  0.00  0.00    +0.000 OA
BRANCH  20  21
ATOM     21  C   UNL     1      -1.555  12.865  22.375  0.00  0.00    +0.000 C 
ATOM     22  C   UNL     1      -1.848  14.153  21.570  0.00  0.00    +0.000 C 
ATOM     23  O   UNL     1      -1.036  14.971  21.169  0.00  0.00    +0.000 OA
ATOM     24  C   UNL     1      -3.292  14.250  21.364  0.00  0.00    +0.000 A 
ATOM     25  C   UNL     1      -3.986  15.113  20.529  0.00  0.00    +0.000 A 
ATOM     26  C   UNL     1      -5.378  14.984  20.488  0.00  0.00    +0.000 A 
ATOM     27  C   UNL     1      -6.039  14.020  21.275  0.00  0.00    +0.000 A 
ATOM     28  C   UNL     1      -5.320  13.169  22.119  0.00  0.00    +0.000 A 
ATOM     29  C   UNL     1      -3.943  13.304  22.134  0.00  0.00    +0.000 A 
ATOM     30  C   UNL     1      -2.971  12.537  22.914  0.00  0.00    +0.000 C 
ATOM     31  O   UNL     1      -3.291  11.793  23.823  0.00  0.00    +0.000 OA
BRANCH  21  32
ATOM     32  O   UNL     1      -0.540  13.082  23.318  0.00  0.00    +0.000 OA
ATOM     33  H   UNL     1      -0.410  12.226  23.764  0.00  0.00    +0.000 HD
ENDBRANCH  21  32
ENDBRANCH  20  21
ENDBRANCH  19  20
TORSDOF 3
ENDMDL
MODEL 9
REMARK VINA RESULT:      -7.3      2.321      3.993
REMARK  Name = 
REMARK  4 active torsions:
REMARK  status: ('A' for Active; 'I' for Inactive)
REMARK    1  A    between atoms: C_1  and  C_2
REMARK    2  A    between atoms: C_19  and  O_20
REMARK    3  A    between atoms: O_20  and  C_21
REMARK    4  A    between atoms: C_21  and  O_22
REMARK                            x       y       z     vdW  Elec       q    Type
REMARK                         _______ _______ _______ _____ _____    ______ ____
ROOT
ATOM      1  C   UNL     1       1.667  11.521  21.263  0.00  0.00    +0.000 C 
ATOM      2  C   UNL     1       0.608  11.147  20.189  0.00  0.00    +0.000 C 
ATOM      3  C   UNL     1      -0.306  10.062  20.755  0.00  0.00    +0.000 C 
ATOM      4  C   UNL     1       0.464   8.761  20.986  0.00  0.00    +0.000 C 
ATOM      5  C   UNL     1       1.173   8.243  19.716  0.00  0.00    +0.000 C 
ATOM      6  C   UNL     1       2.071   6.989  19.957  0.00  0.00    +0.000 C 
ATOM      7  C   UNL     1       1.458   5.934  20.902  0.00  0.00    +0.000 C 
ATOM      8  C   UNL     1       1.224   4.519  20.401  0.00  0.00    +0.000 C 
ATOM      9  C   UNL     1       1.735   4.173  19.033  0.00  0.00    +0.000 C 
ATOM     10  O   UNL     1       1.627   3.032  18.584  0.00  0.00    +0.000 OA
ATOM     11  C   UNL     1       2.369   5.207  18.198  0.00  0.00    +0.000 C 
ATOM     12  C   UNL     1       2.534   6.470  18.615  0.00  0.00    +0.000 C 
ATOM     13  C   UNL     1       3.229   7.486  17.735  0.00  0.00    +0.000 C 
ATOM     14  C   UNL     1       2.464   8.811  17.620  0.00  0.00    +0.000 C 
ATOM     15  C   UNL     1       2.020   9.354  18.994  0.00  0.00    +0.000 C 
ATOM     16  C   UNL     1       1.191  10.637  18.855  0.00  0.00    +0.000 C 
ATOM     17  C   UNL     1       1.811  11.912  18.292  0.00  0.00    +0.000 C 
ATOM     18  C   UNL     1       0.698  12.949  18.543  0.00  0.00    +0.000 C 
ATOM     19  C   UNL     1      -0.165  12.401  19.703  0.00  0.00    +0.000 C 
ENDROOT
BRANCH  19  20
ATOM     20  O   UNL     1      -0.335  13.309  20.780  0.00  0.00    +0.000 OA
BRANCH  20  21
ATOM     21  C   UNL     1      -1.471  14.168  20.717  0.00  0.00    +0.000 C 
ATOM     22  C   UNL     1      -2.647  13.196  20.972  0.00  0.00    +0.000 C 
ATOM     23  O   UNL     1      -3.174  12.451  20.163  0.00  0.00    +0.000 OA
ATOM     24  C   UNL     1      -3.050  13.318  22.372  0.00  0.00    +0.000 A 
ATOM     25  C   UNL     1      -3.910  12.503  23.093  0.00  0.00    +0.000 A 
ATOM     26  C   UNL     1      -4.111  12.818  24.441  0.00  0.00    +0.000 A 
ATOM     27  C   UNL     1      -3.469  13.926  25.030  0.00  0.00    +0.000 A 
ATOM     28  C   UNL     1      -2.616  14.740  24.279  0.00  0.00    +0.000 A 
ATOM     29  C   UNL     1      -2.420  14.403  22.952  0.00  0.00    +0.000 A 
ATOM     30  C   UNL     1      -1.578  15.080  21.966  0.00  0.00    +0.000 C 
ATOM     31  O   UNL     1      -1.084  16.177  22.157  0.00  0.00    +0.000 OA
BRANCH  21  32
ATOM     32  O   UNL     1      -1.587  14.778  19.460  0.00  0.00    +0.000 OA
ATOM     33  H   UNL     1      -0.779  15.311  19.353  0.00  0.00    +0.000 HD
ENDBRANCH  21  32
ENDBRANCH  20  21
ENDBRANCH  19  20
TORSDOF 3
ENDMDL
