MODEL 1
REMARK VINA RESULT:      -8.1      0.000      0.000
REMARK  Name = 
REMARK  18 active torsions:
REMARK  status: ('A' for Active; 'I' for Inactive)
REMARK    1  A    between atoms: C_1  and  C_2
REMARK    2  A    between atoms: C_2  and  C_3
REMARK    3  A    between atoms: C_3  and  C_4
REMARK    4  A    between atoms: C_4  and  C_5
REMARK    5  A    between atoms: C_5  and  C_6
REMARK    6  A    between atoms: C_6  and  C_7
REMARK    7  A    between atoms: C_7  and  N_8
REMARK    8  A    between atoms: N_8  and  C_9
REMARK    9  A    between atoms: N_8  and  C_16
REMARK   10  A    between atoms: C_9  and  C_10
REMARK   11  A    between atoms: C_10  and  C_11
REMARK   12  A    between atoms: C_11  and  C_12
REMARK   13  A    between atoms: C_12  and  C_13
REMARK   14  A    between atoms: C_13  and  C_14
REMARK   15  A    between atoms: C_14  and  C_15
REMARK   16  A    between atoms: C_16  and  C_17
REMARK   17  A    between atoms: C_17  and  O_18
REMARK   18  A    between atoms: C_17  and  C_19
REMARK                            x       y       z     vdW  Elec       q    Type
REMARK                         _______ _______ _______ _____ _____    ______ ____
ROOT
ATOM      1  C   UNL     1       4.626   5.255  17.049  0.00  0.00    +0.000 C 
ENDROOT
BRANCH   1   2
ATOM      2  C   UNL     1       3.687   6.018  17.979  0.00  0.00    +0.000 A 
ATOM      3  C   UNL     1       3.379   7.337  17.630  0.00  0.00    +0.000 A 
ATOM      4  C   UNL     1       2.508   8.127  18.376  0.00  0.00    +0.000 A 
ATOM      5  C   UNL     1       2.320   9.437  17.896  0.00  0.00    +0.000 A 
ATOM      6  C   UNL     1       1.489  10.333  18.551  0.00  0.00    +0.000 A 
ATOM      7  C   UNL     1       0.852   9.907  19.701  0.00  0.00    +0.000 A 
ATOM      8  C   UNL     1       1.029   8.596  20.189  0.00  0.00    +0.000 A 
ATOM      9 CL   UNL     1       0.108   8.299  21.629  0.00  0.00    +0.000 Cl
ATOM     10  C   UNL     1       1.884   7.626  19.542  0.00  0.00    +0.000 A 
ATOM     11  C   UNL     1       2.184   6.223  19.915  0.00  0.00    +0.000 A 
ATOM     12  C   UNL     1       1.644   5.544  21.043  0.00  0.00    +0.000 A 
ATOM     13  C   UNL     1       1.927   4.215  21.372  0.00  0.00    +0.000 A 
ATOM     14  C   UNL     1       2.770   3.478  20.574  0.00  0.00    +0.000 A 
ATOM     15  C   UNL     1       3.334   4.085  19.460  0.00  0.00    +0.000 A 
ATOM     16  C   UNL     1       3.075   5.438  19.112  0.00  0.00    +0.000 A 
ENDBRANCH   1   2
BRANCH   1  17
ATOM     17  O   UNL     1       3.964   4.082  16.555  0.00  0.00    +0.000 OA
ATOM     18  H   UNL     1       4.650   3.403  16.431  0.00  0.00    +0.000 HD
ENDBRANCH   1  17
BRANCH   1  19
ATOM     19  C   UNL     1       5.918   4.884  17.828  0.00  0.00    +0.000 C 
BRANCH  19  20
ATOM     20  N   UNL     1       7.211   5.058  17.108  0.00  0.00    +0.000 NA
BRANCH  20  21
ATOM     21  C   UNL     1       7.387   6.493  16.778  0.00  0.00    +0.000 C 
BRANCH  21  22
ATOM     22  C   UNL     1       7.520   7.426  18.001  0.00  0.00    +0.000 C 
BRANCH  22  23
ATOM     23  C   UNL     1       8.019   8.838  17.667  0.00  0.00    +0.000 C 
BRANCH  23  24
ATOM     24  C   UNL     1       8.938   9.435  18.735  0.00  0.00    +0.000 C 
BRANCH  24  25
ATOM     25  C   UNL     1       9.081  10.947  18.575  0.00  0.00    +0.000 C 
BRANCH  25  26
ATOM     26  C   UNL     1      10.346  11.332  17.823  0.00  0.00    +0.000 C 
ATOM     27  C   UNL     1      10.281  12.796  17.422  0.00  0.00    +0.000 C 
ENDBRANCH  25  26
ENDBRANCH  24  25
ENDBRANCH  23  24
ENDBRANCH  22  23
ENDBRANCH  21  22
ENDBRANCH  20  21
BRANCH  20  28
ATOM     28  C   UNL     1       7.202   4.236  15.874  0.00  0.00    +0.000 C 
BRANCH  28  29
ATOM     29  C   UNL     1       7.006   4.974  14.538  0.00  0.00    +0.000 C 
BRANCH  29  30
ATOM     30  C   UNL     1       5.963   4.357  13.604  0.00  0.00    +0.000 C 
BRANCH  30  31
ATOM     31  C   UNL     1       6.601   3.695  12.383  0.00  0.00    +0.000 C 
BRANCH  31  32
ATOM     32  C   UNL     1       5.638   2.736  11.693  0.00  0.00    +0.000 C 
BRANCH  32  34
ATOM     33  C   UNL     1       3.590   3.371  10.388  0.00  0.00    +0.000 C 
ATOM     34  C   UNL     1       4.208   3.267  11.771  0.00  0.00    +0.000 C 
ENDBRANCH  32  34
ENDBRANCH  31  32
ENDBRANCH  30  31
ENDBRANCH  29  30
ENDBRANCH  28  29
ENDBRANCH  20  28
ENDBRANCH  19  20
ENDBRANCH   1  19
TORSDOF 16
ENDMDL
MODEL 2
REMARK VINA RESULT:      -7.5      0.957      1.098
REMARK  Name = 
REMARK  18 active torsions:
REMARK  status: ('A' for Active; 'I' for Inactive)
REMARK    1  A    between atoms: C_1  and  C_2
REMARK    2  A    between atoms: C_2  and  C_3
REMARK    3  A    between atoms: C_3  and  C_4
REMARK    4  A    between atoms: C_4  and  C_5
REMARK    5  A    between atoms: C_5  and  C_6
REMARK    6  A    between atoms: C_6  and  C_7
REMARK    7  A    between atoms: C_7  and  N_8
REMARK    8  A    between atoms: N_8  and  C_9
REMARK    9  A    between atoms: N_8  and  C_16
REMARK   10  A    between atoms: C_9  and  C_10
REMARK   11  A    between atoms: C_10  and  C_11
REMARK   12  A    between atoms: C_11  and  C_12
REMARK   13  A    between atoms: C_12  and  C_13
REMARK   14  A    between atoms: C_13  and  C_14
REMARK   15  A    between atoms: C_14  and  C_15
REMARK   16  A    between atoms: C_16  and  C_17
REMARK   17  A    between atoms: C_17  and  O_18
REMARK   18  A    between atoms: C_17  and  C_19
REMARK                            x       y       z     vdW  Elec       q    Type
REMARK                         _______ _______ _______ _____ _____    ______ ____
ROOT
ATOM      1  C   UNL     1       4.929   4.303  17.267  0.00  0.00    +0.000 C 
ENDROOT
BRANCH   1   2
ATOM      2  C   UNL     1       3.988   5.177  18.090  0.00  0.00    +0.000 A 
ATOM      3  C   UNL     1       3.732   6.466  17.611  0.00  0.00    +0.000 A 
ATOM      4  C   UNL     1       2.866   7.348  18.250  0.00  0.00    +0.000 A 
ATOM      5  C   UNL     1       2.735   8.612  17.645  0.00  0.00    +0.000 A 
ATOM      6  C   UNL     1       1.913   9.589  18.185  0.00  0.00    +0.000 A 
ATOM      7  C   UNL     1       1.228   9.292  19.348  0.00  0.00    +0.000 A 
ATOM      8  C   UNL     1       1.348   8.028  19.962  0.00  0.00    +0.000 A 
ATOM      9 CL   UNL     1       0.373   7.894  21.391  0.00  0.00    +0.000 Cl
ATOM     10  C   UNL     1       2.190   6.977  19.436  0.00  0.00    +0.000 A 
ATOM     11  C   UNL     1       2.433   5.607  19.948  0.00  0.00    +0.000 A 
ATOM     12  C   UNL     1       1.837   5.053  21.115  0.00  0.00    +0.000 A 
ATOM     13  C   UNL     1       2.067   3.753  21.575  0.00  0.00    +0.000 A 
ATOM     14  C   UNL     1       2.910   2.920  20.879  0.00  0.00    +0.000 A 
ATOM     15  C   UNL     1       3.527   3.403  19.732  0.00  0.00    +0.000 A 
ATOM     16  C   UNL     1       3.322   4.724  19.251  0.00  0.00    +0.000 A 
ENDBRANCH   1   2
BRANCH   1  17
ATOM     17  O   UNL     1       4.492   2.938  17.327  0.00  0.00    +0.000 OA
ATOM     18  H   UNL     1       5.221   2.395  16.978  0.00  0.00    +0.000 HD
ENDBRANCH   1  17
BRANCH   1  19
ATOM     19  C   UNL     1       6.373   4.456  17.821  0.00  0.00    +0.000 C 
BRANCH  19  20
ATOM     20  N   UNL     1       7.272   5.403  17.104  0.00  0.00    +0.000 NA
BRANCH  20  21
ATOM     21  C   UNL     1       7.457   6.615  17.940  0.00  0.00    +0.000 C 
BRANCH  21  22
ATOM     22  C   UNL     1       7.744   7.908  17.149  0.00  0.00    +0.000 C 
BRANCH  22  23
ATOM     23  C   UNL     1       7.826   9.173  18.015  0.00  0.00    +0.000 C 
BRANCH  23  24
ATOM     24  C   UNL     1       9.055   9.218  18.925  0.00  0.00    +0.000 C 
BRANCH  24  25
ATOM     25  C   UNL     1       9.819  10.531  18.776  0.00  0.00    +0.000 C 
BRANCH  25  26
ATOM     26  C   UNL     1       9.346  11.590  19.761  0.00  0.00    +0.000 C 
ATOM     27  C   UNL     1      10.498  12.006  20.661  0.00  0.00    +0.000 C 
ENDBRANCH  25  26
ENDBRANCH  24  25
ENDBRANCH  23  24
ENDBRANCH  22  23
ENDBRANCH  21  22
ENDBRANCH  20  21
BRANCH  20  28
ATOM     28  C   UNL     1       6.671   5.758  15.796  0.00  0.00    +0.000 C 
BRANCH  28  29
ATOM     29  C   UNL     1       7.172   4.992  14.559  0.00  0.00    +0.000 C 
BRANCH  29  30
ATOM     30  C   UNL     1       6.377   3.732  14.210  0.00  0.00    +0.000 C 
BRANCH  30  31
ATOM     31  C   UNL     1       5.329   3.992  13.130  0.00  0.00    +0.000 C 
BRANCH  31  32
ATOM     32  C   UNL     1       5.443   2.998  11.980  0.00  0.00    +0.000 C 
BRANCH  32  34
ATOM     33  C   UNL     1       3.182   3.012  10.891  0.00  0.00    +0.000 C 
ATOM     34  C   UNL     1       4.625   3.471  10.780  0.00  0.00    +0.000 C 
ENDBRANCH  32  34
ENDBRANCH  31  32
ENDBRANCH  30  31
ENDBRANCH  29  30
ENDBRANCH  28  29
ENDBRANCH  20  28
ENDBRANCH  19  20
ENDBRANCH   1  19
TORSDOF 16
ENDMDL
MODEL 3
REMARK VINA RESULT:      -7.5      1.080      1.471
REMARK  Name = 
REMARK  18 active torsions:
REMARK  status: ('A' for Active; 'I' for Inactive)
REMARK    1  A    between atoms: C_1  and  C_2
REMARK    2  A    between atoms: C_2  and  C_3
REMARK    3  A    between atoms: C_3  and  C_4
REMARK    4  A    between atoms: C_4  and  C_5
REMARK    5  A    between atoms: C_5  and  C_6
REMARK    6  A    between atoms: C_6  and  C_7
REMARK    7  A    between atoms: C_7  and  N_8
REMARK    8  A    between atoms: N_8  and  C_9
REMARK    9  A    between atoms: N_8  and  C_16
REMARK   10  A    between atoms: C_9  and  C_10
REMARK   11  A    between atoms: C_10  and  C_11
REMARK   12  A    between atoms: C_11  and  C_12
REMARK   13  A    between atoms: C_12  and  C_13
REMARK   14  A    between atoms: C_13  and  C_14
REMARK   15  A    between atoms: C_14  and  C_15
REMARK   16  A    between atoms: C_16  and  C_17
REMARK   17  A    between atoms: C_17  and  O_18
REMARK   18  A    between atoms: C_17  and  C_19
REMARK                            x       y       z     vdW  Elec       q    Type
REMARK                         _______ _______ _______ _____ _____    ______ ____
ROOT
ATOM      1  C   UNL     1       4.742   3.796  17.484  0.00  0.00    +0.000 C 
ENDROOT
BRANCH   1   2
ATOM      2  C   UNL     1       3.861   4.745  18.291  0.00  0.00    +0.000 A 
ATOM      3  C   UNL     1       3.631   6.015  17.752  0.00  0.00    +0.000 A 
ATOM      4  C   UNL     1       2.818   6.959  18.373  0.00  0.00    +0.000 A 
ATOM      5  C   UNL     1       2.707   8.194  17.706  0.00  0.00    +0.000 A 
ATOM      6  C   UNL     1       1.938   9.226  18.221  0.00  0.00    +0.000 A 
ATOM      7  C   UNL     1       1.287   9.015  19.421  0.00  0.00    +0.000 A 
ATOM      8  C   UNL     1       1.387   7.781  20.097  0.00  0.00    +0.000 A 
ATOM      9 CL   UNL     1       0.461   7.756  21.564  0.00  0.00    +0.000 Cl
ATOM     10  C   UNL     1       2.174   6.675  19.600  0.00  0.00    +0.000 A 
ATOM     11  C   UNL     1       2.389   5.326  20.176  0.00  0.00    +0.000 A 
ATOM     12  C   UNL     1       1.818   4.855  21.390  0.00  0.00    +0.000 A 
ATOM     13  C   UNL     1       2.021   3.573  21.912  0.00  0.00    +0.000 A 
ATOM     14  C   UNL     1       2.810   2.676  21.232  0.00  0.00    +0.000 A 
ATOM     15  C   UNL     1       3.401   3.077  20.040  0.00  0.00    +0.000 A 
ATOM     16  C   UNL     1       3.223   4.377  19.497  0.00  0.00    +0.000 A 
ENDBRANCH   1   2
BRANCH   1  17
ATOM     17  O   UNL     1       5.985   3.594  18.171  0.00  0.00    +0.000 OA
ATOM     18  H   UNL     1       6.356   4.477  18.345  0.00  0.00    +0.000 HD
ENDBRANCH   1  17
BRANCH   1  19
ATOM     19  C   UNL     1       4.973   4.400  16.071  0.00  0.00    +0.000 C 
BRANCH  19  20
ATOM     20  N   UNL     1       6.323   4.967  15.794  0.00  0.00    +0.000 NA
BRANCH  20  21
ATOM     21  C   UNL     1       6.216   6.444  15.712  0.00  0.00    +0.000 C 
BRANCH  21  22
ATOM     22  C   UNL     1       6.532   7.189  17.025  0.00  0.00    +0.000 C 
BRANCH  22  23
ATOM     23  C   UNL     1       8.021   7.500  17.233  0.00  0.00    +0.000 C 
BRANCH  23  24
ATOM     24  C   UNL     1       8.303   8.369  18.461  0.00  0.00    +0.000 C 
BRANCH  24  25
ATOM     25  C   UNL     1       8.170   9.856  18.142  0.00  0.00    +0.000 C 
BRANCH  25  26
ATOM     26  C   UNL     1       9.509  10.577  18.173  0.00  0.00    +0.000 C 
ATOM     27  C   UNL     1       9.426  11.776  19.102  0.00  0.00    +0.000 C 
ENDBRANCH  25  26
ENDBRANCH  24  25
ENDBRANCH  23  24
ENDBRANCH  22  23
ENDBRANCH  21  22
ENDBRANCH  20  21
BRANCH  20  28
ATOM     28  C   UNL     1       6.840   4.408  14.522  0.00  0.00    +0.000 C 
BRANCH  28  29
ATOM     29  C   UNL     1       5.813   4.102  13.418  0.00  0.00    +0.000 C 
BRANCH  29  30
ATOM     30  C   UNL     1       6.305   3.158  12.319  0.00  0.00    +0.000 C 
BRANCH  30  31
ATOM     31  C   UNL     1       5.433   3.228  11.066  0.00  0.00    +0.000 C 
BRANCH  31  32
ATOM     32  C   UNL     1       3.949   3.258  11.411  0.00  0.00    +0.000 C 
BRANCH  32  34
ATOM     33  C   UNL     1       2.870   4.470   9.497  0.00  0.00    +0.000 C 
ATOM     34  C   UNL     1       3.103   3.118  10.147  0.00  0.00    +0.000 C 
ENDBRANCH  32  34
ENDBRANCH  31  32
ENDBRANCH  30  31
ENDBRANCH  29  30
ENDBRANCH  28  29
ENDBRANCH  20  28
ENDBRANCH  19  20
ENDBRANCH   1  19
TORSDOF 16
ENDMDL
MODEL 4
REMARK VINA RESULT:      -7.5      3.531      7.180
REMARK  Name = 
REMARK  18 active torsions:
REMARK  status: ('A' for Active; 'I' for Inactive)
REMARK    1  A    between atoms: C_1  and  C_2
REMARK    2  A    between atoms: C_2  and  C_3
REMARK    3  A    between atoms: C_3  and  C_4
REMARK    4  A    between atoms: C_4  and  C_5
REMARK    5  A    between atoms: C_5  and  C_6
REMARK    6  A    between atoms: C_6  and  C_7
REMARK    7  A    between atoms: C_7  and  N_8
REMARK    8  A    between atoms: N_8  and  C_9
REMARK    9  A    between atoms: N_8  and  C_16
REMARK   10  A    between atoms: C_9  and  C_10
REMARK   11  A    between atoms: C_10  and  C_11
REMARK   12  A    between atoms: C_11  and  C_12
REMARK   13  A    between atoms: C_12  and  C_13
REMARK   14  A    between atoms: C_13  and  C_14
REMARK   15  A    between atoms: C_14  and  C_15
REMARK   16  A    between atoms: C_16  and  C_17
REMARK   17  A    between atoms: C_17  and  O_18
REMARK   18  A    between atoms: C_17  and  C_19
REMARK                            x       y       z     vdW  Elec       q    Type
REMARK                         _______ _______ _______ _____ _____    ______ ____
ROOT
ATOM      1  C   UNL     1       1.473   9.931  18.568  0.00  0.00    +0.000 C 
ENDROOT
BRANCH   1   2
ATOM      2  C   UNL     1       0.046  10.471  18.581  0.00  0.00    +0.000 A 
ATOM      3  C   UNL     1      -0.760  10.166  17.479  0.00  0.00    +0.000 A 
ATOM      4  C   UNL     1      -2.089  10.568  17.386  0.00  0.00    +0.000 A 
ATOM      5  C   UNL     1      -2.753  10.193  16.203  0.00  0.00    +0.000 A 
ATOM      6  C   UNL     1      -4.076  10.541  15.976  0.00  0.00    +0.000 A 
ATOM      7  C   UNL     1      -4.729  11.279  16.944  0.00  0.00    +0.000 A 
ATOM      8  C   UNL     1      -4.076  11.658  18.136  0.00  0.00    +0.000 A 
ATOM      9 CL   UNL     1      -5.113  12.555  19.198  0.00  0.00    +0.000 Cl
ATOM     10  C   UNL     1      -2.699  11.319  18.418  0.00  0.00    +0.000 A 
ATOM     11  C   UNL     1      -1.866  11.634  19.603  0.00  0.00    +0.000 A 
ATOM     12  C   UNL     1      -2.307  12.365  20.741  0.00  0.00    +0.000 A 
ATOM     13  C   UNL     1      -1.510  12.641  21.857  0.00  0.00    +0.000 A 
ATOM     14  C   UNL     1      -0.214  12.185  21.901  0.00  0.00    +0.000 A 
ATOM     15  C   UNL     1       0.278  11.468  20.818  0.00  0.00    +0.000 A 
ATOM     16  C   UNL     1      -0.505  11.187  19.667  0.00  0.00    +0.000 A 
ENDBRANCH   1   2
BRANCH   1  17
ATOM     17  O   UNL     1       2.233  10.607  17.556  0.00  0.00    +0.000 OA
ATOM     18  H   UNL     1       1.591  11.028  16.958  0.00  0.00    +0.000 HD
ENDBRANCH   1  17
BRANCH   1  19
ATOM     19  C   UNL     1       1.432   8.399  18.312  0.00  0.00    +0.000 C 
BRANCH  19  20
ATOM     20  N   UNL     1       2.506   7.583  18.944  0.00  0.00    +0.000 NA
BRANCH  20  21
ATOM     21  C   UNL     1       2.982   6.576  17.965  0.00  0.00    +0.000 C 
BRANCH  21  22
ATOM     22  C   UNL     1       4.470   6.704  17.576  0.00  0.00    +0.000 C 
BRANCH  22  23
ATOM     23  C   UNL     1       5.259   5.389  17.655  0.00  0.00    +0.000 C 
BRANCH  23  24
ATOM     24  C   UNL     1       4.757   4.311  16.691  0.00  0.00    +0.000 C 
BRANCH  24  25
ATOM     25  C   UNL     1       5.099   4.647  15.242  0.00  0.00    +0.000 C 
BRANCH  25  26
ATOM     26  C   UNL     1       6.317   3.884  14.744  0.00  0.00    +0.000 C 
ATOM     27  C   UNL     1       6.288   3.802  13.227  0.00  0.00    +0.000 C 
ENDBRANCH  25  26
ENDBRANCH  24  25
ENDBRANCH  23  24
ENDBRANCH  22  23
ENDBRANCH  21  22
ENDBRANCH  20  21
BRANCH  20  28
ATOM     28  C   UNL     1       1.972   6.920  20.158  0.00  0.00    +0.000 C 
BRANCH  28  29
ATOM     29  C   UNL     1       2.269   5.420  20.329  0.00  0.00    +0.000 C 
BRANCH  29  30
ATOM     30  C   UNL     1       1.036   4.513  20.348  0.00  0.00    +0.000 C 
BRANCH  30  31
ATOM     31  C   UNL     1       1.406   3.039  20.508  0.00  0.00    +0.000 C 
BRANCH  31  32
ATOM     32  C   UNL     1       2.914   2.845  20.625  0.00  0.00    +0.000 C 
BRANCH  32  34
ATOM     33  C   UNL     1       2.369   1.983  18.331  0.00  0.00    +0.000 C 
ATOM     34  C   UNL     1       3.474   2.230  19.344  0.00  0.00    +0.000 C 
ENDBRANCH  32  34
ENDBRANCH  31  32
ENDBRANCH  30  31
ENDBRANCH  29  30
ENDBRANCH  28  29
ENDBRANCH  20  28
ENDBRANCH  19  20
ENDBRANCH   1  19
TORSDOF 16
ENDMDL
MODEL 5
REMARK VINA RESULT:      -7.4      1.208      6.344
REMARK  Name = 
REMARK  18 active torsions:
REMARK  status: ('A' for Active; 'I' for Inactive)
REMARK    1  A    between atoms: C_1  and  C_2
REMARK    2  A    between atoms: C_2  and  C_3
REMARK    3  A    between atoms: C_3  and  C_4
REMARK    4  A    between atoms: C_4  and  C_5
REMARK    5  A    between atoms: C_5  and  C_6
REMARK    6  A    between atoms: C_6  and  C_7
REMARK    7  A    between atoms: C_7  and  N_8
REMARK    8  A    between atoms: N_8  and  C_9
REMARK    9  A    between atoms: N_8  and  C_16
REMARK   10  A    between atoms: C_9  and  C_10
REMARK   11  A    between atoms: C_10  and  C_11
REMARK   12  A    between atoms: C_11  and  C_12
REMARK   13  A    between atoms: C_12  and  C_13
REMARK   14  A    between atoms: C_13  and  C_14
REMARK   15  A    between atoms: C_14  and  C_15
REMARK   16  A    between atoms: C_16  and  C_17
REMARK   17  A    between atoms: C_17  and  O_18
REMARK   18  A    between atoms: C_17  and  C_19
REMARK                            x       y       z     vdW  Elec       q    Type
REMARK                         _______ _______ _______ _____ _____    ______ ____
ROOT
ATOM      1  C   UNL     1       5.491   3.777  17.977  0.00  0.00    +0.000 C 
ENDROOT
BRANCH   1   2
ATOM      2  C   UNL     1       4.422   4.685  18.578  0.00  0.00    +0.000 A 
ATOM      3  C   UNL     1       4.247   5.940  17.987  0.00  0.00    +0.000 A 
ATOM      4  C   UNL     1       3.282   6.846  18.419  0.00  0.00    +0.000 A 
ATOM      5  C   UNL     1       3.250   8.072  17.728  0.00  0.00    +0.000 A 
ATOM      6  C   UNL     1       2.346   9.067  18.065  0.00  0.00    +0.000 A 
ATOM      7  C   UNL     1       1.477   8.829  19.112  0.00  0.00    +0.000 A 
ATOM      8  C   UNL     1       1.496   7.604  19.811  0.00  0.00    +0.000 A 
ATOM      9 CL   UNL     1       0.297   7.540  21.062  0.00  0.00    +0.000 Cl
ATOM     10  C   UNL     1       2.418   6.536  19.496  0.00  0.00    +0.000 A 
ATOM     11  C   UNL     1       2.577   5.201  20.121  0.00  0.00    +0.000 A 
ATOM     12  C   UNL     1       1.796   4.707  21.203  0.00  0.00    +0.000 A 
ATOM     13  C   UNL     1       1.950   3.439  21.772  0.00  0.00    +0.000 A 
ATOM     14  C   UNL     1       2.901   2.578  21.276  0.00  0.00    +0.000 A 
ATOM     15  C   UNL     1       3.699   3.003  20.222  0.00  0.00    +0.000 A 
ATOM     16  C   UNL     1       3.573   4.291  19.636  0.00  0.00    +0.000 A 
ENDBRANCH   1   2
BRANCH   1  17
ATOM     17  O   UNL     1       6.782   4.165  18.469  0.00  0.00    +0.000 OA
ATOM     18  H   UNL     1       7.020   3.527  19.165  0.00  0.00    +0.000 HD
ENDBRANCH   1  17
BRANCH   1  19
ATOM     19  C   UNL     1       5.427   3.878  16.428  0.00  0.00    +0.000 C 
BRANCH  19  20
ATOM     20  N   UNL     1       5.715   5.211  15.828  0.00  0.00    +0.000 NA
BRANCH  20  21
ATOM     21  C   UNL     1       5.827   5.061  14.357  0.00  0.00    +0.000 C 
BRANCH  21  22
ATOM     22  C   UNL     1       6.078   3.618  13.871  0.00  0.00    +0.000 C 
BRANCH  22  23
ATOM     23  C   UNL     1       6.211   3.477  12.349  0.00  0.00    +0.000 C 
BRANCH  23  24
ATOM     24  C   UNL     1       4.970   2.888  11.675  0.00  0.00    +0.000 C 
BRANCH  24  25
ATOM     25  C   UNL     1       4.077   3.977  11.086  0.00  0.00    +0.000 C 
BRANCH  25  26
ATOM     26  C   UNL     1       3.107   3.432  10.048  0.00  0.00    +0.000 C 
ATOM     27  C   UNL     1       2.571   4.572   9.197  0.00  0.00    +0.000 C 
ENDBRANCH  25  26
ENDBRANCH  24  25
ENDBRANCH  23  24
ENDBRANCH  22  23
ENDBRANCH  21  22
ENDBRANCH  20  21
BRANCH  20  28
ATOM     28  C   UNL     1       6.977   5.744  16.396  0.00  0.00    +0.000 C 
BRANCH  28  29
ATOM     29  C   UNL     1       7.028   7.251  16.706  0.00  0.00    +0.000 C 
BRANCH  29  30
ATOM     30  C   UNL     1       7.898   7.636  17.905  0.00  0.00    +0.000 C 
BRANCH  30  31
ATOM     31  C   UNL     1       8.176   9.138  17.956  0.00  0.00    +0.000 C 
BRANCH  31  32
ATOM     32  C   UNL     1       9.008   9.517  19.176  0.00  0.00    +0.000 C 
BRANCH  32  34
ATOM     33  C   UNL     1       9.843  11.600  20.300  0.00  0.00    +0.000 C 
ATOM     34  C   UNL     1       9.661  10.883  18.974  0.00  0.00    +0.000 C 
ENDBRANCH  32  34
ENDBRANCH  31  32
ENDBRANCH  30  31
ENDBRANCH  29  30
ENDBRANCH  28  29
ENDBRANCH  20  28
ENDBRANCH  19  20
ENDBRANCH   1  19
TORSDOF 16
ENDMDL
MODEL 6
REMARK VINA RESULT:      -7.3      0.960      1.255
REMARK  Name = 
REMARK  18 active torsions:
REMARK  status: ('A' for Active; 'I' for Inactive)
REMARK    1  A    between atoms: C_1  and  C_2
REMARK    2  A    between atoms: C_2  and  C_3
REMARK    3  A    between atoms: C_3  and  C_4
REMARK    4  A    between atoms: C_4  and  C_5
REMARK    5  A    between atoms: C_5  and  C_6
REMARK    6  A    between atoms: C_6  and  C_7
REMARK    7  A    between atoms: C_7  and  N_8
REMARK    8  A    between atoms: N_8  and  C_9
REMARK    9  A    between atoms: N_8  and  C_16
REMARK   10  A    between atoms: C_9  and  C_10
REMARK   11  A    between atoms: C_10  and  C_11
REMARK   12  A    between atoms: C_11  and  C_12
REMARK   13  A    between atoms: C_12  and  C_13
REMARK   14  A    between atoms: C_13  and  C_14
REMARK   15  A    between atoms: C_14  and  C_15
REMARK   16  A    between atoms: C_16  and  C_17
REMARK   17  A    between atoms: C_17  and  O_18
REMARK   18  A    between atoms: C_17  and  C_19
REMARK                            x       y       z     vdW  Elec       q    Type
REMARK                         _______ _______ _______ _____ _____    ______ ____
ROOT
ATOM      1  C   UNL     1       4.505   4.648  17.005  0.00  0.00    +0.000 C 
ENDROOT
BRANCH   1   2
ATOM      2  C   UNL     1       3.650   5.497  17.940  0.00  0.00    +0.000 A 
ATOM      3  C   UNL     1       3.378   6.809  17.539  0.00  0.00    +0.000 A 
ATOM      4  C   UNL     1       2.582   7.674  18.285  0.00  0.00    +0.000 A 
ATOM      5  C   UNL     1       2.422   8.965  17.748  0.00  0.00    +0.000 A 
ATOM      6  C   UNL     1       1.664   9.928  18.396  0.00  0.00    +0.000 A 
ATOM      7  C   UNL     1       1.073   9.589  19.598  0.00  0.00    +0.000 A 
ATOM      8  C   UNL     1       1.222   8.297  20.145  0.00  0.00    +0.000 A 
ATOM      9 CL   UNL     1       0.366   8.114  21.643  0.00  0.00    +0.000 Cl
ATOM     10  C   UNL     1       2.000   7.260  19.507  0.00  0.00    +0.000 A 
ATOM     11  C   UNL     1       2.261   5.865  19.938  0.00  0.00    +0.000 A 
ATOM     12  C   UNL     1       1.754   5.269  21.125  0.00  0.00    +0.000 A 
ATOM     13  C   UNL     1       2.000   3.946  21.509  0.00  0.00    +0.000 A 
ATOM     14  C   UNL     1       2.768   3.134  20.709  0.00  0.00    +0.000 A 
ATOM     15  C   UNL     1       3.296   3.659  19.537  0.00  0.00    +0.000 A 
ATOM     16  C   UNL     1       3.075   5.003  19.132  0.00  0.00    +0.000 A 
ENDBRANCH   1   2
BRANCH   1  17
ATOM     17  O   UNL     1       3.722   3.561  16.493  0.00  0.00    +0.000 OA
ATOM     18  H   UNL     1       2.932   3.954  16.081  0.00  0.00    +0.000 HD
ENDBRANCH   1  17
BRANCH   1  19
ATOM     19  C   UNL     1       5.745   4.129  17.786  0.00  0.00    +0.000 C 
BRANCH  19  20
ATOM     20  N   UNL     1       7.014   4.890  17.616  0.00  0.00    +0.000 NA
BRANCH  20  21
ATOM     21  C   UNL     1       7.173   5.818  18.762  0.00  0.00    +0.000 C 
BRANCH  21  22
ATOM     22  C   UNL     1       8.180   6.964  18.531  0.00  0.00    +0.000 C 
BRANCH  22  23
ATOM     23  C   UNL     1       7.567   8.231  17.918  0.00  0.00    +0.000 C 
BRANCH  23  24
ATOM     24  C   UNL     1       8.600   9.297  17.544  0.00  0.00    +0.000 C 
BRANCH  24  25
ATOM     25  C   UNL     1       8.457  10.547  18.408  0.00  0.00    +0.000 C 
BRANCH  25  26
ATOM     26  C   UNL     1       9.736  10.876  19.164  0.00  0.00    +0.000 C 
ATOM     27  C   UNL     1       9.436  11.013  20.647  0.00  0.00    +0.000 C 
ENDBRANCH  25  26
ENDBRANCH  24  25
ENDBRANCH  23  24
ENDBRANCH  22  23
ENDBRANCH  21  22
ENDBRANCH  20  21
BRANCH  20  28
ATOM     28  C   UNL     1       6.971   5.641  16.338  0.00  0.00    +0.000 C 
BRANCH  28  29
ATOM     29  C   UNL     1       7.466   4.912  15.076  0.00  0.00    +0.000 C 
BRANCH  29  30
ATOM     30  C   UNL     1       6.536   5.009  13.865  0.00  0.00    +0.000 C 
BRANCH  30  31
ATOM     31  C   UNL     1       5.974   3.647  13.459  0.00  0.00    +0.000 C 
BRANCH  31  32
ATOM     32  C   UNL     1       6.451   3.230  12.072  0.00  0.00    +0.000 C 
BRANCH  32  34
ATOM     33  C   UNL     1       6.308   0.947  11.040  0.00  0.00    +0.000 C 
ATOM     34  C   UNL     1       5.523   2.169  11.484  0.00  0.00    +0.000 C 
ENDBRANCH  32  34
ENDBRANCH  31  32
ENDBRANCH  30  31
ENDBRANCH  29  30
ENDBRANCH  28  29
ENDBRANCH  20  28
ENDBRANCH  19  20
ENDBRANCH   1  19
TORSDOF 16
ENDMDL
MODEL 7
REMARK VINA RESULT:      -7.2      3.319      7.201
REMARK  Name = 
REMARK  18 active torsions:
REMARK  status: ('A' for Active; 'I' for Inactive)
REMARK    1  A    between atoms: C_1  and  C_2
REMARK    2  A    between atoms: C_2  and  C_3
REMARK    3  A    between atoms: C_3  and  C_4
REMARK    4  A    between atoms: C_4  and  C_5
REMARK    5  A    between atoms: C_5  and  C_6
REMARK    6  A    between atoms: C_6  and  C_7
REMARK    7  A    between atoms: C_7  and  N_8
REMARK    8  A    between atoms: N_8  and  C_9
REMARK    9  A    between atoms: N_8  and  C_16
REMARK   10  A    between atoms: C_9  and  C_10
REMARK   11  A    between atoms: C_10  and  C_11
REMARK   12  A    between atoms: C_11  and  C_12
REMARK   13  A    between atoms: C_12  and  C_13
REMARK   14  A    between atoms: C_13  and  C_14
REMARK   15  A    between atoms: C_14  and  C_15
REMARK   16  A    between atoms: C_16  and  C_17
REMARK   17  A    between atoms: C_17  and  O_18
REMARK   18  A    between atoms: C_17  and  C_19
REMARK                            x       y       z     vdW  Elec       q    Type
REMARK                         _______ _______ _______ _____ _____    ______ ____
ROOT
ATOM      1  C   UNL     1       1.395   9.912  18.476  0.00  0.00    +0.000 C 
ENDROOT
BRANCH   1   2
ATOM      2  C   UNL     1       1.004  11.072  19.387  0.00  0.00    +0.000 A 
ATOM      3  C   UNL     1       0.118  10.791  20.432  0.00  0.00    +0.000 A 
ATOM      4  C   UNL     1      -0.289  11.753  21.352  0.00  0.00    +0.000 A 
ATOM      5  C   UNL     1      -1.198  11.307  22.330  0.00  0.00    +0.000 A 
ATOM      6  C   UNL     1      -1.693  12.167  23.300  0.00  0.00    +0.000 A 
ATOM      7  C   UNL     1      -1.277  13.483  23.274  0.00  0.00    +0.000 A 
ATOM      8  C   UNL     1      -0.364  13.941  22.301  0.00  0.00    +0.000 A 
ATOM      9 CL   UNL     1       0.019  15.622  22.496  0.00  0.00    +0.000 Cl
ATOM     10  C   UNL     1       0.180  13.085  21.272  0.00  0.00    +0.000 A 
ATOM     11  C   UNL     1       1.136  13.396  20.182  0.00  0.00    +0.000 A 
ATOM     12  C   UNL     1       1.724  14.671  19.951  0.00  0.00    +0.000 A 
ATOM     13  C   UNL     1       2.636  14.944  18.926  0.00  0.00    +0.000 A 
ATOM     14  C   UNL     1       3.022  13.939  18.070  0.00  0.00    +0.000 A 
ATOM     15  C   UNL     1       2.481  12.672  18.241  0.00  0.00    +0.000 A 
ATOM     16  C   UNL     1       1.542  12.372  19.265  0.00  0.00    +0.000 A 
ENDBRANCH   1   2
BRANCH   1  17
ATOM     17  O   UNL     1       0.339   9.659  17.539  0.00  0.00    +0.000 OA
ATOM     18  H   UNL     1       0.670   8.988  16.917  0.00  0.00    +0.000 HD
ENDBRANCH   1  17
BRANCH   1  19
ATOM     19  C   UNL     1       1.684   8.660  19.349  0.00  0.00    +0.000 C 
BRANCH  19  20
ATOM     20  N   UNL     1       2.189   7.449  18.643  0.00  0.00    +0.000 NA
BRANCH  20  21
ATOM     21  C   UNL     1       2.637   6.457  19.650  0.00  0.00    +0.000 C 
BRANCH  21  22
ATOM     22  C   UNL     1       1.547   6.012  20.648  0.00  0.00    +0.000 C 
BRANCH  22  23
ATOM     23  C   UNL     1       1.175   4.526  20.556  0.00  0.00    +0.000 C 
BRANCH  23  24
ATOM     24  C   UNL     1       2.111   3.712  19.658  0.00  0.00    +0.000 C 
BRANCH  24  25
ATOM     25  C   UNL     1       1.497   3.465  18.282  0.00  0.00    +0.000 C 
BRANCH  25  26
ATOM     26  C   UNL     1       2.552   3.325  17.195  0.00  0.00    +0.000 C 
ATOM     27  C   UNL     1       3.891   2.969  17.821  0.00  0.00    +0.000 C 
ENDBRANCH  25  26
ENDBRANCH  24  25
ENDBRANCH  23  24
ENDBRANCH  22  23
ENDBRANCH  21  22
ENDBRANCH  20  21
BRANCH  20  28
ATOM     28  C   UNL     1       3.310   7.830  17.751  0.00  0.00    +0.000 C 
BRANCH  28  29
ATOM     29  C   UNL     1       4.113   6.689  17.102  0.00  0.00    +0.000 C 
BRANCH  29  30
ATOM     30  C   UNL     1       5.622   6.927  17.015  0.00  0.00    +0.000 C 
BRANCH  30  31
ATOM     31  C   UNL     1       6.356   5.749  16.376  0.00  0.00    +0.000 C 
BRANCH  31  32
ATOM     32  C   UNL     1       5.499   5.053  15.324  0.00  0.00    +0.000 C 
BRANCH  32  34
ATOM     33  C   UNL     1       6.279   3.879  13.247  0.00  0.00    +0.000 C 
ATOM     34  C   UNL     1       6.227   3.832  14.764  0.00  0.00    +0.000 C 
ENDBRANCH  32  34
ENDBRANCH  31  32
ENDBRANCH  30  31
ENDBRANCH  29  30
ENDBRANCH  28  29
ENDBRANCH  20  28
ENDBRANCH  19  20
ENDBRANCH   1  19
TORSDOF 16
ENDMDL
MODEL 8
REMARK VINA RESULT:      -7.2      1.880      6.975
REMARK  Name = 
REMARK  18 active torsions:
REMARK  status: ('A' for Active; 'I' for Inactive)
REMARK    1  A    between atoms: C_1  and  C_2
REMARK    2  A    between atoms: C_2  and  C_3
REMARK    3  A    between atoms: C_3  and  C_4
REMARK    4  A    between atoms: C_4  and  C_5
REMARK    5  A    between atoms: C_5  and  C_6
REMARK    6  A    between atoms: C_6  and  C_7
REMARK    7  A    between atoms: C_7  and  N_8
REMARK    8  A    between atoms: N_8  and  C_9
REMARK    9  A    between atoms: N_8  and  C_16
REMARK   10  A    between atoms: C_9  and  C_10
REMARK   11  A    between atoms: C_10  and  C_11
REMARK   12  A    between atoms: C_11  and  C_12
REMARK   13  A    between atoms: C_12  and  C_13
REMARK   14  A    between atoms: C_13  and  C_14
REMARK   15  A    between atoms: C_14  and  C_15
REMARK   16  A    between atoms: C_16  and  C_17
REMARK   17  A    between atoms: C_17  and  O_18
REMARK   18  A    between atoms: C_17  and  C_19
REMARK                            x       y       z     vdW  Elec       q    Type
REMARK                         _______ _______ _______ _____ _____    ______ ____
ROOT
ATOM      1  C   UNL     1       4.256   7.332  17.159  0.00  0.00    +0.000 C 
ENDROOT
BRANCH   1   2
ATOM      2  C   UNL     1       3.576   6.248  17.990  0.00  0.00    +0.000 A 
ATOM      3  C   UNL     1       3.880   4.920  17.675  0.00  0.00    +0.000 A 
ATOM      4  C   UNL     1       3.353   3.841  18.380  0.00  0.00    +0.000 A 
ATOM      5  C   UNL     1       3.747   2.569  17.922  0.00  0.00    +0.000 A 
ATOM      6  C   UNL     1       3.286   1.410  18.527  0.00  0.00    +0.000 A 
ATOM      7  C   UNL     1       2.415   1.535  19.592  0.00  0.00    +0.000 A 
ATOM      8  C   UNL     1       2.016   2.803  20.063  0.00  0.00    +0.000 A 
ATOM      9 CL   UNL     1       0.942   2.694  21.421  0.00  0.00    +0.000 Cl
ATOM     10  C   UNL     1       2.470   4.040  19.467  0.00  0.00    +0.000 A 
ATOM     11  C   UNL     1       2.153   5.442  19.829  0.00  0.00    +0.000 A 
ATOM     12  C   UNL     1       1.299   5.838  20.895  0.00  0.00    +0.000 A 
ATOM     13  C   UNL     1       1.023   7.168  21.230  0.00  0.00    +0.000 A 
ATOM     14  C   UNL     1       1.602   8.188  20.514  0.00  0.00    +0.000 A 
ATOM     15  C   UNL     1       2.443   7.867  19.457  0.00  0.00    +0.000 A 
ATOM     16  C   UNL     1       2.729   6.525  19.086  0.00  0.00    +0.000 A 
ENDBRANCH   1   2
BRANCH   1  17
ATOM     17  O   UNL     1       3.261   8.186  16.577  0.00  0.00    +0.000 OA
ATOM     18  H   UNL     1       3.089   8.896  17.221  0.00  0.00    +0.000 HD
ENDBRANCH   1  17
BRANCH   1  19
ATOM     19  C   UNL     1       5.127   6.657  16.064  0.00  0.00    +0.000 C 
BRANCH  19  20
ATOM     20  N   UNL     1       6.602   6.663  16.279  0.00  0.00    +0.000 NA
BRANCH  20  21
ATOM     21  C   UNL     1       7.153   5.353  15.856  0.00  0.00    +0.000 C 
BRANCH  21  22
ATOM     22  C   UNL     1       6.098   4.247  15.640  0.00  0.00    +0.000 C 
BRANCH  22  23
ATOM     23  C   UNL     1       6.168   3.567  14.266  0.00  0.00    +0.000 C 
BRANCH  23  24
ATOM     24  C   UNL     1       6.890   4.399  13.203  0.00  0.00    +0.000 C 
BRANCH  24  25
ATOM     25  C   UNL     1       6.796   3.754  11.823  0.00  0.00    +0.000 C 
BRANCH  25  26
ATOM     26  C   UNL     1       5.790   2.614  11.784  0.00  0.00    +0.000 C 
ATOM     27  C   UNL     1       6.415   1.397  11.122  0.00  0.00    +0.000 C 
ENDBRANCH  25  26
ENDBRANCH  24  25
ENDBRANCH  23  24
ENDBRANCH  22  23
ENDBRANCH  21  22
ENDBRANCH  20  21
BRANCH  20  28
ATOM     28  C   UNL     1       6.890   6.913  17.712  0.00  0.00    +0.000 C 
BRANCH  28  29
ATOM     29  C   UNL     1       8.002   7.924  18.040  0.00  0.00    +0.000 C 
BRANCH  29  30
ATOM     30  C   UNL     1       7.779   9.334  17.490  0.00  0.00    +0.000 C 
BRANCH  30  31
ATOM     31  C   UNL     1       8.813  10.329  18.016  0.00  0.00    +0.000 C 
BRANCH  31  32
ATOM     32  C   UNL     1       9.205  10.026  19.458  0.00  0.00    +0.000 C 
BRANCH  32  34
ATOM     33  C   UNL     1       9.404  11.725  21.295  0.00  0.00    +0.000 C 
ATOM     34  C   UNL     1      10.042  11.167  20.035  0.00  0.00    +0.000 C 
ENDBRANCH  32  34
ENDBRANCH  31  32
ENDBRANCH  30  31
ENDBRANCH  29  30
ENDBRANCH  28  29
ENDBRANCH  20  28
ENDBRANCH  19  20
ENDBRANCH   1  19
TORSDOF 16
ENDMDL
MODEL 9
REMARK VINA RESULT:      -7.1      3.125      6.214
REMARK  Name = 
REMARK  18 active torsions:
REMARK  status: ('A' for Active; 'I' for Inactive)
REMARK    1  A    between atoms: C_1  and  C_2
REMARK    2  A    between atoms: C_2  and  C_3
REMARK    3  A    between atoms: C_3  and  C_4
REMARK    4  A    between atoms: C_4  and  C_5
REMARK    5  A    between atoms: C_5  and  C_6
REMARK    6  A    between atoms: C_6  and  C_7
REMARK    7  A    between atoms: C_7  and  N_8
REMARK    8  A    between atoms: N_8  and  C_9
REMARK    9  A    between atoms: N_8  and  C_16
REMARK   10  A    between atoms: C_9  and  C_10
REMARK   11  A    between atoms: C_10  and  C_11
REMARK   12  A    between atoms: C_11  and  C_12
REMARK   13  A    between atoms: C_12  and  C_13
REMARK   14  A    between atoms: C_13  and  C_14
REMARK   15  A    between atoms: C_14  and  C_15
REMARK   16  A    between atoms: C_16  and  C_17
REMARK   17  A    between atoms: C_17  and  O_18
REMARK   18  A    between atoms: C_17  and  C_19
REMARK                            x       y       z     vdW  Elec       q    Type
REMARK                         _______ _______ _______ _____ _____    ______ ____
ROOT
ATOM      1  C   UNL     1       1.923   8.920  18.570  0.00  0.00    +0.000 C 
ENDROOT
BRANCH   1   2
ATOM      2  C   UNL     1       1.327  10.066  19.382  0.00  0.00    +0.000 A 
ATOM      3  C   UNL     1       0.532   9.723  20.480  0.00  0.00    +0.000 A 
ATOM      4  C   UNL     1      -0.040  10.673  21.321  0.00  0.00    +0.000 A 
ATOM      5  C   UNL     1      -0.827  10.159  22.368  0.00  0.00    +0.000 A 
ATOM      6  C   UNL     1      -1.463  10.997  23.271  0.00  0.00    +0.000 A 
ATOM      7  C   UNL     1      -1.314  12.361  23.109  0.00  0.00    +0.000 A 
ATOM      8  C   UNL     1      -0.526  12.889  22.065  0.00  0.00    +0.000 A 
ATOM      9 CL   UNL     1      -0.476  14.622  22.089  0.00  0.00    +0.000 Cl
ATOM     10  C   UNL     1       0.158  12.057  21.101  0.00  0.00    +0.000 A 
ATOM     11  C   UNL     1       1.016  12.439  19.953  0.00  0.00    +0.000 A 
ATOM     12  C   UNL     1       1.338  13.774  19.583  0.00  0.00    +0.000 A 
ATOM     13  C   UNL     1       2.161  14.116  18.505  0.00  0.00    +0.000 A 
ATOM     14  C   UNL     1       2.722  13.126  17.733  0.00  0.00    +0.000 A 
ATOM     15  C   UNL     1       2.443  11.801  18.040  0.00  0.00    +0.000 A 
ATOM     16  C   UNL     1       1.599  11.428  19.121  0.00  0.00    +0.000 A 
ENDBRANCH   1   2
BRANCH   1  17
ATOM     17  O   UNL     1       1.139   8.712  17.386  0.00  0.00    +0.000 OA
ATOM     18  H   UNL     1       0.208   8.683  17.668  0.00  0.00    +0.000 HD
ENDBRANCH   1  17
BRANCH   1  19
ATOM     19  C   UNL     1       1.960   7.641  19.452  0.00  0.00    +0.000 C 
BRANCH  19  20
ATOM     20  N   UNL     1       3.137   6.743  19.285  0.00  0.00    +0.000 NA
BRANCH  20  21
ATOM     21  C   UNL     1       3.305   6.435  17.844  0.00  0.00    +0.000 C 
BRANCH  21  22
ATOM     22  C   UNL     1       4.664   6.856  17.247  0.00  0.00    +0.000 C 
BRANCH  22  23
ATOM     23  C   UNL     1       5.802   5.856  17.499  0.00  0.00    +0.000 C 
BRANCH  23  24
ATOM     24  C   UNL     1       7.174   6.357  17.044  0.00  0.00    +0.000 C 
BRANCH  24  25
ATOM     25  C   UNL     1       7.822   7.257  18.094  0.00  0.00    +0.000 C 
BRANCH  25  26
ATOM     26  C   UNL     1       7.888   8.710  17.650  0.00  0.00    +0.000 C 
ATOM     27  C   UNL     1       8.758   9.503  18.610  0.00  0.00    +0.000 C 
ENDBRANCH  25  26
ENDBRANCH  24  25
ENDBRANCH  23  24
ENDBRANCH  22  23
ENDBRANCH  21  22
ENDBRANCH  20  21
BRANCH  20  28
ATOM     28  C   UNL     1       2.922   5.500  20.064  0.00  0.00    +0.000 C 
BRANCH  28  29
ATOM     29  C   UNL     1       1.487   5.201  20.531  0.00  0.00    +0.000 C 
BRANCH  29  30
ATOM     30  C   UNL     1       1.161   3.717  20.715  0.00  0.00    +0.000 C 
BRANCH  30  31
ATOM     31  C   UNL     1       2.166   2.813  20.001  0.00  0.00    +0.000 C 
BRANCH  31  32
ATOM     32  C   UNL     1       1.599   2.258  18.699  0.00  0.00    +0.000 C 
BRANCH  32  34
ATOM     33  C   UNL     1       3.849   2.733  17.692  0.00  0.00    +0.000 C 
ATOM     34  C   UNL     1       2.346   2.841  17.500  0.00  0.00    +0.000 C 
ENDBRANCH  32  34
ENDBRANCH  31  32
ENDBRANCH  30  31
ENDBRANCH  29  30
ENDBRANCH  28  29
ENDBRANCH  20  28
ENDBRANCH  19  20
ENDBRANCH   1  19
TORSDOF 16
ENDMDL
